
*** ChampSim Multicore Out-of-Order Simulator ***

Warmup Instructions: 50000000
Simulation Instructions: 1500000000
Number of CPUs: 1
Off-chip DRAM Size: 4 GiB Channels: 1 Width: 64-bit Data Rate: 3200 MT/s

VirtualMemory physical capacity: 8588881920 num_ppages: 2096895
VirtualMemory page size: 4096 log2_page_size: 12

CPU 0 runs /s/traces/champsim_traces/641.leela_s-149B.champsimtrace.xz
CPU 0 Bimodal branch predictor
Basic BTB sets: 1024 ways: 8 indirect buffer size: 4096 RAS size: 64
Initializing LRU.
Initializing LRU.
Initializing LRU.
Initializing LRU.
Initializing rdLRU.
Initializing LRU.
Initializing LRU.
Heartbeat CPU 0 instructions: 2000003 cycles: 505433 heartbeat IPC: 3.95701 cumulative IPC: 3.95701 (Simulation time: 0 hr 0 min 40 sec) 
Heartbeat CPU 0 instructions: 4000002 cycles: 1010752 heartbeat IPC: 3.95789 cumulative IPC: 3.95745 (Simulation time: 0 hr 1 min 22 sec) 
Heartbeat CPU 0 instructions: 6000001 cycles: 1516739 heartbeat IPC: 3.95267 cumulative IPC: 3.95586 (Simulation time: 0 hr 2 min 2 sec) 
Heartbeat CPU 0 instructions: 8000001 cycles: 2022062 heartbeat IPC: 3.95786 cumulative IPC: 3.95636 (Simulation time: 0 hr 2 min 44 sec) 
Heartbeat CPU 0 instructions: 10000002 cycles: 2527384 heartbeat IPC: 3.95787 cumulative IPC: 3.95666 (Simulation time: 0 hr 3 min 24 sec) 
Heartbeat CPU 0 instructions: 12000002 cycles: 3069564 heartbeat IPC: 3.68881 cumulative IPC: 3.90935 (Simulation time: 0 hr 4 min 7 sec) 
Heartbeat CPU 0 instructions: 14000003 cycles: 3809623 heartbeat IPC: 2.70249 cumulative IPC: 3.67491 (Simulation time: 0 hr 5 min 16 sec) 
Heartbeat CPU 0 instructions: 16000000 cycles: 4311744 heartbeat IPC: 3.9831 cumulative IPC: 3.7108 (Simulation time: 0 hr 5 min 53 sec) 
Heartbeat CPU 0 instructions: 18000001 cycles: 4819227 heartbeat IPC: 3.94102 cumulative IPC: 3.73504 (Simulation time: 0 hr 6 min 34 sec) 
Heartbeat CPU 0 instructions: 20000003 cycles: 5325348 heartbeat IPC: 3.95163 cumulative IPC: 3.75562 (Simulation time: 0 hr 7 min 17 sec) 
Heartbeat CPU 0 instructions: 22000002 cycles: 5831467 heartbeat IPC: 3.95164 cumulative IPC: 3.77264 (Simulation time: 0 hr 7 min 58 sec) 
Heartbeat CPU 0 instructions: 24000000 cycles: 6338947 heartbeat IPC: 3.94104 cumulative IPC: 3.78612 (Simulation time: 0 hr 8 min 43 sec) 
Heartbeat CPU 0 instructions: 26000001 cycles: 6846427 heartbeat IPC: 3.94104 cumulative IPC: 3.7976 (Simulation time: 0 hr 9 min 27 sec) 
Heartbeat CPU 0 instructions: 28000002 cycles: 7353226 heartbeat IPC: 3.94634 cumulative IPC: 3.80785 (Simulation time: 0 hr 10 min 9 sec) 
Heartbeat CPU 0 instructions: 30000000 cycles: 7913338 heartbeat IPC: 3.57071 cumulative IPC: 3.79107 (Simulation time: 0 hr 10 min 58 sec) 
Heartbeat CPU 0 instructions: 32000002 cycles: 8419995 heartbeat IPC: 3.94745 cumulative IPC: 3.80048 (Simulation time: 0 hr 11 min 41 sec) 
Heartbeat CPU 0 instructions: 34000001 cycles: 8926640 heartbeat IPC: 3.94754 cumulative IPC: 3.80882 (Simulation time: 0 hr 12 min 23 sec) 
Heartbeat CPU 0 instructions: 36000001 cycles: 9433288 heartbeat IPC: 3.94751 cumulative IPC: 3.81627 (Simulation time: 0 hr 13 min 6 sec) 
Heartbeat CPU 0 instructions: 38000002 cycles: 9939933 heartbeat IPC: 3.94754 cumulative IPC: 3.82296 (Simulation time: 0 hr 13 min 48 sec) 
Heartbeat CPU 0 instructions: 40000003 cycles: 10446580 heartbeat IPC: 3.94752 cumulative IPC: 3.829 (Simulation time: 0 hr 14 min 30 sec) 
Heartbeat CPU 0 instructions: 42000003 cycles: 10953224 heartbeat IPC: 3.94755 cumulative IPC: 3.83449 (Simulation time: 0 hr 15 min 12 sec) 
Heartbeat CPU 0 instructions: 44000001 cycles: 11460529 heartbeat IPC: 3.9424 cumulative IPC: 3.83926 (Simulation time: 0 hr 15 min 54 sec) 
Heartbeat CPU 0 instructions: 46000000 cycles: 11967839 heartbeat IPC: 3.94236 cumulative IPC: 3.84363 (Simulation time: 0 hr 16 min 35 sec) 
Heartbeat CPU 0 instructions: 48000003 cycles: 12473824 heartbeat IPC: 3.95269 cumulative IPC: 3.84806 (Simulation time: 0 hr 17 min 14 sec) 
Heartbeat CPU 0 instructions: 50000002 cycles: 12981133 heartbeat IPC: 3.94237 cumulative IPC: 3.85174 (Simulation time: 0 hr 17 min 52 sec) 

Warmup complete CPU 0 instructions: 50000002 cycles: 12981133 (Simulation time: 0 hr 17 min 52 sec) 

Heartbeat CPU 0 instructions: 52000003 cycles: 15070495 heartbeat IPC: 0.957231 cumulative IPC: 0.957231 (Simulation time: 0 hr 18 min 38 sec) 

Region of Interest Statistics
cpu0_DTLB TOTAL     ACCESS:     403809  HIT:     403092  MISS:        717
cpu0_DTLB LOAD      ACCESS:     274735  HIT:     274036  MISS:        699
cpu0_DTLB RFO       ACCESS:     129074  HIT:     129056  MISS:         18
cpu0_DTLB PREFETCH  ACCESS:          0  HIT:          0  MISS:          0
cpu0_DTLB WRITEBACK ACCESS:          0  HIT:          0  MISS:          0
cpu0_ITLB TOTAL     ACCESS:     207309  HIT:     207309  MISS:          0
cpu0_ITLB LOAD      ACCESS:     207309  HIT:     207309  MISS:          0
cpu0_ITLB RFO       ACCESS:          0  HIT:          0  MISS:          0
cpu0_ITLB PREFETCH  ACCESS:          0  HIT:          0  MISS:          0
cpu0_ITLB WRITEBACK ACCESS:          0  HIT:          0  MISS:          0
cpu0_L1I TOTAL     ACCESS:     220345  HIT:     220102  MISS:        243
cpu0_L1I LOAD      ACCESS:     220345  HIT:     220102  MISS:        243
cpu0_L1I RFO       ACCESS:          0  HIT:          0  MISS:          0
cpu0_L1I PREFETCH  ACCESS:          0  HIT:          0  MISS:          0
cpu0_L1I WRITEBACK ACCESS:          0  HIT:          0  MISS:          0
cpu0_STLB TOTAL     ACCESS:        717  HIT:        709  MISS:          8
cpu0_STLB LOAD      ACCESS:        699  HIT:        691  MISS:          8
cpu0_STLB RFO       ACCESS:         18  HIT:         18  MISS:          0
cpu0_STLB PREFETCH  ACCESS:          0  HIT:          0  MISS:          0
cpu0_STLB WRITEBACK ACCESS:          0  HIT:          0  MISS:          0
cpu0_L1D TOTAL     ACCESS:     545009  HIT:     543183  MISS:       1826
cpu0_L1D LOAD      ACCESS:     306637  HIT:     305011  MISS:       1626
cpu0_L1D RFO       ACCESS:     238364  HIT:     238172  MISS:        192
cpu0_L1D PREFETCH  ACCESS:          0  HIT:          0  MISS:          0
cpu0_L1D WRITEBACK ACCESS:          0  HIT:          0  MISS:          0
cpu0_L2C TOTAL     ACCESS:       2338  HIT:       2274  MISS:         64
cpu0_L2C LOAD      ACCESS:       1869  HIT:       1805  MISS:         64
cpu0_L2C RFO       ACCESS:        192  HIT:        192  MISS:          0
cpu0_L2C PREFETCH  ACCESS:          0  HIT:          0  MISS:          0
cpu0_L2C WRITEBACK ACCESS:        269  HIT:        269  MISS:          0
LLC TOTAL     ACCESS:        101  HIT:         60  MISS:         41
LLC LOAD      ACCESS:         64  HIT:         23  MISS:         41
LLC RFO       ACCESS:          0  HIT:          0  MISS:          0
LLC PREFETCH  ACCESS:          0  HIT:          0  MISS:          0
LLC WRITEBACK ACCESS:         37  HIT:         37  MISS:          0
Heartbeat CPU 0 instructions: 54000000 cycles: 17167874 heartbeat IPC: 0.95357 cumulative IPC: 0.955397 (Simulation time: 0 hr 19 min 23 sec) 

Region of Interest Statistics
cpu0_DTLB TOTAL     ACCESS:     805441  HIT:     803981  MISS:       1460
cpu0_DTLB LOAD      ACCESS:     548151  HIT:     546725  MISS:       1426
cpu0_DTLB RFO       ACCESS:     257290  HIT:     257256  MISS:         34
cpu0_DTLB PREFETCH  ACCESS:          0  HIT:          0  MISS:          0
cpu0_DTLB WRITEBACK ACCESS:          0  HIT:          0  MISS:          0
cpu0_ITLB TOTAL     ACCESS:     414626  HIT:     414626  MISS:          0
cpu0_ITLB LOAD      ACCESS:     414626  HIT:     414626  MISS:          0
cpu0_ITLB RFO       ACCESS:          0  HIT:          0  MISS:          0
cpu0_ITLB PREFETCH  ACCESS:          0  HIT:          0  MISS:          0
cpu0_ITLB WRITEBACK ACCESS:          0  HIT:          0  MISS:          0
cpu0_L1I TOTAL     ACCESS:     440718  HIT:     440240  MISS:        478
cpu0_L1I LOAD      ACCESS:     440718  HIT:     440240  MISS:        478
cpu0_L1I RFO       ACCESS:          0  HIT:          0  MISS:          0
cpu0_L1I PREFETCH  ACCESS:          0  HIT:          0  MISS:          0
cpu0_L1I WRITEBACK ACCESS:          0  HIT:          0  MISS:          0
cpu0_STLB TOTAL     ACCESS:       1460  HIT:       1444  MISS:         16
cpu0_STLB LOAD      ACCESS:       1426  HIT:       1410  MISS:         16
cpu0_STLB RFO       ACCESS:         34  HIT:         34  MISS:          0
cpu0_STLB PREFETCH  ACCESS:          0  HIT:          0  MISS:          0
cpu0_STLB WRITEBACK ACCESS:          0  HIT:          0  MISS:          0
cpu0_L1D TOTAL     ACCESS:    1088174  HIT:    1084374  MISS:       3800
cpu0_L1D LOAD      ACCESS:     612412  HIT:     609029  MISS:       3383
cpu0_L1D RFO       ACCESS:     475746  HIT:     475345  MISS:        401
cpu0_L1D PREFETCH  ACCESS:          0  HIT:          0  MISS:          0
cpu0_L1D WRITEBACK ACCESS:          0  HIT:          0  MISS:          0
cpu0_L2C TOTAL     ACCESS:       4865  HIT:       4749  MISS:        116
cpu0_L2C LOAD      ACCESS:       3861  HIT:       3745  MISS:        116
cpu0_L2C RFO       ACCESS:        401  HIT:        401  MISS:          0
cpu0_L2C PREFETCH  ACCESS:          0  HIT:          0  MISS:          0
cpu0_L2C WRITEBACK ACCESS:        587  HIT:        587  MISS:          0
LLC TOTAL     ACCESS:        187  HIT:        113  MISS:         74
LLC LOAD      ACCESS:        116  HIT:         42  MISS:         74
LLC RFO       ACCESS:          0  HIT:          0  MISS:          0
LLC PREFETCH  ACCESS:          0  HIT:          0  MISS:          0
LLC WRITEBACK ACCESS:         71  HIT:         71  MISS:          0
Heartbeat CPU 0 instructions: 56000000 cycles: 19302748 heartbeat IPC: 0.936823 cumulative IPC: 0.949124 (Simulation time: 0 hr 20 min 9 sec) 

Region of Interest Statistics
cpu0_DTLB TOTAL     ACCESS:    1210588  HIT:    1208371  MISS:       2217
cpu0_DTLB LOAD      ACCESS:     826087  HIT:     823919  MISS:       2168
cpu0_DTLB RFO       ACCESS:     384501  HIT:     384452  MISS:         49
cpu0_DTLB PREFETCH  ACCESS:          0  HIT:          0  MISS:          0
cpu0_DTLB WRITEBACK ACCESS:          0  HIT:          0  MISS:          0
cpu0_ITLB TOTAL     ACCESS:     623856  HIT:     623856  MISS:          0
cpu0_ITLB LOAD      ACCESS:     623856  HIT:     623856  MISS:          0
cpu0_ITLB RFO       ACCESS:          0  HIT:          0  MISS:          0
cpu0_ITLB PREFETCH  ACCESS:          0  HIT:          0  MISS:          0
cpu0_ITLB WRITEBACK ACCESS:          0  HIT:          0  MISS:          0
cpu0_L1I TOTAL     ACCESS:     659149  HIT:     658451  MISS:        698
cpu0_L1I LOAD      ACCESS:     659149  HIT:     658451  MISS:        698
cpu0_L1I RFO       ACCESS:          0  HIT:          0  MISS:          0
cpu0_L1I PREFETCH  ACCESS:          0  HIT:          0  MISS:          0
cpu0_L1I WRITEBACK ACCESS:          0  HIT:          0  MISS:          0
cpu0_STLB TOTAL     ACCESS:       2217  HIT:       2196  MISS:         21
cpu0_STLB LOAD      ACCESS:       2168  HIT:       2147  MISS:         21
cpu0_STLB RFO       ACCESS:         49  HIT:         49  MISS:          0
cpu0_STLB PREFETCH  ACCESS:          0  HIT:          0  MISS:          0
cpu0_STLB WRITEBACK ACCESS:          0  HIT:          0  MISS:          0
cpu0_L1D TOTAL     ACCESS:    1635026  HIT:    1629307  MISS:       5719
cpu0_L1D LOAD      ACCESS:     923531  HIT:     918440  MISS:       5091
cpu0_L1D RFO       ACCESS:     711474  HIT:     710866  MISS:        608
cpu0_L1D PREFETCH  ACCESS:          0  HIT:          0  MISS:          0
cpu0_L1D WRITEBACK ACCESS:          0  HIT:          0  MISS:          0
cpu0_L2C TOTAL     ACCESS:       7321  HIT:       7172  MISS:        149
cpu0_L2C LOAD      ACCESS:       5789  HIT:       5640  MISS:        149
cpu0_L2C RFO       ACCESS:        608  HIT:        608  MISS:          0
cpu0_L2C PREFETCH  ACCESS:          0  HIT:          0  MISS:          0
cpu0_L2C WRITEBACK ACCESS:        904  HIT:        904  MISS:          0
LLC TOTAL     ACCESS:        242  HIT:        146  MISS:         96
LLC LOAD      ACCESS:        149  HIT:         54  MISS:         95
LLC RFO       ACCESS:          0  HIT:          0  MISS:          0
LLC PREFETCH  ACCESS:          0  HIT:          0  MISS:          0
LLC WRITEBACK ACCESS:         93  HIT:         92  MISS:          1
Heartbeat CPU 0 instructions: 58000003 cycles: 21402276 heartbeat IPC: 0.952596 cumulative IPC: 0.94999 (Simulation time: 0 hr 20 min 54 sec) 

Region of Interest Statistics
cpu0_DTLB TOTAL     ACCESS:    1615609  HIT:    1612607  MISS:       3002
cpu0_DTLB LOAD      ACCESS:    1101567  HIT:    1098632  MISS:       2935
cpu0_DTLB RFO       ACCESS:     514042  HIT:     513975  MISS:         67
cpu0_DTLB PREFETCH  ACCESS:          0  HIT:          0  MISS:          0
cpu0_DTLB WRITEBACK ACCESS:          0  HIT:          0  MISS:          0
cpu0_ITLB TOTAL     ACCESS:     831151  HIT:     831151  MISS:          0
cpu0_ITLB LOAD      ACCESS:     831151  HIT:     831151  MISS:          0
cpu0_ITLB RFO       ACCESS:          0  HIT:          0  MISS:          0
cpu0_ITLB PREFETCH  ACCESS:          0  HIT:          0  MISS:          0
cpu0_ITLB WRITEBACK ACCESS:          0  HIT:          0  MISS:          0
cpu0_L1I TOTAL     ACCESS:     877906  HIT:     876925  MISS:        981
cpu0_L1I LOAD      ACCESS:     877906  HIT:     876925  MISS:        981
cpu0_L1I RFO       ACCESS:          0  HIT:          0  MISS:          0
cpu0_L1I PREFETCH  ACCESS:          0  HIT:          0  MISS:          0
cpu0_L1I WRITEBACK ACCESS:          0  HIT:          0  MISS:          0
cpu0_STLB TOTAL     ACCESS:       3002  HIT:       2977  MISS:         25
cpu0_STLB LOAD      ACCESS:       2935  HIT:       2910  MISS:         25
cpu0_STLB RFO       ACCESS:         67  HIT:         67  MISS:          0
cpu0_STLB PREFETCH  ACCESS:          0  HIT:          0  MISS:          0
cpu0_STLB WRITEBACK ACCESS:          0  HIT:          0  MISS:          0
cpu0_L1D TOTAL     ACCESS:    2180068  HIT:    2172442  MISS:       7626
cpu0_L1D LOAD      ACCESS:    1230634  HIT:    1223852  MISS:       6782
cpu0_L1D RFO       ACCESS:     949409  HIT:     948588  MISS:        821
cpu0_L1D PREFETCH  ACCESS:          0  HIT:          0  MISS:          0
cpu0_L1D WRITEBACK ACCESS:          0  HIT:          0  MISS:          0
cpu0_L2C TOTAL     ACCESS:       9817  HIT:       9634  MISS:        183
cpu0_L2C LOAD      ACCESS:       7763  HIT:       7581  MISS:        182
cpu0_L2C RFO       ACCESS:        821  HIT:        821  MISS:          0
cpu0_L2C PREFETCH  ACCESS:          0  HIT:          0  MISS:          0
cpu0_L2C WRITEBACK ACCESS:       1210  HIT:       1209  MISS:          1
LLC TOTAL     ACCESS:        297  HIT:        179  MISS:        118
LLC LOAD      ACCESS:        182  HIT:         65  MISS:        117
LLC RFO       ACCESS:          0  HIT:          0  MISS:          0
LLC PREFETCH  ACCESS:          0  HIT:          0  MISS:          0
LLC WRITEBACK ACCESS:        115  HIT:        114  MISS:          1
Heartbeat CPU 0 instructions: 60000000 cycles: 23519494 heartbeat IPC: 0.944634 cumulative IPC: 0.948914 (Simulation time: 0 hr 21 min 41 sec) 

Region of Interest Statistics
cpu0_DTLB TOTAL     ACCESS:    2023000  HIT:    2019216  MISS:       3784
cpu0_DTLB LOAD      ACCESS:    1379756  HIT:    1376058  MISS:       3698
cpu0_DTLB RFO       ACCESS:     643244  HIT:     643158  MISS:         86
cpu0_DTLB PREFETCH  ACCESS:          0  HIT:          0  MISS:          0
cpu0_DTLB WRITEBACK ACCESS:          0  HIT:          0  MISS:          0
cpu0_ITLB TOTAL     ACCESS:    1040809  HIT:    1040809  MISS:          0
cpu0_ITLB LOAD      ACCESS:    1040809  HIT:    1040809  MISS:          0
cpu0_ITLB RFO       ACCESS:          0  HIT:          0  MISS:          0
cpu0_ITLB PREFETCH  ACCESS:          0  HIT:          0  MISS:          0
cpu0_ITLB WRITEBACK ACCESS:          0  HIT:          0  MISS:          0
cpu0_L1I TOTAL     ACCESS:    1093044  HIT:    1091791  MISS:       1253
cpu0_L1I LOAD      ACCESS:    1093044  HIT:    1091791  MISS:       1253
cpu0_L1I RFO       ACCESS:          0  HIT:          0  MISS:          0
cpu0_L1I PREFETCH  ACCESS:          0  HIT:          0  MISS:          0
cpu0_L1I WRITEBACK ACCESS:          0  HIT:          0  MISS:          0
cpu0_STLB TOTAL     ACCESS:       3784  HIT:       3757  MISS:         27
cpu0_STLB LOAD      ACCESS:       3698  HIT:       3671  MISS:         27
cpu0_STLB RFO       ACCESS:         86  HIT:         86  MISS:          0
cpu0_STLB PREFETCH  ACCESS:          0  HIT:          0  MISS:          0
cpu0_STLB WRITEBACK ACCESS:          0  HIT:          0  MISS:          0
cpu0_L1D TOTAL     ACCESS:    2726141  HIT:    2716743  MISS:       9398
cpu0_L1D LOAD      ACCESS:    1540618  HIT:    1532243  MISS:       8375
cpu0_L1D RFO       ACCESS:    1185496  HIT:    1184497  MISS:        999
cpu0_L1D PREFETCH  ACCESS:          0  HIT:          0  MISS:          0
cpu0_L1D WRITEBACK ACCESS:          0  HIT:          0  MISS:          0
cpu0_L2C TOTAL     ACCESS:      12121  HIT:      11898  MISS:        223
cpu0_L2C LOAD      ACCESS:       9628  HIT:       9406  MISS:        222
cpu0_L2C RFO       ACCESS:        999  HIT:        999  MISS:          0
cpu0_L2C PREFETCH  ACCESS:          0  HIT:          0  MISS:          0
cpu0_L2C WRITEBACK ACCESS:       1470  HIT:       1469  MISS:          1
LLC TOTAL     ACCESS:        363  HIT:        221  MISS:        142
LLC LOAD      ACCESS:        222  HIT:         81  MISS:        141
LLC RFO       ACCESS:          0  HIT:          0  MISS:          0
LLC PREFETCH  ACCESS:          0  HIT:          0  MISS:          0
LLC WRITEBACK ACCESS:        141  HIT:        140  MISS:          1
Heartbeat CPU 0 instructions: 62000002 cycles: 25606901 heartbeat IPC: 0.958127 cumulative IPC: 0.950437 (Simulation time: 0 hr 22 min 25 sec) 

Region of Interest Statistics
cpu0_DTLB TOTAL     ACCESS:    2427471  HIT:    2423000  MISS:       4471
cpu0_DTLB LOAD      ACCESS:    1656108  HIT:    1651744  MISS:       4364
cpu0_DTLB RFO       ACCESS:     771363  HIT:     771256  MISS:        107
cpu0_DTLB PREFETCH  ACCESS:          0  HIT:          0  MISS:          0
cpu0_DTLB WRITEBACK ACCESS:          0  HIT:          0  MISS:          0
cpu0_ITLB TOTAL     ACCESS:    1248953  HIT:    1248953  MISS:          0
cpu0_ITLB LOAD      ACCESS:    1248953  HIT:    1248953  MISS:          0
cpu0_ITLB RFO       ACCESS:          0  HIT:          0  MISS:          0
cpu0_ITLB PREFETCH  ACCESS:          0  HIT:          0  MISS:          0
cpu0_ITLB WRITEBACK ACCESS:          0  HIT:          0  MISS:          0
cpu0_L1I TOTAL     ACCESS:    1311691  HIT:    1310212  MISS:       1479
cpu0_L1I LOAD      ACCESS:    1311691  HIT:    1310212  MISS:       1479
cpu0_L1I RFO       ACCESS:          0  HIT:          0  MISS:          0
cpu0_L1I PREFETCH  ACCESS:          0  HIT:          0  MISS:          0
cpu0_L1I WRITEBACK ACCESS:          0  HIT:          0  MISS:          0
cpu0_STLB TOTAL     ACCESS:       4471  HIT:       4441  MISS:         30
cpu0_STLB LOAD      ACCESS:       4364  HIT:       4334  MISS:         30
cpu0_STLB RFO       ACCESS:        107  HIT:        107  MISS:          0
cpu0_STLB PREFETCH  ACCESS:          0  HIT:          0  MISS:          0
cpu0_STLB WRITEBACK ACCESS:          0  HIT:          0  MISS:          0
cpu0_L1D TOTAL     ACCESS:    3270406  HIT:    3259228  MISS:      11178
cpu0_L1D LOAD      ACCESS:    1848294  HIT:    1838319  MISS:       9975
cpu0_L1D RFO       ACCESS:    1422082  HIT:    1420906  MISS:       1176
cpu0_L1D PREFETCH  ACCESS:          0  HIT:          0  MISS:          0
cpu0_L1D WRITEBACK ACCESS:          0  HIT:          0  MISS:          0
cpu0_L2C TOTAL     ACCESS:      14390  HIT:      14143  MISS:        247
cpu0_L2C LOAD      ACCESS:      11454  HIT:      11208  MISS:        246
cpu0_L2C RFO       ACCESS:       1176  HIT:       1176  MISS:          0
cpu0_L2C PREFETCH  ACCESS:          0  HIT:          0  MISS:          0
cpu0_L2C WRITEBACK ACCESS:       1733  HIT:       1732  MISS:          1
LLC TOTAL     ACCESS:        401  HIT:        240  MISS:        161
LLC LOAD      ACCESS:        246  HIT:         87  MISS:        159
LLC RFO       ACCESS:          0  HIT:          0  MISS:          0
LLC PREFETCH  ACCESS:          0  HIT:          0  MISS:          0
LLC WRITEBACK ACCESS:        155  HIT:        153  MISS:          2
Heartbeat CPU 0 instructions: 64000003 cycles: 27717060 heartbeat IPC: 0.947796 cumulative IPC: 0.950059 (Simulation time: 0 hr 23 min 7 sec) 

Region of Interest Statistics
cpu0_DTLB TOTAL     ACCESS:    2830145  HIT:    2824891  MISS:       5254
cpu0_DTLB LOAD      ACCESS:    1930843  HIT:    1925709  MISS:       5134
cpu0_DTLB RFO       ACCESS:     899302  HIT:     899182  MISS:        120
cpu0_DTLB PREFETCH  ACCESS:          0  HIT:          0  MISS:          0
cpu0_DTLB WRITEBACK ACCESS:          0  HIT:          0  MISS:          0
cpu0_ITLB TOTAL     ACCESS:    1456658  HIT:    1456658  MISS:          0
cpu0_ITLB LOAD      ACCESS:    1456658  HIT:    1456658  MISS:          0
cpu0_ITLB RFO       ACCESS:          0  HIT:          0  MISS:          0
cpu0_ITLB PREFETCH  ACCESS:          0  HIT:          0  MISS:          0
cpu0_ITLB WRITEBACK ACCESS:          0  HIT:          0  MISS:          0
cpu0_L1I TOTAL     ACCESS:    1532328  HIT:    1530589  MISS:       1739
cpu0_L1I LOAD      ACCESS:    1532328  HIT:    1530589  MISS:       1739
cpu0_L1I RFO       ACCESS:          0  HIT:          0  MISS:          0
cpu0_L1I PREFETCH  ACCESS:          0  HIT:          0  MISS:          0
cpu0_L1I WRITEBACK ACCESS:          0  HIT:          0  MISS:          0
cpu0_STLB TOTAL     ACCESS:       5254  HIT:       5222  MISS:         32
cpu0_STLB LOAD      ACCESS:       5134  HIT:       5102  MISS:         32
cpu0_STLB RFO       ACCESS:        120  HIT:        120  MISS:          0
cpu0_STLB PREFETCH  ACCESS:          0  HIT:          0  MISS:          0
cpu0_STLB WRITEBACK ACCESS:          0  HIT:          0  MISS:          0
cpu0_L1D TOTAL     ACCESS:    3814203  HIT:    3801105  MISS:      13098
cpu0_L1D LOAD      ACCESS:    2155072  HIT:    2143374  MISS:      11698
cpu0_L1D RFO       ACCESS:    1659099  HIT:    1657728  MISS:       1371
cpu0_L1D PREFETCH  ACCESS:          0  HIT:          0  MISS:          0
cpu0_L1D WRITEBACK ACCESS:          0  HIT:          0  MISS:          0
cpu0_L2C TOTAL     ACCESS:      16850  HIT:      16570  MISS:        280
cpu0_L2C LOAD      ACCESS:      13437  HIT:      13158  MISS:        279
cpu0_L2C RFO       ACCESS:       1371  HIT:       1371  MISS:          0
cpu0_L2C PREFETCH  ACCESS:          0  HIT:          0  MISS:          0
cpu0_L2C WRITEBACK ACCESS:       2013  HIT:       2012  MISS:          1
LLC TOTAL     ACCESS:        451  HIT:        266  MISS:        185
LLC LOAD      ACCESS:        279  HIT:         96  MISS:        183
LLC RFO       ACCESS:          0  HIT:          0  MISS:          0
LLC PREFETCH  ACCESS:          0  HIT:          0  MISS:          0
LLC WRITEBACK ACCESS:        172  HIT:        170  MISS:          2
Heartbeat CPU 0 instructions: 66000000 cycles: 29835194 heartbeat IPC: 0.944226 cumulative IPC: 0.949326 (Simulation time: 0 hr 23 min 51 sec) 

Region of Interest Statistics
cpu0_DTLB TOTAL     ACCESS:    3236502  HIT:    3230453  MISS:       6049
cpu0_DTLB LOAD      ACCESS:    2208636  HIT:    2202719  MISS:       5917
cpu0_DTLB RFO       ACCESS:    1027866  HIT:    1027734  MISS:        132
cpu0_DTLB PREFETCH  ACCESS:          0  HIT:          0  MISS:          0
cpu0_DTLB WRITEBACK ACCESS:          0  HIT:          0  MISS:          0
cpu0_ITLB TOTAL     ACCESS:    1665636  HIT:    1665636  MISS:          0
cpu0_ITLB LOAD      ACCESS:    1665636  HIT:    1665636  MISS:          0
cpu0_ITLB RFO       ACCESS:          0  HIT:          0  MISS:          0
cpu0_ITLB PREFETCH  ACCESS:          0  HIT:          0  MISS:          0
cpu0_ITLB WRITEBACK ACCESS:          0  HIT:          0  MISS:          0
cpu0_L1I TOTAL     ACCESS:    1750996  HIT:    1749023  MISS:       1973
cpu0_L1I LOAD      ACCESS:    1750996  HIT:    1749023  MISS:       1973
cpu0_L1I RFO       ACCESS:          0  HIT:          0  MISS:          0
cpu0_L1I PREFETCH  ACCESS:          0  HIT:          0  MISS:          0
cpu0_L1I WRITEBACK ACCESS:          0  HIT:          0  MISS:          0
cpu0_STLB TOTAL     ACCESS:       6050  HIT:       6015  MISS:         35
cpu0_STLB LOAD      ACCESS:       5918  HIT:       5883  MISS:         35
cpu0_STLB RFO       ACCESS:        132  HIT:        132  MISS:          0
cpu0_STLB PREFETCH  ACCESS:          0  HIT:          0  MISS:          0
cpu0_STLB WRITEBACK ACCESS:          0  HIT:          0  MISS:          0
cpu0_L1D TOTAL     ACCESS:    4360854  HIT:    4345939  MISS:      14915
cpu0_L1D LOAD      ACCESS:    2464749  HIT:    2451447  MISS:      13302
cpu0_L1D RFO       ACCESS:    1896070  HIT:    1894489  MISS:       1581
cpu0_L1D PREFETCH  ACCESS:          0  HIT:          0  MISS:          0
cpu0_L1D WRITEBACK ACCESS:          0  HIT:          0  MISS:          0
cpu0_L2C TOTAL     ACCESS:      19197  HIT:      18893  MISS:        304
cpu0_L2C LOAD      ACCESS:      15275  HIT:      14972  MISS:        303
cpu0_L2C RFO       ACCESS:       1581  HIT:       1581  MISS:          0
cpu0_L2C PREFETCH  ACCESS:          0  HIT:          0  MISS:          0
cpu0_L2C WRITEBACK ACCESS:       2309  HIT:       2308  MISS:          1
LLC TOTAL     ACCESS:        490  HIT:        287  MISS:        203
LLC LOAD      ACCESS:        303  HIT:        102  MISS:        201
LLC RFO       ACCESS:          0  HIT:          0  MISS:          0
LLC PREFETCH  ACCESS:          0  HIT:          0  MISS:          0
LLC WRITEBACK ACCESS:        187  HIT:        185  MISS:          2
Heartbeat CPU 0 instructions: 68000000 cycles: 31936025 heartbeat IPC: 0.952004 cumulative IPC: 0.949623 (Simulation time: 0 hr 24 min 36 sec) 

Region of Interest Statistics
cpu0_DTLB TOTAL     ACCESS:    3640914  HIT:    3634127  MISS:       6787
cpu0_DTLB LOAD      ACCESS:    2484714  HIT:    2478071  MISS:       6643
cpu0_DTLB RFO       ACCESS:    1156200  HIT:    1156056  MISS:        144
cpu0_DTLB PREFETCH  ACCESS:          0  HIT:          0  MISS:          0
cpu0_DTLB WRITEBACK ACCESS:          0  HIT:          0  MISS:          0
cpu0_ITLB TOTAL     ACCESS:    1874291  HIT:    1874291  MISS:          0
cpu0_ITLB LOAD      ACCESS:    1874291  HIT:    1874291  MISS:          0
cpu0_ITLB RFO       ACCESS:          0  HIT:          0  MISS:          0
cpu0_ITLB PREFETCH  ACCESS:          0  HIT:          0  MISS:          0
cpu0_ITLB WRITEBACK ACCESS:          0  HIT:          0  MISS:          0
cpu0_L1I TOTAL     ACCESS:    1969017  HIT:    1966790  MISS:       2227
cpu0_L1I LOAD      ACCESS:    1969017  HIT:    1966790  MISS:       2227
cpu0_L1I RFO       ACCESS:          0  HIT:          0  MISS:          0
cpu0_L1I PREFETCH  ACCESS:          0  HIT:          0  MISS:          0
cpu0_L1I WRITEBACK ACCESS:          0  HIT:          0  MISS:          0
cpu0_STLB TOTAL     ACCESS:       6787  HIT:       6749  MISS:         38
cpu0_STLB LOAD      ACCESS:       6643  HIT:       6605  MISS:         38
cpu0_STLB RFO       ACCESS:        144  HIT:        144  MISS:          0
cpu0_STLB PREFETCH  ACCESS:          0  HIT:          0  MISS:          0
cpu0_STLB WRITEBACK ACCESS:          0  HIT:          0  MISS:          0
cpu0_L1D TOTAL     ACCESS:    4905231  HIT:    4888444  MISS:      16787
cpu0_L1D LOAD      ACCESS:    2772547  HIT:    2757560  MISS:      14987
cpu0_L1D RFO       ACCESS:    2132646  HIT:    2130880  MISS:       1766
cpu0_L1D PREFETCH  ACCESS:          0  HIT:          0  MISS:          0
cpu0_L1D WRITEBACK ACCESS:          0  HIT:          0  MISS:          0
cpu0_L2C TOTAL     ACCESS:      21601  HIT:      21270  MISS:        331
cpu0_L2C LOAD      ACCESS:      17214  HIT:      16884  MISS:        330
cpu0_L2C RFO       ACCESS:       1766  HIT:       1766  MISS:          0
cpu0_L2C PREFETCH  ACCESS:          0  HIT:          0  MISS:          0
cpu0_L2C WRITEBACK ACCESS:       2587  HIT:       2586  MISS:          1
LLC TOTAL     ACCESS:        531  HIT:        309  MISS:        222
LLC LOAD      ACCESS:        330  HIT:        110  MISS:        220
LLC RFO       ACCESS:          0  HIT:          0  MISS:          0
LLC PREFETCH  ACCESS:          0  HIT:          0  MISS:          0
LLC WRITEBACK ACCESS:        201  HIT:        199  MISS:          2
Heartbeat CPU 0 instructions: 70000002 cycles: 34021265 heartbeat IPC: 0.959123 cumulative IPC: 0.950564 (Simulation time: 0 hr 25 min 18 sec) 

Region of Interest Statistics
cpu0_DTLB TOTAL     ACCESS:    4044277  HIT:    4036741  MISS:       7536
cpu0_DTLB LOAD      ACCESS:    2760431  HIT:    2753053  MISS:       7378
cpu0_DTLB RFO       ACCESS:    1283846  HIT:    1283688  MISS:        158
cpu0_DTLB PREFETCH  ACCESS:          0  HIT:          0  MISS:          0
cpu0_DTLB WRITEBACK ACCESS:          0  HIT:          0  MISS:          0
cpu0_ITLB TOTAL     ACCESS:    2082069  HIT:    2082069  MISS:          0
cpu0_ITLB LOAD      ACCESS:    2082069  HIT:    2082069  MISS:          0
cpu0_ITLB RFO       ACCESS:          0  HIT:          0  MISS:          0
cpu0_ITLB PREFETCH  ACCESS:          0  HIT:          0  MISS:          0
cpu0_ITLB WRITEBACK ACCESS:          0  HIT:          0  MISS:          0
cpu0_L1I TOTAL     ACCESS:    2189644  HIT:    2187200  MISS:       2444
cpu0_L1I LOAD      ACCESS:    2189644  HIT:    2187200  MISS:       2444
cpu0_L1I RFO       ACCESS:          0  HIT:          0  MISS:          0
cpu0_L1I PREFETCH  ACCESS:          0  HIT:          0  MISS:          0
cpu0_L1I WRITEBACK ACCESS:          0  HIT:          0  MISS:          0
cpu0_STLB TOTAL     ACCESS:       7536  HIT:       7494  MISS:         42
cpu0_STLB LOAD      ACCESS:       7378  HIT:       7336  MISS:         42
cpu0_STLB RFO       ACCESS:        158  HIT:        158  MISS:          0
cpu0_STLB PREFETCH  ACCESS:          0  HIT:          0  MISS:          0
cpu0_STLB WRITEBACK ACCESS:          0  HIT:          0  MISS:          0
cpu0_L1D TOTAL     ACCESS:    5449913  HIT:    5431310  MISS:      18603
cpu0_L1D LOAD      ACCESS:    3079973  HIT:    3063348  MISS:      16625
cpu0_L1D RFO       ACCESS:    2369898  HIT:    2367958  MISS:       1940
cpu0_L1D PREFETCH  ACCESS:          0  HIT:          0  MISS:          0
cpu0_L1D WRITEBACK ACCESS:          0  HIT:          0  MISS:          0
cpu0_L2C TOTAL     ACCESS:      23909  HIT:      23549  MISS:        360
cpu0_L2C LOAD      ACCESS:      19069  HIT:      18710  MISS:        359
cpu0_L2C RFO       ACCESS:       1940  HIT:       1940  MISS:          0
cpu0_L2C PREFETCH  ACCESS:          0  HIT:          0  MISS:          0
cpu0_L2C WRITEBACK ACCESS:       2862  HIT:       2861  MISS:          1
LLC TOTAL     ACCESS:        575  HIT:        334  MISS:        241
LLC LOAD      ACCESS:        359  HIT:        120  MISS:        239
LLC RFO       ACCESS:          0  HIT:          0  MISS:          0
LLC PREFETCH  ACCESS:          0  HIT:          0  MISS:          0
LLC WRITEBACK ACCESS:        216  HIT:        214  MISS:          2
Heartbeat CPU 0 instructions: 72000000 cycles: 36067599 heartbeat IPC: 0.977357 cumulative IPC: 0.952939 (Simulation time: 0 hr 26 min 3 sec) 

Region of Interest Statistics
cpu0_DTLB TOTAL     ACCESS:    4443239  HIT:    4435000  MISS:       8239
cpu0_DTLB LOAD      ACCESS:    3030394  HIT:    3022328  MISS:       8066
cpu0_DTLB RFO       ACCESS:    1412845  HIT:    1412672  MISS:        173
cpu0_DTLB PREFETCH  ACCESS:          0  HIT:          0  MISS:          0
cpu0_DTLB WRITEBACK ACCESS:          0  HIT:          0  MISS:          0
cpu0_ITLB TOTAL     ACCESS:    2285948  HIT:    2285948  MISS:          0
cpu0_ITLB LOAD      ACCESS:    2285948  HIT:    2285948  MISS:          0
cpu0_ITLB RFO       ACCESS:          0  HIT:          0  MISS:          0
cpu0_ITLB PREFETCH  ACCESS:          0  HIT:          0  MISS:          0
cpu0_ITLB WRITEBACK ACCESS:          0  HIT:          0  MISS:          0
cpu0_L1I TOTAL     ACCESS:    2407374  HIT:    2404660  MISS:       2714
cpu0_L1I LOAD      ACCESS:    2407374  HIT:    2404660  MISS:       2714
cpu0_L1I RFO       ACCESS:          0  HIT:          0  MISS:          0
cpu0_L1I PREFETCH  ACCESS:          0  HIT:          0  MISS:          0
cpu0_L1I WRITEBACK ACCESS:          0  HIT:          0  MISS:          0
cpu0_STLB TOTAL     ACCESS:       8239  HIT:       8193  MISS:         46
cpu0_STLB LOAD      ACCESS:       8066  HIT:       8020  MISS:         46
cpu0_STLB RFO       ACCESS:        173  HIT:        173  MISS:          0
cpu0_STLB PREFETCH  ACCESS:          0  HIT:          0  MISS:          0
cpu0_STLB WRITEBACK ACCESS:          0  HIT:          0  MISS:          0
cpu0_L1D TOTAL     ACCESS:    5988203  HIT:    5967476  MISS:      20727
cpu0_L1D LOAD      ACCESS:    3380529  HIT:    3362089  MISS:      18440
cpu0_L1D RFO       ACCESS:    2607628  HIT:    2605383  MISS:       2245
cpu0_L1D PREFETCH  ACCESS:          0  HIT:          0  MISS:          0
cpu0_L1D WRITEBACK ACCESS:          0  HIT:          0  MISS:          0
cpu0_L2C TOTAL     ACCESS:      26665  HIT:      26217  MISS:        448
cpu0_L2C LOAD      ACCESS:      21154  HIT:      20768  MISS:        386
cpu0_L2C RFO       ACCESS:       2245  HIT:       2185  MISS:         60
cpu0_L2C PREFETCH  ACCESS:          0  HIT:          0  MISS:          0
cpu0_L2C WRITEBACK ACCESS:       3224  HIT:       3222  MISS:          2
LLC TOTAL     ACCESS:        715  HIT:        436  MISS:        279
LLC LOAD      ACCESS:        386  HIT:        127  MISS:        259
LLC RFO       ACCESS:         60  HIT:         42  MISS:         18
LLC PREFETCH  ACCESS:          0  HIT:          0  MISS:          0
LLC WRITEBACK ACCESS:        269  HIT:        267  MISS:          2
Heartbeat CPU 0 instructions: 74000000 cycles: 38148819 heartbeat IPC: 0.960975 cumulative IPC: 0.953604 (Simulation time: 0 hr 26 min 46 sec) 

Region of Interest Statistics
cpu0_DTLB TOTAL     ACCESS:    4842617  HIT:    4833641  MISS:       8976
cpu0_DTLB LOAD      ACCESS:    3302082  HIT:    3293304  MISS:       8778
cpu0_DTLB RFO       ACCESS:    1540535  HIT:    1540337  MISS:        198
cpu0_DTLB PREFETCH  ACCESS:          0  HIT:          0  MISS:          0
cpu0_DTLB WRITEBACK ACCESS:          0  HIT:          0  MISS:          0
cpu0_ITLB TOTAL     ACCESS:    2491568  HIT:    2491568  MISS:          0
cpu0_ITLB LOAD      ACCESS:    2491568  HIT:    2491568  MISS:          0
cpu0_ITLB RFO       ACCESS:          0  HIT:          0  MISS:          0
cpu0_ITLB PREFETCH  ACCESS:          0  HIT:          0  MISS:          0
cpu0_ITLB WRITEBACK ACCESS:          0  HIT:          0  MISS:          0
cpu0_L1I TOTAL     ACCESS:    2627301  HIT:    2624383  MISS:       2918
cpu0_L1I LOAD      ACCESS:    2627301  HIT:    2624383  MISS:       2918
cpu0_L1I RFO       ACCESS:          0  HIT:          0  MISS:          0
cpu0_L1I PREFETCH  ACCESS:          0  HIT:          0  MISS:          0
cpu0_L1I WRITEBACK ACCESS:          0  HIT:          0  MISS:          0
cpu0_STLB TOTAL     ACCESS:       8976  HIT:       8926  MISS:         50
cpu0_STLB LOAD      ACCESS:       8778  HIT:       8728  MISS:         50
cpu0_STLB RFO       ACCESS:        198  HIT:        198  MISS:          0
cpu0_STLB PREFETCH  ACCESS:          0  HIT:          0  MISS:          0
cpu0_STLB WRITEBACK ACCESS:          0  HIT:          0  MISS:          0
cpu0_L1D TOTAL     ACCESS:    6528172  HIT:    6505187  MISS:      22985
cpu0_L1D LOAD      ACCESS:    3684224  HIT:    3663789  MISS:      20435
cpu0_L1D RFO       ACCESS:    2843898  HIT:    2841394  MISS:       2504
cpu0_L1D PREFETCH  ACCESS:          0  HIT:          0  MISS:          0
cpu0_L1D WRITEBACK ACCESS:          0  HIT:          0  MISS:          0
cpu0_L2C TOTAL     ACCESS:      29566  HIT:      29082  MISS:        484
cpu0_L2C LOAD      ACCESS:      23353  HIT:      22931  MISS:        422
cpu0_L2C RFO       ACCESS:       2504  HIT:       2444  MISS:         60
cpu0_L2C PREFETCH  ACCESS:          0  HIT:          0  MISS:          0
cpu0_L2C WRITEBACK ACCESS:       3663  HIT:       3661  MISS:          2
LLC TOTAL     ACCESS:        772  HIT:        473  MISS:        299
LLC LOAD      ACCESS:        422  HIT:        143  MISS:        279
LLC RFO       ACCESS:         60  HIT:         42  MISS:         18
LLC PREFETCH  ACCESS:          0  HIT:          0  MISS:          0
LLC WRITEBACK ACCESS:        290  HIT:        288  MISS:          2
Heartbeat CPU 0 instructions: 76000001 cycles: 40292525 heartbeat IPC: 0.932964 cumulative IPC: 0.951984 (Simulation time: 0 hr 27 min 33 sec) 

Region of Interest Statistics
cpu0_DTLB TOTAL     ACCESS:    5250155  HIT:    5240348  MISS:       9807
cpu0_DTLB LOAD      ACCESS:    3582587  HIT:    3572999  MISS:       9588
cpu0_DTLB RFO       ACCESS:    1667568  HIT:    1667349  MISS:        219
cpu0_DTLB PREFETCH  ACCESS:          0  HIT:          0  MISS:          0
cpu0_DTLB WRITEBACK ACCESS:          0  HIT:          0  MISS:          0
cpu0_ITLB TOTAL     ACCESS:    2701165  HIT:    2701165  MISS:          0
cpu0_ITLB LOAD      ACCESS:    2701165  HIT:    2701165  MISS:          0
cpu0_ITLB RFO       ACCESS:          0  HIT:          0  MISS:          0
cpu0_ITLB PREFETCH  ACCESS:          0  HIT:          0  MISS:          0
cpu0_ITLB WRITEBACK ACCESS:          0  HIT:          0  MISS:          0
cpu0_L1I TOTAL     ACCESS:    2845854  HIT:    2842778  MISS:       3076
cpu0_L1I LOAD      ACCESS:    2845854  HIT:    2842778  MISS:       3076
cpu0_L1I RFO       ACCESS:          0  HIT:          0  MISS:          0
cpu0_L1I PREFETCH  ACCESS:          0  HIT:          0  MISS:          0
cpu0_L1I WRITEBACK ACCESS:          0  HIT:          0  MISS:          0
cpu0_STLB TOTAL     ACCESS:       9807  HIT:       9749  MISS:         58
cpu0_STLB LOAD      ACCESS:       9588  HIT:       9530  MISS:         58
cpu0_STLB RFO       ACCESS:        219  HIT:        219  MISS:          0
cpu0_STLB PREFETCH  ACCESS:          0  HIT:          0  MISS:          0
cpu0_STLB WRITEBACK ACCESS:          0  HIT:          0  MISS:          0
cpu0_L1D TOTAL     ACCESS:    7077031  HIT:    7052049  MISS:      24982
cpu0_L1D LOAD      ACCESS:    3998861  HIT:    3976674  MISS:      22187
cpu0_L1D RFO       ACCESS:    3078112  HIT:    3075368  MISS:       2744
cpu0_L1D PREFETCH  ACCESS:          0  HIT:          0  MISS:          0
cpu0_L1D WRITEBACK ACCESS:          0  HIT:          0  MISS:          0
cpu0_L2C TOTAL     ACCESS:      32077  HIT:      31546  MISS:        531
cpu0_L2C LOAD      ACCESS:      25263  HIT:      24795  MISS:        468
cpu0_L2C RFO       ACCESS:       2744  HIT:       2684  MISS:         60
cpu0_L2C PREFETCH  ACCESS:          0  HIT:          0  MISS:          0
cpu0_L2C WRITEBACK ACCESS:       4019  HIT:       4016  MISS:          3
LLC TOTAL     ACCESS:        840  HIT:        507  MISS:        333
LLC LOAD      ACCESS:        468  HIT:        155  MISS:        313
LLC RFO       ACCESS:         60  HIT:         42  MISS:         18
LLC PREFETCH  ACCESS:          0  HIT:          0  MISS:          0
LLC WRITEBACK ACCESS:        312  HIT:        310  MISS:          2
Heartbeat CPU 0 instructions: 78000002 cycles: 42418143 heartbeat IPC: 0.940903 cumulative IPC: 0.951184 (Simulation time: 0 hr 28 min 21 sec) 

Region of Interest Statistics
cpu0_DTLB TOTAL     ACCESS:    5655546  HIT:    5644854  MISS:      10692
cpu0_DTLB LOAD      ACCESS:    3859168  HIT:    3848718  MISS:      10450
cpu0_DTLB RFO       ACCESS:    1796378  HIT:    1796136  MISS:        242
cpu0_DTLB PREFETCH  ACCESS:          0  HIT:          0  MISS:          0
cpu0_DTLB WRITEBACK ACCESS:          0  HIT:          0  MISS:          0
cpu0_ITLB TOTAL     ACCESS:    2908897  HIT:    2908897  MISS:          0
cpu0_ITLB LOAD      ACCESS:    2908897  HIT:    2908897  MISS:          0
cpu0_ITLB RFO       ACCESS:          0  HIT:          0  MISS:          0
cpu0_ITLB PREFETCH  ACCESS:          0  HIT:          0  MISS:          0
cpu0_ITLB WRITEBACK ACCESS:          0  HIT:          0  MISS:          0
cpu0_L1I TOTAL     ACCESS:    3063845  HIT:    3060523  MISS:       3322
cpu0_L1I LOAD      ACCESS:    3063845  HIT:    3060523  MISS:       3322
cpu0_L1I RFO       ACCESS:          0  HIT:          0  MISS:          0
cpu0_L1I PREFETCH  ACCESS:          0  HIT:          0  MISS:          0
cpu0_L1I WRITEBACK ACCESS:          0  HIT:          0  MISS:          0
cpu0_STLB TOTAL     ACCESS:      10692  HIT:      10626  MISS:         66
cpu0_STLB LOAD      ACCESS:      10450  HIT:      10384  MISS:         66
cpu0_STLB RFO       ACCESS:        242  HIT:        242  MISS:          0
cpu0_STLB PREFETCH  ACCESS:          0  HIT:          0  MISS:          0
cpu0_STLB WRITEBACK ACCESS:          0  HIT:          0  MISS:          0
cpu0_L1D TOTAL     ACCESS:    7623992  HIT:    7596532  MISS:      27460
cpu0_L1D LOAD      ACCESS:    4309117  HIT:    4284778  MISS:      24339
cpu0_L1D RFO       ACCESS:    3314809  HIT:    3311746  MISS:       3063
cpu0_L1D PREFETCH  ACCESS:          0  HIT:          0  MISS:          0
cpu0_L1D WRITEBACK ACCESS:          0  HIT:          0  MISS:          0
cpu0_L2C TOTAL     ACCESS:      35299  HIT:      34673  MISS:        626
cpu0_L2C LOAD      ACCESS:      27661  HIT:      27158  MISS:        503
cpu0_L2C RFO       ACCESS:       3063  HIT:       2943  MISS:        120
cpu0_L2C PREFETCH  ACCESS:          0  HIT:          0  MISS:          0
cpu0_L2C WRITEBACK ACCESS:       4517  HIT:       4514  MISS:          3
LLC TOTAL     ACCESS:        984  HIT:        612  MISS:        372
LLC LOAD      ACCESS:        503  HIT:        163  MISS:        340
LLC RFO       ACCESS:        120  HIT:         90  MISS:         30
LLC PREFETCH  ACCESS:          0  HIT:          0  MISS:          0
LLC WRITEBACK ACCESS:        361  HIT:        359  MISS:          2
Heartbeat CPU 0 instructions: 80000003 cycles: 44533527 heartbeat IPC: 0.945455 cumulative IPC: 0.9508 (Simulation time: 0 hr 29 min 5 sec) 

Region of Interest Statistics
cpu0_DTLB TOTAL     ACCESS:    6060306  HIT:    6048741  MISS:      11565
cpu0_DTLB LOAD      ACCESS:    4134756  HIT:    4123454  MISS:      11302
cpu0_DTLB RFO       ACCESS:    1925550  HIT:    1925287  MISS:        263
cpu0_DTLB PREFETCH  ACCESS:          0  HIT:          0  MISS:          0
cpu0_DTLB WRITEBACK ACCESS:          0  HIT:          0  MISS:          0
cpu0_ITLB TOTAL     ACCESS:    3116687  HIT:    3116687  MISS:          0
cpu0_ITLB LOAD      ACCESS:    3116687  HIT:    3116687  MISS:          0
cpu0_ITLB RFO       ACCESS:          0  HIT:          0  MISS:          0
cpu0_ITLB PREFETCH  ACCESS:          0  HIT:          0  MISS:          0
cpu0_ITLB WRITEBACK ACCESS:          0  HIT:          0  MISS:          0
cpu0_L1I TOTAL     ACCESS:    3279499  HIT:    3275908  MISS:       3591
cpu0_L1I LOAD      ACCESS:    3279499  HIT:    3275908  MISS:       3591
cpu0_L1I RFO       ACCESS:          0  HIT:          0  MISS:          0
cpu0_L1I PREFETCH  ACCESS:          0  HIT:          0  MISS:          0
cpu0_L1I WRITEBACK ACCESS:          0  HIT:          0  MISS:          0
cpu0_STLB TOTAL     ACCESS:      11565  HIT:      11492  MISS:         73
cpu0_STLB LOAD      ACCESS:      11302  HIT:      11229  MISS:         73
cpu0_STLB RFO       ACCESS:        263  HIT:        263  MISS:          0
cpu0_STLB PREFETCH  ACCESS:          0  HIT:          0  MISS:          0
cpu0_STLB WRITEBACK ACCESS:          0  HIT:          0  MISS:          0
cpu0_L1D TOTAL     ACCESS:    8167996  HIT:    8138186  MISS:      29810
cpu0_L1D LOAD      ACCESS:    4617323  HIT:    4590930  MISS:      26393
cpu0_L1D RFO       ACCESS:    3550600  HIT:    3547248  MISS:       3352
cpu0_L1D PREFETCH  ACCESS:          0  HIT:          0  MISS:          0
cpu0_L1D WRITEBACK ACCESS:          0  HIT:          0  MISS:          0
cpu0_L2C TOTAL     ACCESS:      38390  HIT:      37729  MISS:        661
cpu0_L2C LOAD      ACCESS:      29984  HIT:      29446  MISS:        538
cpu0_L2C RFO       ACCESS:       3352  HIT:       3232  MISS:        120
cpu0_L2C PREFETCH  ACCESS:          0  HIT:          0  MISS:          0
cpu0_L2C WRITEBACK ACCESS:       4989  HIT:       4986  MISS:          3
LLC TOTAL     ACCESS:       1043  HIT:        644  MISS:        399
LLC LOAD      ACCESS:        538  HIT:        171  MISS:        367
LLC RFO       ACCESS:        120  HIT:         90  MISS:         30
LLC PREFETCH  ACCESS:          0  HIT:          0  MISS:          0
LLC WRITEBACK ACCESS:        385  HIT:        383  MISS:          2
Heartbeat CPU 0 instructions: 82000001 cycles: 46621676 heartbeat IPC: 0.957785 cumulative IPC: 0.951233 (Simulation time: 0 hr 29 min 50 sec) 

Region of Interest Statistics
cpu0_DTLB TOTAL     ACCESS:    6462912  HIT:    6450612  MISS:      12300
cpu0_DTLB LOAD      ACCESS:    4409348  HIT:    4397332  MISS:      12016
cpu0_DTLB RFO       ACCESS:    2053564  HIT:    2053280  MISS:        284
cpu0_DTLB PREFETCH  ACCESS:          0  HIT:          0  MISS:          0
cpu0_DTLB WRITEBACK ACCESS:          0  HIT:          0  MISS:          0
cpu0_ITLB TOTAL     ACCESS:    3323263  HIT:    3323263  MISS:          0
cpu0_ITLB LOAD      ACCESS:    3323263  HIT:    3323263  MISS:          0
cpu0_ITLB RFO       ACCESS:          0  HIT:          0  MISS:          0
cpu0_ITLB PREFETCH  ACCESS:          0  HIT:          0  MISS:          0
cpu0_ITLB WRITEBACK ACCESS:          0  HIT:          0  MISS:          0
cpu0_L1I TOTAL     ACCESS:    3501986  HIT:    3498175  MISS:       3811
cpu0_L1I LOAD      ACCESS:    3501986  HIT:    3498175  MISS:       3811
cpu0_L1I RFO       ACCESS:          0  HIT:          0  MISS:          0
cpu0_L1I PREFETCH  ACCESS:          0  HIT:          0  MISS:          0
cpu0_L1I WRITEBACK ACCESS:          0  HIT:          0  MISS:          0
cpu0_STLB TOTAL     ACCESS:      12300  HIT:      12223  MISS:         77
cpu0_STLB LOAD      ACCESS:      12016  HIT:      11939  MISS:         77
cpu0_STLB RFO       ACCESS:        284  HIT:        284  MISS:          0
cpu0_STLB PREFETCH  ACCESS:          0  HIT:          0  MISS:          0
cpu0_STLB WRITEBACK ACCESS:          0  HIT:          0  MISS:          0
cpu0_L1D TOTAL     ACCESS:    8714089  HIT:    8682111  MISS:      31978
cpu0_L1D LOAD      ACCESS:    4925413  HIT:    4897095  MISS:      28318
cpu0_L1D RFO       ACCESS:    3788599  HIT:    3785008  MISS:       3591
cpu0_L1D PREFETCH  ACCESS:          0  HIT:          0  MISS:          0
cpu0_L1D WRITEBACK ACCESS:          0  HIT:          0  MISS:          0
cpu0_L2C TOTAL     ACCESS:      41200  HIT:      40517  MISS:        683
cpu0_L2C LOAD      ACCESS:      32129  HIT:      31569  MISS:        560
cpu0_L2C RFO       ACCESS:       3591  HIT:       3471  MISS:        120
cpu0_L2C PREFETCH  ACCESS:          0  HIT:          0  MISS:          0
cpu0_L2C WRITEBACK ACCESS:       5411  HIT:       5408  MISS:          3
LLC TOTAL     ACCESS:       1082  HIT:        671  MISS:        411
LLC LOAD      ACCESS:        560  HIT:        181  MISS:        379
LLC RFO       ACCESS:        120  HIT:         90  MISS:         30
LLC PREFETCH  ACCESS:          0  HIT:          0  MISS:          0
LLC WRITEBACK ACCESS:        402  HIT:        400  MISS:          2
Heartbeat CPU 0 instructions: 84000000 cycles: 48713439 heartbeat IPC: 0.956131 cumulative IPC: 0.95152 (Simulation time: 0 hr 30 min 34 sec) 

Region of Interest Statistics
cpu0_DTLB TOTAL     ACCESS:    6865984  HIT:    6852905  MISS:      13079
cpu0_DTLB LOAD      ACCESS:    4684418  HIT:    4671652  MISS:      12766
cpu0_DTLB RFO       ACCESS:    2181566  HIT:    2181253  MISS:        313
cpu0_DTLB PREFETCH  ACCESS:          0  HIT:          0  MISS:          0
cpu0_DTLB WRITEBACK ACCESS:          0  HIT:          0  MISS:          0
cpu0_ITLB TOTAL     ACCESS:    3531226  HIT:    3531226  MISS:          0
cpu0_ITLB LOAD      ACCESS:    3531226  HIT:    3531226  MISS:          0
cpu0_ITLB RFO       ACCESS:          0  HIT:          0  MISS:          0
cpu0_ITLB PREFETCH  ACCESS:          0  HIT:          0  MISS:          0
cpu0_ITLB WRITEBACK ACCESS:          0  HIT:          0  MISS:          0
cpu0_L1I TOTAL     ACCESS:    3716916  HIT:    3712863  MISS:       4053
cpu0_L1I LOAD      ACCESS:    3716916  HIT:    3712863  MISS:       4053
cpu0_L1I RFO       ACCESS:          0  HIT:          0  MISS:          0
cpu0_L1I PREFETCH  ACCESS:          0  HIT:          0  MISS:          0
cpu0_L1I WRITEBACK ACCESS:          0  HIT:          0  MISS:          0
cpu0_STLB TOTAL     ACCESS:      13079  HIT:      12995  MISS:         84
cpu0_STLB LOAD      ACCESS:      12766  HIT:      12682  MISS:         84
cpu0_STLB RFO       ACCESS:        313  HIT:        313  MISS:          0
cpu0_STLB PREFETCH  ACCESS:          0  HIT:          0  MISS:          0
cpu0_STLB WRITEBACK ACCESS:          0  HIT:          0  MISS:          0
cpu0_L1D TOTAL     ACCESS:    9256301  HIT:    9221923  MISS:      34378
cpu0_L1D LOAD      ACCESS:    5232718  HIT:    5202291  MISS:      30427
cpu0_L1D RFO       ACCESS:    4023499  HIT:    4019623  MISS:       3876
cpu0_L1D PREFETCH  ACCESS:          0  HIT:          0  MISS:          0
cpu0_L1D WRITEBACK ACCESS:          0  HIT:          0  MISS:          0
cpu0_L2C TOTAL     ACCESS:      44323  HIT:      43612  MISS:        711
cpu0_L2C LOAD      ACCESS:      34480  HIT:      33893  MISS:        587
cpu0_L2C RFO       ACCESS:       3876  HIT:       3756  MISS:        120
cpu0_L2C PREFETCH  ACCESS:          0  HIT:          0  MISS:          0
cpu0_L2C WRITEBACK ACCESS:       5892  HIT:       5888  MISS:          4
LLC TOTAL     ACCESS:       1126  HIT:        694  MISS:        432
LLC LOAD      ACCESS:        587  HIT:        187  MISS:        400
LLC RFO       ACCESS:        120  HIT:         90  MISS:         30
LLC PREFETCH  ACCESS:          0  HIT:          0  MISS:          0
LLC WRITEBACK ACCESS:        419  HIT:        417  MISS:          2
Heartbeat CPU 0 instructions: 86000000 cycles: 50821395 heartbeat IPC: 0.948786 cumulative IPC: 0.951368 (Simulation time: 0 hr 31 min 19 sec) 

Region of Interest Statistics
cpu0_DTLB TOTAL     ACCESS:    7268247  HIT:    7254390  MISS:      13857
cpu0_DTLB LOAD      ACCESS:    4958749  HIT:    4945230  MISS:      13519
cpu0_DTLB RFO       ACCESS:    2309498  HIT:    2309160  MISS:        338
cpu0_DTLB PREFETCH  ACCESS:          0  HIT:          0  MISS:          0
cpu0_DTLB WRITEBACK ACCESS:          0  HIT:          0  MISS:          0
cpu0_ITLB TOTAL     ACCESS:    3738658  HIT:    3738658  MISS:          0
cpu0_ITLB LOAD      ACCESS:    3738658  HIT:    3738658  MISS:          0
cpu0_ITLB RFO       ACCESS:          0  HIT:          0  MISS:          0
cpu0_ITLB PREFETCH  ACCESS:          0  HIT:          0  MISS:          0
cpu0_ITLB WRITEBACK ACCESS:          0  HIT:          0  MISS:          0
cpu0_L1I TOTAL     ACCESS:    3934025  HIT:    3929730  MISS:       4295
cpu0_L1I LOAD      ACCESS:    3934025  HIT:    3929730  MISS:       4295
cpu0_L1I RFO       ACCESS:          0  HIT:          0  MISS:          0
cpu0_L1I PREFETCH  ACCESS:          0  HIT:          0  MISS:          0
cpu0_L1I WRITEBACK ACCESS:          0  HIT:          0  MISS:          0
cpu0_STLB TOTAL     ACCESS:      13857  HIT:      13767  MISS:         90
cpu0_STLB LOAD      ACCESS:      13519  HIT:      13429  MISS:         90
cpu0_STLB RFO       ACCESS:        338  HIT:        338  MISS:          0
cpu0_STLB PREFETCH  ACCESS:          0  HIT:          0  MISS:          0
cpu0_STLB WRITEBACK ACCESS:          0  HIT:          0  MISS:          0
cpu0_L1D TOTAL     ACCESS:    9797592  HIT:    9760843  MISS:      36749
cpu0_L1D LOAD      ACCESS:    5538895  HIT:    5506415  MISS:      32480
cpu0_L1D RFO       ACCESS:    4258607  HIT:    4254418  MISS:       4189
cpu0_L1D PREFETCH  ACCESS:          0  HIT:          0  MISS:          0
cpu0_L1D WRITEBACK ACCESS:          0  HIT:          0  MISS:          0
cpu0_L2C TOTAL     ACCESS:      47391  HIT:      46655  MISS:        736
cpu0_L2C LOAD      ACCESS:      36775  HIT:      36163  MISS:        612
cpu0_L2C RFO       ACCESS:       4189  HIT:       4069  MISS:        120
cpu0_L2C PREFETCH  ACCESS:          0  HIT:          0  MISS:          0
cpu0_L2C WRITEBACK ACCESS:       6347  HIT:       6343  MISS:          4
LLC TOTAL     ACCESS:       1164  HIT:        712  MISS:        452
LLC LOAD      ACCESS:        612  HIT:        192  MISS:        420
LLC RFO       ACCESS:        120  HIT:         90  MISS:         30
LLC PREFETCH  ACCESS:          0  HIT:          0  MISS:          0
LLC WRITEBACK ACCESS:        432  HIT:        430  MISS:          2
Heartbeat CPU 0 instructions: 88000001 cycles: 52941092 heartbeat IPC: 0.943532 cumulative IPC: 0.950952 (Simulation time: 0 hr 32 min 4 sec) 

Region of Interest Statistics
cpu0_DTLB TOTAL     ACCESS:    7672940  HIT:    7658295  MISS:      14645
cpu0_DTLB LOAD      ACCESS:    5236225  HIT:    5221937  MISS:      14288
cpu0_DTLB RFO       ACCESS:    2436715  HIT:    2436358  MISS:        357
cpu0_DTLB PREFETCH  ACCESS:          0  HIT:          0  MISS:          0
cpu0_DTLB WRITEBACK ACCESS:          0  HIT:          0  MISS:          0
cpu0_ITLB TOTAL     ACCESS:    3948035  HIT:    3948035  MISS:          0
cpu0_ITLB LOAD      ACCESS:    3948035  HIT:    3948035  MISS:          0
cpu0_ITLB RFO       ACCESS:          0  HIT:          0  MISS:          0
cpu0_ITLB PREFETCH  ACCESS:          0  HIT:          0  MISS:          0
cpu0_ITLB WRITEBACK ACCESS:          0  HIT:          0  MISS:          0
cpu0_L1I TOTAL     ACCESS:    4153230  HIT:    4148708  MISS:       4522
cpu0_L1I LOAD      ACCESS:    4153230  HIT:    4148708  MISS:       4522
cpu0_L1I RFO       ACCESS:          0  HIT:          0  MISS:          0
cpu0_L1I PREFETCH  ACCESS:          0  HIT:          0  MISS:          0
cpu0_L1I WRITEBACK ACCESS:          0  HIT:          0  MISS:          0
cpu0_STLB TOTAL     ACCESS:      14645  HIT:      14546  MISS:         99
cpu0_STLB LOAD      ACCESS:      14288  HIT:      14189  MISS:         99
cpu0_STLB RFO       ACCESS:        357  HIT:        357  MISS:          0
cpu0_STLB PREFETCH  ACCESS:          0  HIT:          0  MISS:          0
cpu0_STLB WRITEBACK ACCESS:          0  HIT:          0  MISS:          0
cpu0_L1D TOTAL     ACCESS:   10344380  HIT:   10305602  MISS:      38778
cpu0_L1D LOAD      ACCESS:    5850343  HIT:    5816071  MISS:      34272
cpu0_L1D RFO       ACCESS:    4493938  HIT:    4489520  MISS:       4418
cpu0_L1D PREFETCH  ACCESS:          0  HIT:          0  MISS:          0
cpu0_L1D WRITEBACK ACCESS:          0  HIT:          0  MISS:          0
cpu0_L2C TOTAL     ACCESS:      50001  HIT:      49236  MISS:        765
cpu0_L2C LOAD      ACCESS:      38794  HIT:      38153  MISS:        641
cpu0_L2C RFO       ACCESS:       4418  HIT:       4298  MISS:        120
cpu0_L2C PREFETCH  ACCESS:          0  HIT:          0  MISS:          0
cpu0_L2C WRITEBACK ACCESS:       6701  HIT:       6697  MISS:          4
LLC TOTAL     ACCESS:       1206  HIT:        731  MISS:        475
LLC LOAD      ACCESS:        641  HIT:        199  MISS:        442
LLC RFO       ACCESS:        120  HIT:         90  MISS:         30
LLC PREFETCH  ACCESS:          0  HIT:          0  MISS:          0
LLC WRITEBACK ACCESS:        445  HIT:        442  MISS:          3
Heartbeat CPU 0 instructions: 90000000 cycles: 55042798 heartbeat IPC: 0.951607 cumulative IPC: 0.950985 (Simulation time: 0 hr 32 min 47 sec) 

Region of Interest Statistics
cpu0_DTLB TOTAL     ACCESS:    8076831  HIT:    8061343  MISS:      15488
cpu0_DTLB LOAD      ACCESS:    5511422  HIT:    5496315  MISS:      15107
cpu0_DTLB RFO       ACCESS:    2565409  HIT:    2565028  MISS:        381
cpu0_DTLB PREFETCH  ACCESS:          0  HIT:          0  MISS:          0
cpu0_DTLB WRITEBACK ACCESS:          0  HIT:          0  MISS:          0
cpu0_ITLB TOTAL     ACCESS:    4155758  HIT:    4155758  MISS:          0
cpu0_ITLB LOAD      ACCESS:    4155758  HIT:    4155758  MISS:          0
cpu0_ITLB RFO       ACCESS:          0  HIT:          0  MISS:          0
cpu0_ITLB PREFETCH  ACCESS:          0  HIT:          0  MISS:          0
cpu0_ITLB WRITEBACK ACCESS:          0  HIT:          0  MISS:          0
cpu0_L1I TOTAL     ACCESS:    4370169  HIT:    4365407  MISS:       4762
cpu0_L1I LOAD      ACCESS:    4370169  HIT:    4365407  MISS:       4762
cpu0_L1I RFO       ACCESS:          0  HIT:          0  MISS:          0
cpu0_L1I PREFETCH  ACCESS:          0  HIT:          0  MISS:          0
cpu0_L1I WRITEBACK ACCESS:          0  HIT:          0  MISS:          0
cpu0_STLB TOTAL     ACCESS:      15488  HIT:      15380  MISS:        108
cpu0_STLB LOAD      ACCESS:      15107  HIT:      14999  MISS:        108
cpu0_STLB RFO       ACCESS:        381  HIT:        381  MISS:          0
cpu0_STLB PREFETCH  ACCESS:          0  HIT:          0  MISS:          0
cpu0_STLB WRITEBACK ACCESS:          0  HIT:          0  MISS:          0
cpu0_L1D TOTAL     ACCESS:   10887994  HIT:   10846990  MISS:      41004
cpu0_L1D LOAD      ACCESS:    6157601  HIT:    6121348  MISS:      36253
cpu0_L1D RFO       ACCESS:    4730285  HIT:    4725628  MISS:       4657
cpu0_L1D PREFETCH  ACCESS:          0  HIT:          0  MISS:          0
cpu0_L1D WRITEBACK ACCESS:          0  HIT:          0  MISS:          0
cpu0_L2C TOTAL     ACCESS:      52893  HIT:      52104  MISS:        789
cpu0_L2C LOAD      ACCESS:      41015  HIT:      40350  MISS:        665
cpu0_L2C RFO       ACCESS:       4657  HIT:       4537  MISS:        120
cpu0_L2C PREFETCH  ACCESS:          0  HIT:          0  MISS:          0
cpu0_L2C WRITEBACK ACCESS:       7127  HIT:       7123  MISS:          4
LLC TOTAL     ACCESS:       1241  HIT:        751  MISS:        490
LLC LOAD      ACCESS:        665  HIT:        208  MISS:        457
LLC RFO       ACCESS:        120  HIT:         90  MISS:         30
LLC PREFETCH  ACCESS:          0  HIT:          0  MISS:          0
LLC WRITEBACK ACCESS:        456  HIT:        453  MISS:          3
Heartbeat CPU 0 instructions: 92000001 cycles: 57170462 heartbeat IPC: 0.939999 cumulative IPC: 0.950456 (Simulation time: 0 hr 33 min 29 sec) 

Region of Interest Statistics
cpu0_DTLB TOTAL     ACCESS:    8484031  HIT:    8467722  MISS:      16309
cpu0_DTLB LOAD      ACCESS:    5790438  HIT:    5774528  MISS:      15910
cpu0_DTLB RFO       ACCESS:    2693593  HIT:    2693194  MISS:        399
cpu0_DTLB PREFETCH  ACCESS:          0  HIT:          0  MISS:          0
cpu0_DTLB WRITEBACK ACCESS:          0  HIT:          0  MISS:          0
cpu0_ITLB TOTAL     ACCESS:    4365211  HIT:    4365211  MISS:          0
cpu0_ITLB LOAD      ACCESS:    4365211  HIT:    4365211  MISS:          0
cpu0_ITLB RFO       ACCESS:          0  HIT:          0  MISS:          0
cpu0_ITLB PREFETCH  ACCESS:          0  HIT:          0  MISS:          0
cpu0_ITLB WRITEBACK ACCESS:          0  HIT:          0  MISS:          0
cpu0_L1I TOTAL     ACCESS:    4587870  HIT:    4582875  MISS:       4995
cpu0_L1I LOAD      ACCESS:    4587870  HIT:    4582875  MISS:       4995
cpu0_L1I RFO       ACCESS:          0  HIT:          0  MISS:          0
cpu0_L1I PREFETCH  ACCESS:          0  HIT:          0  MISS:          0
cpu0_L1I WRITEBACK ACCESS:          0  HIT:          0  MISS:          0
cpu0_STLB TOTAL     ACCESS:      16309  HIT:      16197  MISS:        112
cpu0_STLB LOAD      ACCESS:      15910  HIT:      15798  MISS:        112
cpu0_STLB RFO       ACCESS:        399  HIT:        399  MISS:          0
cpu0_STLB PREFETCH  ACCESS:          0  HIT:          0  MISS:          0
cpu0_STLB WRITEBACK ACCESS:          0  HIT:          0  MISS:          0
cpu0_L1D TOTAL     ACCESS:   11435678  HIT:   11392729  MISS:      42949
cpu0_L1D LOAD      ACCESS:    6470115  HIT:    6432140  MISS:      37975
cpu0_L1D RFO       ACCESS:    4965451  HIT:    4960575  MISS:       4876
cpu0_L1D PREFETCH  ACCESS:          0  HIT:          0  MISS:          0
cpu0_L1D WRITEBACK ACCESS:          0  HIT:          0  MISS:          0
cpu0_L2C TOTAL     ACCESS:      55352  HIT:      54537  MISS:        815
cpu0_L2C LOAD      ACCESS:      42970  HIT:      42279  MISS:        691
cpu0_L2C RFO       ACCESS:       4876  HIT:       4756  MISS:        120
cpu0_L2C PREFETCH  ACCESS:          0  HIT:          0  MISS:          0
cpu0_L2C WRITEBACK ACCESS:       7408  HIT:       7404  MISS:          4
LLC TOTAL     ACCESS:       1278  HIT:        765  MISS:        513
LLC LOAD      ACCESS:        691  HIT:        211  MISS:        480
LLC RFO       ACCESS:        120  HIT:         90  MISS:         30
LLC PREFETCH  ACCESS:          0  HIT:          0  MISS:          0
LLC WRITEBACK ACCESS:        467  HIT:        464  MISS:          3
Heartbeat CPU 0 instructions: 94000001 cycles: 59294470 heartbeat IPC: 0.941616 cumulative IPC: 0.95005 (Simulation time: 0 hr 34 min 9 sec) 

Region of Interest Statistics
cpu0_DTLB TOTAL     ACCESS:    8889891  HIT:    8872730  MISS:      17161
cpu0_DTLB LOAD      ACCESS:    6068464  HIT:    6051718  MISS:      16746
cpu0_DTLB RFO       ACCESS:    2821427  HIT:    2821012  MISS:        415
cpu0_DTLB PREFETCH  ACCESS:          0  HIT:          0  MISS:          0
cpu0_DTLB WRITEBACK ACCESS:          0  HIT:          0  MISS:          0
cpu0_ITLB TOTAL     ACCESS:    4574429  HIT:    4574429  MISS:          0
cpu0_ITLB LOAD      ACCESS:    4574429  HIT:    4574429  MISS:          0
cpu0_ITLB RFO       ACCESS:          0  HIT:          0  MISS:          0
cpu0_ITLB PREFETCH  ACCESS:          0  HIT:          0  MISS:          0
cpu0_ITLB WRITEBACK ACCESS:          0  HIT:          0  MISS:          0
cpu0_L1I TOTAL     ACCESS:    4807024  HIT:    4801805  MISS:       5219
cpu0_L1I LOAD      ACCESS:    4807024  HIT:    4801805  MISS:       5219
cpu0_L1I RFO       ACCESS:          0  HIT:          0  MISS:          0
cpu0_L1I PREFETCH  ACCESS:          0  HIT:          0  MISS:          0
cpu0_L1I WRITEBACK ACCESS:          0  HIT:          0  MISS:          0
cpu0_STLB TOTAL     ACCESS:      17161  HIT:      17046  MISS:        115
cpu0_STLB LOAD      ACCESS:      16746  HIT:      16631  MISS:        115
cpu0_STLB RFO       ACCESS:        415  HIT:        415  MISS:          0
cpu0_STLB PREFETCH  ACCESS:          0  HIT:          0  MISS:          0
cpu0_STLB WRITEBACK ACCESS:          0  HIT:          0  MISS:          0
cpu0_L1D TOTAL     ACCESS:   11984288  HIT:   11939326  MISS:      44962
cpu0_L1D LOAD      ACCESS:    6782610  HIT:    6742845  MISS:      39765
cpu0_L1D RFO       ACCESS:    5201563  HIT:    5196467  MISS:       5096
cpu0_L1D PREFETCH  ACCESS:          0  HIT:          0  MISS:          0
cpu0_L1D WRITEBACK ACCESS:          0  HIT:          0  MISS:          0
cpu0_L2C TOTAL     ACCESS:      57908  HIT:      57064  MISS:        844
cpu0_L2C LOAD      ACCESS:      44984  HIT:      44265  MISS:        719
cpu0_L2C RFO       ACCESS:       5096  HIT:       4976  MISS:        120
cpu0_L2C PREFETCH  ACCESS:          0  HIT:          0  MISS:          0
cpu0_L2C WRITEBACK ACCESS:       7727  HIT:       7722  MISS:          5
LLC TOTAL     ACCESS:       1321  HIT:        784  MISS:        537
LLC LOAD      ACCESS:        719  HIT:        216  MISS:        503
LLC RFO       ACCESS:        120  HIT:         90  MISS:         30
LLC PREFETCH  ACCESS:          0  HIT:          0  MISS:          0
LLC WRITEBACK ACCESS:        482  HIT:        478  MISS:          4
Heartbeat CPU 0 instructions: 96000001 cycles: 61421808 heartbeat IPC: 0.940142 cumulative IPC: 0.949615 (Simulation time: 0 hr 34 min 52 sec) 

Region of Interest Statistics
cpu0_DTLB TOTAL     ACCESS:    9297055  HIT:    9279011  MISS:      18044
cpu0_DTLB LOAD      ACCESS:    6346913  HIT:    6329309  MISS:      17604
cpu0_DTLB RFO       ACCESS:    2950142  HIT:    2949702  MISS:        440
cpu0_DTLB PREFETCH  ACCESS:          0  HIT:          0  MISS:          0
cpu0_DTLB WRITEBACK ACCESS:          0  HIT:          0  MISS:          0
cpu0_ITLB TOTAL     ACCESS:    4783720  HIT:    4783720  MISS:          0
cpu0_ITLB LOAD      ACCESS:    4783720  HIT:    4783720  MISS:          0
cpu0_ITLB RFO       ACCESS:          0  HIT:          0  MISS:          0
cpu0_ITLB PREFETCH  ACCESS:          0  HIT:          0  MISS:          0
cpu0_ITLB WRITEBACK ACCESS:          0  HIT:          0  MISS:          0
cpu0_L1I TOTAL     ACCESS:    5024562  HIT:    5019099  MISS:       5463
cpu0_L1I LOAD      ACCESS:    5024562  HIT:    5019099  MISS:       5463
cpu0_L1I RFO       ACCESS:          0  HIT:          0  MISS:          0
cpu0_L1I PREFETCH  ACCESS:          0  HIT:          0  MISS:          0
cpu0_L1I WRITEBACK ACCESS:          0  HIT:          0  MISS:          0
cpu0_STLB TOTAL     ACCESS:      18044  HIT:      17927  MISS:        117
cpu0_STLB LOAD      ACCESS:      17604  HIT:      17487  MISS:        117
cpu0_STLB RFO       ACCESS:        440  HIT:        440  MISS:          0
cpu0_STLB PREFETCH  ACCESS:          0  HIT:          0  MISS:          0
cpu0_STLB WRITEBACK ACCESS:          0  HIT:          0  MISS:          0
cpu0_L1D TOTAL     ACCESS:   12532685  HIT:   12485663  MISS:      47022
cpu0_L1D LOAD      ACCESS:    7094852  HIT:    7053273  MISS:      41579
cpu0_L1D RFO       ACCESS:    5437716  HIT:    5432376  MISS:       5340
cpu0_L1D PREFETCH  ACCESS:          0  HIT:          0  MISS:          0
cpu0_L1D WRITEBACK ACCESS:          0  HIT:          0  MISS:          0
cpu0_L2C TOTAL     ACCESS:      60523  HIT:      59654  MISS:        869
cpu0_L2C LOAD      ACCESS:      47042  HIT:      46298  MISS:        744
cpu0_L2C RFO       ACCESS:       5340  HIT:       5220  MISS:        120
cpu0_L2C PREFETCH  ACCESS:          0  HIT:          0  MISS:          0
cpu0_L2C WRITEBACK ACCESS:       8038  HIT:       8033  MISS:          5
LLC TOTAL     ACCESS:       1357  HIT:        807  MISS:        550
LLC LOAD      ACCESS:        744  HIT:        228  MISS:        516
LLC RFO       ACCESS:        120  HIT:         90  MISS:         30
LLC PREFETCH  ACCESS:          0  HIT:          0  MISS:          0
LLC WRITEBACK ACCESS:        493  HIT:        489  MISS:          4
Heartbeat CPU 0 instructions: 98000000 cycles: 63514538 heartbeat IPC: 0.955689 cumulative IPC: 0.949867 (Simulation time: 0 hr 35 min 34 sec) 

Region of Interest Statistics
cpu0_DTLB TOTAL     ACCESS:    9701338  HIT:    9682550  MISS:      18788
cpu0_DTLB LOAD      ACCESS:    6623587  HIT:    6605253  MISS:      18334
cpu0_DTLB RFO       ACCESS:    3077751  HIT:    3077297  MISS:        454
cpu0_DTLB PREFETCH  ACCESS:          0  HIT:          0  MISS:          0
cpu0_DTLB WRITEBACK ACCESS:          0  HIT:          0  MISS:          0
cpu0_ITLB TOTAL     ACCESS:    4991883  HIT:    4991883  MISS:          0
cpu0_ITLB LOAD      ACCESS:    4991883  HIT:    4991883  MISS:          0
cpu0_ITLB RFO       ACCESS:          0  HIT:          0  MISS:          0
cpu0_ITLB PREFETCH  ACCESS:          0  HIT:          0  MISS:          0
cpu0_ITLB WRITEBACK ACCESS:          0  HIT:          0  MISS:          0
cpu0_L1I TOTAL     ACCESS:    5243869  HIT:    5238185  MISS:       5684
cpu0_L1I LOAD      ACCESS:    5243869  HIT:    5238185  MISS:       5684
cpu0_L1I RFO       ACCESS:          0  HIT:          0  MISS:          0
cpu0_L1I PREFETCH  ACCESS:          0  HIT:          0  MISS:          0
cpu0_L1I WRITEBACK ACCESS:          0  HIT:          0  MISS:          0
cpu0_STLB TOTAL     ACCESS:      18788  HIT:      18668  MISS:        120
cpu0_STLB LOAD      ACCESS:      18334  HIT:      18214  MISS:        120
cpu0_STLB RFO       ACCESS:        454  HIT:        454  MISS:          0
cpu0_STLB PREFETCH  ACCESS:          0  HIT:          0  MISS:          0
cpu0_STLB WRITEBACK ACCESS:          0  HIT:          0  MISS:          0
cpu0_L1D TOTAL     ACCESS:   13078186  HIT:   13029173  MISS:      49013
cpu0_L1D LOAD      ACCESS:    7403897  HIT:    7360542  MISS:      43355
cpu0_L1D RFO       ACCESS:    5674169  HIT:    5668617  MISS:       5552
cpu0_L1D PREFETCH  ACCESS:          0  HIT:          0  MISS:          0
cpu0_L1D WRITEBACK ACCESS:          0  HIT:          0  MISS:          0
cpu0_L2C TOTAL     ACCESS:      63077  HIT:      62191  MISS:        886
cpu0_L2C LOAD      ACCESS:      49039  HIT:      48278  MISS:        761
cpu0_L2C RFO       ACCESS:       5552  HIT:       5432  MISS:        120
cpu0_L2C PREFETCH  ACCESS:          0  HIT:          0  MISS:          0
cpu0_L2C WRITEBACK ACCESS:       8380  HIT:       8375  MISS:          5
LLC TOTAL     ACCESS:       1383  HIT:        822  MISS:        561
LLC LOAD      ACCESS:        761  HIT:        234  MISS:        527
LLC RFO       ACCESS:        120  HIT:         90  MISS:         30
LLC PREFETCH  ACCESS:          0  HIT:          0  MISS:          0
LLC WRITEBACK ACCESS:        502  HIT:        498  MISS:          4
Heartbeat CPU 0 instructions: 100000002 cycles: 65662801 heartbeat IPC: 0.930986 cumulative IPC: 0.949097 (Simulation time: 0 hr 36 min 13 sec) 

Region of Interest Statistics
cpu0_DTLB TOTAL     ACCESS:   10110168  HIT:   10090591  MISS:      19577
cpu0_DTLB LOAD      ACCESS:    6904712  HIT:    6885608  MISS:      19104
cpu0_DTLB RFO       ACCESS:    3205456  HIT:    3204983  MISS:        473
cpu0_DTLB PREFETCH  ACCESS:          0  HIT:          0  MISS:          0
cpu0_DTLB WRITEBACK ACCESS:          0  HIT:          0  MISS:          0
cpu0_ITLB TOTAL     ACCESS:    5201685  HIT:    5201685  MISS:          0
cpu0_ITLB LOAD      ACCESS:    5201685  HIT:    5201685  MISS:          0
cpu0_ITLB RFO       ACCESS:          0  HIT:          0  MISS:          0
cpu0_ITLB PREFETCH  ACCESS:          0  HIT:          0  MISS:          0
cpu0_ITLB WRITEBACK ACCESS:          0  HIT:          0  MISS:          0
cpu0_L1I TOTAL     ACCESS:    5460710  HIT:    5454785  MISS:       5925
cpu0_L1I LOAD      ACCESS:    5460710  HIT:    5454785  MISS:       5925
cpu0_L1I RFO       ACCESS:          0  HIT:          0  MISS:          0
cpu0_L1I PREFETCH  ACCESS:          0  HIT:          0  MISS:          0
cpu0_L1I WRITEBACK ACCESS:          0  HIT:          0  MISS:          0
cpu0_STLB TOTAL     ACCESS:      19577  HIT:      19454  MISS:        123
cpu0_STLB LOAD      ACCESS:      19104  HIT:      18981  MISS:        123
cpu0_STLB RFO       ACCESS:        473  HIT:        473  MISS:          0
cpu0_STLB PREFETCH  ACCESS:          0  HIT:          0  MISS:          0
cpu0_STLB WRITEBACK ACCESS:          0  HIT:          0  MISS:          0
cpu0_L1D TOTAL     ACCESS:   13626722  HIT:   13575713  MISS:      51009
cpu0_L1D LOAD      ACCESS:    7718561  HIT:    7673464  MISS:      45097
cpu0_L1D RFO       ACCESS:    5908038  HIT:    5902234  MISS:       5804
cpu0_L1D PREFETCH  ACCESS:          0  HIT:          0  MISS:          0
cpu0_L1D WRITEBACK ACCESS:          0  HIT:          0  MISS:          0
cpu0_L2C TOTAL     ACCESS:      65665  HIT:      64757  MISS:        908
cpu0_L2C LOAD      ACCESS:      51022  HIT:      50239  MISS:        783
cpu0_L2C RFO       ACCESS:       5804  HIT:       5684  MISS:        120
cpu0_L2C PREFETCH  ACCESS:          0  HIT:          0  MISS:          0
cpu0_L2C WRITEBACK ACCESS:       8731  HIT:       8726  MISS:          5
LLC TOTAL     ACCESS:       1414  HIT:        842  MISS:        572
LLC LOAD      ACCESS:        783  HIT:        245  MISS:        538
LLC RFO       ACCESS:        120  HIT:         90  MISS:         30
LLC PREFETCH  ACCESS:          0  HIT:          0  MISS:          0
LLC WRITEBACK ACCESS:        511  HIT:        507  MISS:          4
Heartbeat CPU 0 instructions: 102000003 cycles: 67750409 heartbeat IPC: 0.958035 cumulative IPC: 0.949437 (Simulation time: 0 hr 36 min 56 sec) 

Region of Interest Statistics
cpu0_DTLB TOTAL     ACCESS:   10513136  HIT:   10492715  MISS:      20421
cpu0_DTLB LOAD      ACCESS:    7178240  HIT:    7158319  MISS:      19921
cpu0_DTLB RFO       ACCESS:    3334896  HIT:    3334396  MISS:        500
cpu0_DTLB PREFETCH  ACCESS:          0  HIT:          0  MISS:          0
cpu0_DTLB WRITEBACK ACCESS:          0  HIT:          0  MISS:          0
cpu0_ITLB TOTAL     ACCESS:    5408319  HIT:    5408319  MISS:          0
cpu0_ITLB LOAD      ACCESS:    5408319  HIT:    5408319  MISS:          0
cpu0_ITLB RFO       ACCESS:          0  HIT:          0  MISS:          0
cpu0_ITLB PREFETCH  ACCESS:          0  HIT:          0  MISS:          0
cpu0_ITLB WRITEBACK ACCESS:          0  HIT:          0  MISS:          0
cpu0_L1I TOTAL     ACCESS:    5676976  HIT:    5670766  MISS:       6210
cpu0_L1I LOAD      ACCESS:    5676976  HIT:    5670766  MISS:       6210
cpu0_L1I RFO       ACCESS:          0  HIT:          0  MISS:          0
cpu0_L1I PREFETCH  ACCESS:          0  HIT:          0  MISS:          0
cpu0_L1I WRITEBACK ACCESS:          0  HIT:          0  MISS:          0
cpu0_STLB TOTAL     ACCESS:      20421  HIT:      20289  MISS:        132
cpu0_STLB LOAD      ACCESS:      19921  HIT:      19789  MISS:        132
cpu0_STLB RFO       ACCESS:        500  HIT:        500  MISS:          0
cpu0_STLB PREFETCH  ACCESS:          0  HIT:          0  MISS:          0
cpu0_STLB WRITEBACK ACCESS:          0  HIT:          0  MISS:          0
cpu0_L1D TOTAL     ACCESS:   14170064  HIT:   14116393  MISS:      53671
cpu0_L1D LOAD      ACCESS:    8024487  HIT:    7977057  MISS:      47430
cpu0_L1D RFO       ACCESS:    6145445  HIT:    6139321  MISS:       6124
cpu0_L1D PREFETCH  ACCESS:          0  HIT:          0  MISS:          0
cpu0_L1D WRITEBACK ACCESS:          0  HIT:          0  MISS:          0
cpu0_L2C TOTAL     ACCESS:      69197  HIT:      68192  MISS:       1005
cpu0_L2C LOAD      ACCESS:      53640  HIT:      52821  MISS:        819
cpu0_L2C RFO       ACCESS:       6124  HIT:       5943  MISS:        181
cpu0_L2C PREFETCH  ACCESS:          0  HIT:          0  MISS:          0
cpu0_L2C WRITEBACK ACCESS:       9316  HIT:       9311  MISS:          5
LLC TOTAL     ACCESS:       1563  HIT:        953  MISS:        610
LLC LOAD      ACCESS:        819  HIT:        260  MISS:        559
LLC RFO       ACCESS:        181  HIT:        134  MISS:         47
LLC PREFETCH  ACCESS:          0  HIT:          0  MISS:          0
LLC WRITEBACK ACCESS:        563  HIT:        559  MISS:          4
Heartbeat CPU 0 instructions: 104000000 cycles: 69862279 heartbeat IPC: 0.947027 cumulative IPC: 0.949348 (Simulation time: 0 hr 37 min 39 sec) 

Region of Interest Statistics
cpu0_DTLB TOTAL     ACCESS:   10917325  HIT:   10896105  MISS:      21220
cpu0_DTLB LOAD      ACCESS:    7454570  HIT:    7433872  MISS:      20698
cpu0_DTLB RFO       ACCESS:    3462755  HIT:    3462233  MISS:        522
cpu0_DTLB PREFETCH  ACCESS:          0  HIT:          0  MISS:          0
cpu0_DTLB WRITEBACK ACCESS:          0  HIT:          0  MISS:          0
cpu0_ITLB TOTAL     ACCESS:    5616205  HIT:    5616205  MISS:          0
cpu0_ITLB LOAD      ACCESS:    5616205  HIT:    5616205  MISS:          0
cpu0_ITLB RFO       ACCESS:          0  HIT:          0  MISS:          0
cpu0_ITLB PREFETCH  ACCESS:          0  HIT:          0  MISS:          0
cpu0_ITLB WRITEBACK ACCESS:          0  HIT:          0  MISS:          0
cpu0_L1I TOTAL     ACCESS:    5896153  HIT:    5889710  MISS:       6443
cpu0_L1I LOAD      ACCESS:    5896153  HIT:    5889710  MISS:       6443
cpu0_L1I RFO       ACCESS:          0  HIT:          0  MISS:          0
cpu0_L1I PREFETCH  ACCESS:          0  HIT:          0  MISS:          0
cpu0_L1I WRITEBACK ACCESS:          0  HIT:          0  MISS:          0
cpu0_STLB TOTAL     ACCESS:      21220  HIT:      21082  MISS:        138
cpu0_STLB LOAD      ACCESS:      20698  HIT:      20560  MISS:        138
cpu0_STLB RFO       ACCESS:        522  HIT:        522  MISS:          0
cpu0_STLB PREFETCH  ACCESS:          0  HIT:          0  MISS:          0
cpu0_STLB WRITEBACK ACCESS:          0  HIT:          0  MISS:          0
cpu0_L1D TOTAL     ACCESS:   14715385  HIT:   14659754  MISS:      55631
cpu0_L1D LOAD      ACCESS:    8333472  HIT:    8284298  MISS:      49174
cpu0_L1D RFO       ACCESS:    6381775  HIT:    6375441  MISS:       6334
cpu0_L1D PREFETCH  ACCESS:          0  HIT:          0  MISS:          0
cpu0_L1D WRITEBACK ACCESS:          0  HIT:          0  MISS:          0
cpu0_L2C TOTAL     ACCESS:      71729  HIT:      70696  MISS:       1033
cpu0_L2C LOAD      ACCESS:      55617  HIT:      54770  MISS:        847
cpu0_L2C RFO       ACCESS:       6334  HIT:       6153  MISS:        181
cpu0_L2C PREFETCH  ACCESS:          0  HIT:          0  MISS:          0
cpu0_L2C WRITEBACK ACCESS:       9655  HIT:       9650  MISS:          5
LLC TOTAL     ACCESS:       1603  HIT:        972  MISS:        631
LLC LOAD      ACCESS:        847  HIT:        267  MISS:        580
LLC RFO       ACCESS:        181  HIT:        134  MISS:         47
LLC PREFETCH  ACCESS:          0  HIT:          0  MISS:          0
LLC WRITEBACK ACCESS:        575  HIT:        571  MISS:          4
Heartbeat CPU 0 instructions: 106000002 cycles: 72001619 heartbeat IPC: 0.934869 cumulative IPC: 0.948823 (Simulation time: 0 hr 38 min 22 sec) 

Region of Interest Statistics
cpu0_DTLB TOTAL     ACCESS:   11325832  HIT:   11303810  MISS:      22022
cpu0_DTLB LOAD      ACCESS:    7734969  HIT:    7713489  MISS:      21480
cpu0_DTLB RFO       ACCESS:    3590863  HIT:    3590321  MISS:        542
cpu0_DTLB PREFETCH  ACCESS:          0  HIT:          0  MISS:          0
cpu0_DTLB WRITEBACK ACCESS:          0  HIT:          0  MISS:          0
cpu0_ITLB TOTAL     ACCESS:    5826261  HIT:    5826261  MISS:          0
cpu0_ITLB LOAD      ACCESS:    5826261  HIT:    5826261  MISS:          0
cpu0_ITLB RFO       ACCESS:          0  HIT:          0  MISS:          0
cpu0_ITLB PREFETCH  ACCESS:          0  HIT:          0  MISS:          0
cpu0_ITLB WRITEBACK ACCESS:          0  HIT:          0  MISS:          0
cpu0_L1I TOTAL     ACCESS:    6112594  HIT:    6105910  MISS:       6684
cpu0_L1I LOAD      ACCESS:    6112594  HIT:    6105910  MISS:       6684
cpu0_L1I RFO       ACCESS:          0  HIT:          0  MISS:          0
cpu0_L1I PREFETCH  ACCESS:          0  HIT:          0  MISS:          0
cpu0_L1I WRITEBACK ACCESS:          0  HIT:          0  MISS:          0
cpu0_STLB TOTAL     ACCESS:      22022  HIT:      21878  MISS:        144
cpu0_STLB LOAD      ACCESS:      21480  HIT:      21336  MISS:        144
cpu0_STLB RFO       ACCESS:        542  HIT:        542  MISS:          0
cpu0_STLB PREFETCH  ACCESS:          0  HIT:          0  MISS:          0
cpu0_STLB WRITEBACK ACCESS:          0  HIT:          0  MISS:          0
cpu0_L1D TOTAL     ACCESS:   15264172  HIT:   15206712  MISS:      57460
cpu0_L1D LOAD      ACCESS:    8647292  HIT:    8596496  MISS:      50796
cpu0_L1D RFO       ACCESS:    6616736  HIT:    6610200  MISS:       6536
cpu0_L1D PREFETCH  ACCESS:          0  HIT:          0  MISS:          0
cpu0_L1D WRITEBACK ACCESS:          0  HIT:          0  MISS:          0
cpu0_L2C TOTAL     ACCESS:      74062  HIT:      73006  MISS:       1056
cpu0_L2C LOAD      ACCESS:      57480  HIT:      56610  MISS:        870
cpu0_L2C RFO       ACCESS:       6536  HIT:       6355  MISS:        181
cpu0_L2C PREFETCH  ACCESS:          0  HIT:          0  MISS:          0
[...]

ChampSim completed all CPUs

Region of Interest Statistics

CPU 0 cumulative IPC: 0.969253 instructions: 1500000000 cycles: 1547584184
cpu0_DTLB TOTAL     ACCESS:  293607201  HIT:  292835776  MISS:     771425
cpu0_DTLB LOAD      ACCESS:  199828750  HIT:  199103615  MISS:     725135
cpu0_DTLB RFO       ACCESS:   93778451  HIT:   93732161  MISS:      46290
cpu0_DTLB PREFETCH  ACCESS:          0  HIT:          0  MISS:          0
cpu0_DTLB WRITEBACK ACCESS:          0  HIT:          0  MISS:          0
cpu0_DTLB TRANSLATION ACCESS:          0  HIT:          0  MISS:          0
cpu0_DTLB PREFETCH  REQUESTED:          0  ISSUED:          0  USEFUL:          0  USELESS:          0
cpu0_DTLB AVERAGE MISS LATENCY: 9.18989 cycles
cpu0_ITLB TOTAL     ACCESS:  152283245  HIT:  152283142  MISS:        103
cpu0_ITLB LOAD      ACCESS:  152283245  HIT:  152283142  MISS:        103
cpu0_ITLB RFO       ACCESS:          0  HIT:          0  MISS:          0
cpu0_ITLB PREFETCH  ACCESS:          0  HIT:          0  MISS:          0
cpu0_ITLB WRITEBACK ACCESS:          0  HIT:          0  MISS:          0
cpu0_ITLB TRANSLATION ACCESS:          0  HIT:          0  MISS:          0
cpu0_ITLB PREFETCH  REQUESTED:          0  ISSUED:          0  USEFUL:          0  USELESS:          0
cpu0_ITLB AVERAGE MISS LATENCY: 9.07767 cycles
cpu0_L1I TOTAL     ACCESS:  155303228  HIT:  155134214  MISS:     169014
cpu0_L1I LOAD      ACCESS:  155303228  HIT:  155134214  MISS:     169014
cpu0_L1I RFO       ACCESS:          0  HIT:          0  MISS:          0
cpu0_L1I PREFETCH  ACCESS:          0  HIT:          0  MISS:          0
cpu0_L1I WRITEBACK ACCESS:          0  HIT:          0  MISS:          0
cpu0_L1I TRANSLATION ACCESS:          0  HIT:          0  MISS:          0
cpu0_L1I PREFETCH  REQUESTED:          0  ISSUED:          0  USEFUL:          0  USELESS:          0
cpu0_L1I AVERAGE MISS LATENCY: 11.6299 cycles
cpu0_STLB TOTAL     ACCESS:     771528  HIT:     770778  MISS:        750
cpu0_STLB LOAD      ACCESS:     725238  HIT:     724531  MISS:        707
cpu0_STLB RFO       ACCESS:      46290  HIT:      46247  MISS:         43
cpu0_STLB PREFETCH  ACCESS:          0  HIT:          0  MISS:          0
cpu0_STLB WRITEBACK ACCESS:          0  HIT:          0  MISS:          0
cpu0_STLB TRANSLATION ACCESS:          0  HIT:          0  MISS:          0
cpu0_STLB PREFETCH  REQUESTED:          0  ISSUED:          0  USEFUL:          0  USELESS:          0
cpu0_STLB AVERAGE MISS LATENCY: 195.145 cycles
cpu0_L1D TOTAL     ACCESS:  391731695  HIT:  388330212  MISS:    3401483
cpu0_L1D LOAD      ACCESS:  222228877  HIT:  219458152  MISS:    2770725
cpu0_L1D RFO       ACCESS:  169502068  HIT:  168871992  MISS:     630076
cpu0_L1D PREFETCH  ACCESS:          0  HIT:          0  MISS:          0
cpu0_L1D WRITEBACK ACCESS:          0  HIT:          0  MISS:          0
cpu0_L1D TRANSLATION ACCESS:        750  HIT:         68  MISS:        682
cpu0_L1D PREFETCH  REQUESTED:          0  ISSUED:          0  USEFUL:          0  USELESS:          0
cpu0_L1D AVERAGE MISS LATENCY: 12.159 cycles
cpu0_L2C TOTAL     ACCESS:    4651435  HIT:    4587037  MISS:      64398
cpu0_L2C LOAD      ACCESS:    2939590  HIT:    2901279  MISS:      38311
cpu0_L2C RFO       ACCESS:     627524  HIT:     601641  MISS:      25883
cpu0_L2C PREFETCH  ACCESS:          0  HIT:          0  MISS:          0
cpu0_L2C WRITEBACK ACCESS:    1083639  HIT:    1083449  MISS:        190
cpu0_L2C TRANSLATION ACCESS:        682  HIT:        668  MISS:         14
cpu0_L2C PREFETCH  REQUESTED:          0  ISSUED:          0  USEFUL:          0  USELESS:          0
cpu0_L2C AVERAGE MISS LATENCY: 62.9158 cycles
LLC TOTAL     ACCESS:      97920  HIT:      81884  MISS:      16036
LLC LOAD      ACCESS:      38311  HIT:      31022  MISS:       7289
LLC RFO       ACCESS:      25883  HIT:      17218  MISS:       8665
LLC PREFETCH  ACCESS:          0  HIT:          0  MISS:          0
LLC WRITEBACK ACCESS:      33712  HIT:      33637  MISS:         75
LLC TRANSLATION ACCESS:         14  HIT:          7  MISS:          7
LLC PREFETCH  REQUESTED:          0  ISSUED:          0  USEFUL:          0  USELESS:          0
LLC AVERAGE MISS LATENCY: 168.575 cycles
~~~~~~~~~~Reuse Distance Profiler output~~~~~~~~~~
0	96757872	14916816
1	42454896	17500688
2	26113584	11627040
3	16815984	10658784
4	15404400	10182208
5	13187648	8580944
6	10258384	6642976
7	8370512	5473616
8	7612208	5545664
9	7560160	5781520
10	6977392	5176608
11	7053744	5254016
12	7151968	5775616
13	5340432	4179696
14	4873232	4009440
15	3877360	3174816
16	3760352	3221184
17	4068960	2984800
18	3391632	2651824
19	3346336	2349440
20	2702816	2070704
21	2519504	2019264
22	2424240	1975920
23	2366384	1792544
24	2256896	1653008
25	2058304	1607616
26	1987760	1497520
27	1624224	1381216
28	1585440	1335712
29	1509568	1284304
30	1500976	1256976
31	1636048	1311936
32	1567312	1265040
33	1375184	1159104
34	1488672	1104800
35	1078784	948896
36	960816	861424
37	884656	793808
38	807792	722720
39	855280	694160
40	899088	725088
41	804736	745840
42	855552	788032
43	818816	766432
44	732960	675536
45	736048	685936
46	741792	691424
47	682896	631296
48	702016	659008
49	708576	658016
50	675344	629264
51	716912	654800
52	757536	692256
53	737888	669888
54	791696	724800
55	732384	661088
56	732048	652672
57	762976	684112
58	740656	660944
59	697408	614256
60	712416	629680
61	706352	614864
62	704880	617424
63	784000	689776
64	1651520	1452624
66	1486160	1295136
68	1423568	1237456
70	1249632	1094112
72	1110752	971216
74	1083408	954384
76	1077712	940704
78	1037808	901120
80	934240	815760
82	845904	751024
84	792320	713248
86	750256	667872
88	711168	619408
90	671040	583680
92	642048	557968
94	626944	544192
96	586096	509200
98	539136	469056
100	500768	434848
102	466496	405952
104	456224	394144
106	439952	387488
108	425488	377312
110	418896	372256
112	405040	359840
114	401344	358512
116	382208	340080
118	361296	320752
120	342096	303648
122	348352	307968
124	307152	268912
126	305008	267216
128	607840	535488
132	578528	514736
136	519920	462336
140	515648	462944
144	507936	455632
148	477680	428400
152	451696	397488
156	412784	365152
160	372832	330064
164	362880	319152
168	345264	301280
172	323200	279424
176	322496	277248
180	310176	266496
184	299968	257488
188	286992	246288
192	272944	233424
196	265968	228032
200	252016	216736
204	242944	214256
208	237984	205696
212	228048	198224
216	225584	194544
220	215440	187744
224	210320	185440
228	205200	181024
232	218048	188304
236	203504	173936
240	200032	173440
244	206336	176992
248	191920	161184
252	203568	168928
256	376352	320848
264	339248	291088
272	355008	302416
280	368624	302800
288	329040	276768
296	312864	270016
304	308576	261520
312	300592	254112
320	296848	248496
328	297312	240928
336	289904	241328
344	298576	253360
352	281952	237232
360	274000	230320
368	261872	216928
376	237264	193200
384	230368	188160
392	218064	178128
400	212464	175648
408	202176	163952
416	199152	156944
424	192416	153488
432	186784	145568
440	178800	141568
448	177088	138288
456	180064	142048
464	174896	136336
472	180992	144848
480	168448	133296
488	160416	122928
496	161328	122912
504	169648	130880
512	338240	258960
528	312432	238416
544	299792	230240
560	286512	221776
576	287280	223040
592	288032	224336
608	259376	203600
624	252928	198096
640	232064	179424
656	213072	165712
672	200784	158752
688	184720	144672
704	173072	135920
720	169744	133904
736	157280	124304
752	151824	120672
768	141296	112496
784	133856	108784
800	126416	101232
816	118992	95760
832	106816	85504
848	108272	83600
864	91152	73664
880	88624	71888
896	83872	68160
912	78480	64128
928	72544	59440
944	70832	57664
960	66816	53968
976	64864	52576
992	65888	52848
1008	60064	48112
1024	119120	96256
1056	111168	88208
1088	105568	82288
1120	104432	83024
1152	102128	79568
1184	101184	78992
1216	99312	78336
1248	94752	73648
1280	87376	67568
1312	82032	62384
1344	75920	54848
1376	73984	54160
1408	70496	54016
1440	66928	50608
1472	59840	45616
1504	57296	42128
1536	53216	41600
1568	49632	38240
1600	46832	36160
1632	45968	34688
1664	42464	31232
1696	43408	32832
1728	40048	28928
1760	41952	31872
1792	37440	28544
1824	39216	30288
1856	37280	27712
1888	34064	24896
1920	35376	25696
1952	37024	25008
1984	43392	29216
2016	45248	28832
2048	101824	65392
2112	97920	60160
2176	87136	56656
2240	61168	44080
2304	65232	50384
2368	76992	58736
2432	84816	64704
2496	114640	97552
2560	162576	150512
2624	167776	157040
2688	160800	145008
2752	106096	88704
2816	48896	30496
2880	46544	23376
2944	40880	23856
3008	32384	21920
3072	32736	20144
3136	29088	17808
3200	30272	18560
3264	29408	19136
3328	32544	21648
3392	62096	48688
3456	97936	87760
3520	132416	123632
3584	124928	115536
3648	91088	81680
3712	55216	46240
3776	32112	20256
3840	29200	17216
3904	28304	15776
3968	40000	28496
4032	59600	49952
4096	191728	171936
4224	175744	157392
4352	77136	57024
4480	42160	21344
4608	70864	50592
4736	163488	144720
4864	157200	141584
4992	56496	42432
5120	38032	20480
5248	77440	62992
5376	127824	114016
5504	100192	87376
5632	41904	28256
5760	25168	13008
5888	32672	18608
6016	79968	68960
6144	94672	86400
6272	36672	28032
6400	21056	11936
6528	25344	17456
6656	58864	52272
6784	71680	63712
6912	30944	24752
7040	17504	10736
7168	19120	12832
7296	45936	40896
7424	60944	56096
7552	23792	18704
7680	13216	8608
7808	15952	12128
7936	34592	30288
8064	37120	33568
8192	28960	22864
8448	31824	24944
8704	26992	21056
8960	16848	12080
9216	16224	11792
9472	14528	10528
9728	14432	11120
9984	13648	10032
10240	11952	9360
10496	10944	8592
10752	10400	8224
11008	11136	8752
11264	9776	8000
11520	9920	7888
11776	10112	7872
12032	8992	7296
12288	9600	7376
12544	7936	6352
12800	7600	6256
13056	7600	6208
13312	7024	5696
13568	7056	5424
13824	7056	5616
14080	6800	5680
14336	6864	5680
14592	6288	5056
14848	5904	4832
15104	5808	4784
15360	5664	4608
15616	5600	4496
15872	6208	5008
16128	5200	4352
16384	10864	8880
16896	9072	7584
17408	8976	7280
17920	8640	7104
18432	8912	6896
18944	8512	6672
19456	8336	6800
19968	8112	6928
20480	7920	6480
20992	7552	6272
21504	7264	6144
22016	7232	6128
22528	8096	6960
23040	9040	7808
23552	9360	8400
24064	9792	8192
24576	11632	9968
25088	12544	11616
25600	10496	9472
26112	13440	12064
26624	10688	9264
27136	9312	7808
27648	9136	7920
28160	9552	7872
28672	8720	7360
29184	9232	7648
29696	9728	8304
30208	9248	7872
30720	10528	9024
31232	10912	9344
31744	11760	9856
32256	12272	9744
32768	22096	19264
33792	25024	21488
34816	26736	22336
35840	36592	23408
36864	37200	31312
37888	41232	35536
38912	45168	39872
39936	57408	50656
40960	73168	64304
41984	85696	75760
43008	105296	93040
44032	126256	108464
45056	150144	128368
46080	159584	137968
47104	178192	152848
48128	207296	175648
49152	231936	191600
50176	234832	196240
51200	239424	198048
52224	249056	205296
53248	261648	211936
54272	251360	203840
55296	250896	201088
56320	235984	190544
57344	229616	181632
58368	215056	169744
59392	193792	153936
60416	180960	140144
61440	163168	124016
62464	139712	106272
63488	118016	90256
64512	99552	75904
65536	151440	113744
67584	100208	77152
69632	75920	57600
71680	41984	33104
73728	24208	18992
75776	17248	13488
77824	10496	8832
79872	7920	7056
81920	5904	5536
83968	5440	4960
86016	5552	5472
88064	5008	4928
90112	5184	5024
92160	5792	5696
94208	6448	6352
96256	6480	6336
98304	7840	7744
100352	9488	7888
102400	9808	8688
104448	8912	8784
106496	8608	8480
108544	9152	8848
110592	8192	8048
112640	9056	8752
114688	9568	9456
116736	7984	7712
118784	8416	8304
120832	8192	8048
122880	6432	6272
124928	11840	9136
126976	5792	5696
129024	4864	4832
131072	9072	8960
135168	7264	7120
139264	6688	6656
143360	7328	7008
147456	7408	7344
151552	9008	8896
155648	8624	8512
159744	9984	9792
163840	10832	10432
167936	13440	10784
172032	9968	9728
176128	9072	8864
180224	9808	9664
184320	8608	8528
188416	7616	6400
192512	10848	7856
196608	5824	5776
200704	5152	5040
204800	6080	6016
208896	5728	5648
212992	6256	6016
217088	6752	6640
221184	6832	6736
225280	7040	6880
229376	6736	6592
233472	6544	6448
237568	5776	5680
241664	5744	5664
245760	5136	5088
249856	4352	4272
253952	4384	4288
258048	4160	4000
262144	8080	7952
270336	8624	8512
278528	9472	9392
286720	9392	9264
294912	8720	8576
303104	7600	7488
311296	7360	7264
319488	7456	7408
327680	7168	7072
335872	7744	7600
344064	6896	6752
352256	7024	6960
360448	5776	5744
368640	5136	5040
376832	5648	5632
385024	5680	5648
393216	5344	5232
401408	5584	5488
409600	5504	5328
417792	4560	4560
425984	3888	3824
434176	4720	4656
442368	5504	5472
450560	5552	4448
458752	4688	4688
466944	4528	4480
475136	5072	4928
483328	4144	4096
491520	3456	3456
499712	4192	4144
507904	4000	3984
516096	3584	3472
524288	7536	7456
540672	6832	6832
557056	6384	6320
573440	6336	6272
589824	5680	5536
606208	5744	5744
622592	5760	5744
638976	5264	5168
655360	5072	5072
671744	4704	4688
688128	5104	5104
704512	4192	4144
720896	4640	4624
737280	3920	3904
753664	4480	4448
770048	4432	4400
786432	3552	3504
802816	3568	3520
819200	3520	3520
835584	3488	3456
851968	3520	3520
868352	3232	3216
884736	3728	3648
901120	3216	3152
917504	2640	2640
933888	3008	2992
950272	2624	2624
966656	2672	2672
983040	2336	2336
999424	3056	3008
1015808	2144	2144
1032192	2944	2944
1048576	4544	4528
1081344	5024	4992
1114112	4176	4128
1146880	4432	4368
1179648	4448	4288
1212416	4368	4320
1245184	3392	3328
1277952	2880	2848
1310720	3936	3904
1343488	2880	2864
1376256	3840	3840
1409024	2912	2896
1441792	3072	3072
1474560	2704	2704
1507328	2880	2880
1540096	2592	2592
1572864	2320	2320
1605632	2544	2544
1638400	2240	2160
1671168	1936	1920
1703936	2672	2624
1736704	1904	1904
1769472	1616	1616
1802240	1568	1552
1835008	2096	2096
1867776	2112	2112
1900544	1376	1376
1933312	1680	1664
1966080	1760	1760
1998848	2064	2032
2031616	1424	1408
2064384	1408	1408
2097152	2928	2864
2162688	3152	3152
2228224	2320	2288
2293760	2464	2432
2359296	1856	1856
2424832	2192	2160
2490368	1968	1888
2555904	1968	1952
2621440	1600	1600
2686976	1712	1712
2752512	1824	1824
2818048	1488	1392
2883584	1504	1488
2949120	1120	1120
3014656	1424	1408
3080192	2064	2016
3145728	1376	1360
3211264	1296	1264
3276800	2160	1632
3342336	1184	1088
3407872	1840	1808
3473408	2992	2864
3538944	2528	2528
3604480	2560	2512
3670016	2368	2320
3735552	2912	2896
3801088	2608	2496
3866624	2384	2352
3932160	2784	2704
3997696	2528	2464
4063232	896	896
4128768	880	864
4194304	2048	1888
4325376	7648	4352
4456448	1520	1504
4587520	1264	1264
4718592	1248	1168
4849664	1440	1424
4980736	1344	1344
5111808	800	800
5242880	1040	1008
5373952	1344	1344
5505024	1024	992
5636096	1008	1008
5767168	752	752
5898240	592	592
6029312	1680	1680
6160384	736	720
6291456	960	944
6422528	528	528
6553600	624	576
6684672	752	752
6815744	720	720
6946816	560	544
7077888	576	560
7208960	528	512
7340032	608	608
7471104	560	560
7602176	448	448
7733248	304	304
7864320	432	432
7995392	496	496
8126464	432	400
8257536	496	496
8388608	896	896
8650752	848	848
8912896	576	576
9175040	736	736
9437184	432	432
9699328	512	512
9961472	1024	992
10223616	656	656
10485760	784	784
10747904	576	576
11010048	544	544
11272192	448	416
11534336	528	496
11796480	272	272
12058624	496	496
12320768	416	416
12582912	224	224
12845056	480	416
13107200	592	576
13369344	336	336
13631488	368	368
13893632	192	160
14155776	368	368
14417920	208	208
14680064	192	192
14942208	224	224
15204352	320	320
15466496	560	560
15728640	512	512
15990784	224	224
16252928	208	208
16515072	272	272
16777216	720	720
17301504	576	560
17825792	336	336
18350080	352	352
18874368	288	288
19398656	512	464
19922944	144	144
20447232	368	368
20971520	240	240
21495808	176	176
22020096	176	176
22544384	336	336
23068672	160	160
23592960	208	208
24117248	160	160
24641536	272	240
25165824	144	144
25690112	192	192
26214400	80	80
26738688	320	272
27262976	128	32
27787264	96	96
28311552	496	432
28835840	128	128
29360128	112	112
29884416	208	208
30408704	144	112
30932992	96	96
31457280	64	64
31981568	128	128
32505856	96	16
33030144	80	80
33554432	192	192
34603008	144	128
35651584	160	160
36700160	160	160
37748736	160	160
38797312	240	240
39845888	400	400
40894464	112	112
41943040	144	144
42991616	48	48
44040192	112	80
45088768	496	496
46137344	352	336
47185920	192	192
48234496	256	192
49283072	352	272
50331648	176	64
51380224	48	48
52428800	96	96
53477376	32	32
54525952	48	48
55574528	112	112
56623104	112	112
57671680	128	128
58720256	144	144
59768832	48	48
60817408	96	96
61865984	160	128
62914560	80	80
63963136	16	16
65011712	96	16
66060288	48	48
67108864	288	160
69206016	96	96
71303168	16	16
73400320	48	48
75497472	80	80
77594624	64	48
79691776	144	128
81788928	224	224
83886080	128	48
85983232	32	32
88080384	96	96
90177536	128	64
92274688	208	144
94371840	32	32
96468992	48	48
98566144	48	32
100663296	48	16
102760448	48	48
104857600	64	64
106954752	160	160
109051904	48	48
111149056	22864	8704
113246208	48	48
115343360	2992	32
117440512	80	80
119537664	0	0
121634816	16	16
123731968	16	16
125829120	128	32
127926272	96	64
130023424	0	0
132120576	16	16
134217728	16	16
138412032	176	80
142606336	16	16
146800640	80	32
150994944	128	16
155189248	80	16
159383552	96	48
163577856	96	16
167772160	16	16
171966464	112	112
176160768	32	16
180355072	80	32
184549376	80	16
188743680	48	0
192937984	0	0
197132288	256	0
201326592	64	16
205520896	48	32
209715200	32	0
213909504	48	0
218103808	176	0
222298112	112	0
226492416	16	0
230686720	48	0
234881024	0	0
239075328	48	0
243269632	48	0
247463936	0	0
251658240	96	0
255852544	32	0
260046848	16	16
264241152	80	0
268435456	64	0
276824064	64	0
285212672	192	0
293601280	96	0
301989888	64	0
310378496	80	0
318767104	80	0
327155712	128	32
335544320	1200	16
343932928	16	0
352321536	64	0
360710144	128	0
369098752	192	0
377487360	416	0
385875968	96	0
394264576	48	0
402653184	0	0
411041792	0	0
419430400	0	0
427819008	0	0
436207616	0	0
444596224	0	0
452984832	0	0
461373440	0	0
469762048	0	0
478150656	0	0
486539264	0	0
494927872	0	0
503316480	0	0
511705088	0	0
520093696	0	0
528482304	0	0
536870912	0	0
553648128	0	0
570425344	0	0
587202560	0	0
603979776	0	0
620756992	0	0
637534208	0	0
654311424	0	0
671088640	0	0
687865856	0	0
704643072	0	0
721420288	0	0
738197504	0	0
754974720	0	0
771751936	0	0
788529152	0	0
805306368	0	0
822083584	0	0
838860800	0	0
855638016	0	0
872415232	0	0
889192448	0	0
905969664	0	0
922746880	0	0
939524096	0	0
956301312	0	0
973078528	0	0
989855744	0	0
1006632960	0	0
1023410176	0	0
1040187392	0	0
1056964608	0	0
1073741824	0	0
1107296256	0	0
1140850688	0	0
1174405120	0	0
1207959552	0	0
1241513984	0	0
1275068416	0	0
1308622848	0	0
1342177280	0	0
1375731712	0	0
1409286144	0	0
1442840576	0	0
1476395008	0	0
1509949440	0	0
1543503872	0	0
1577058304	0	0
1610612736	0	0
1644167168	0	0
1677721600	0	0
1711276032	0	0
1744830464	0	0
1778384896	0	0
1811939328	0	0
1845493760	0	0
1879048192	0	0
1912602624	0	0
1946157056	0	0
1979711488	0	0
2013265920	0	0
2046820352	0	0
2080374784	0	0
2113929216	0	0
2147483648	0	0
2214592512	0	0
2281701376	0	0
2348810240	0	0
2415919104	0	0
2483027968	0	0
2550136832	0	0
2617245696	0	0
2684354560	0	0
2751463424	0	0
2818572288	0	0
2885681152	0	0
2952790016	0	0
3019898880	0	0
3087007744	0	0
3154116608	0	0
3221225472	0	0
3288334336	0	0
3355443200	0	0
3422552064	0	0
3489660928	0	0
3556769792	0	0
3623878656	0	0
3690987520	0	0
3758096384	0	0
3825205248	0	0
3892314112	0	0
3959422976	0	0
4026531840	0	0
4093640704	0	0
4160749568	0	0
4227858432	0	0
~~~~~~~~~~Reuse Distance Profiler output end~~~~~~~~~~

Sampler size:1943

DRAM Statistics
 CHANNEL 0
 RQ ROW_BUFFER_HIT:       1407  ROW_BUFFER_MISS:      14553
 DBUS AVG_CONGESTED_CYCLE:    3.96175
 WQ ROW_BUFFER_HIT:       1996  ROW_BUFFER_MISS:      10012  FULL:          0


CPU 0 Branch Prediction Accuracy: 85.8843% MPKI: 23.3477 Average ROB Occupancy at Mispredict: 15.3958
Branch type MPKI
BRANCH_DIRECT_JUMP: 1.33333e-06
BRANCH_INDIRECT: 0.00077
BRANCH_CONDITIONAL: 23.3469
BRANCH_DIRECT_CALL: 0
BRANCH_INDIRECT_CALL: 3.2e-05
BRANCH_RETURN: 3.26667e-05

