
*** ChampSim Multicore Out-of-Order Simulator ***

Warmup Instructions: 50000000
Simulation Instructions: 1500000000
Number of CPUs: 1
Off-chip DRAM Size: 4 GiB Channels: 1 Width: 64-bit Data Rate: 3200 MT/s

VirtualMemory physical capacity: 8588881920 num_ppages: 2096895
VirtualMemory page size: 4096 log2_page_size: 12

CPU 0 runs /s/traces/champsim_traces/641.leela_s-334B.champsimtrace.xz
CPU 0 Bimodal branch predictor
Basic BTB sets: 1024 ways: 8 indirect buffer size: 4096 RAS size: 64
Initializing LRU.
Initializing LRU.
Initializing LRU.
Initializing LRU.
Initializing rdLRU.
Initializing LRU.
Initializing LRU.
Heartbeat CPU 0 instructions: 2000001 cycles: 512882 heartbeat IPC: 3.89953 cumulative IPC: 3.89953 (Simulation time: 0 hr 0 min 49 sec) 
Heartbeat CPU 0 instructions: 4000001 cycles: 1026171 heartbeat IPC: 3.89644 cumulative IPC: 3.89799 (Simulation time: 0 hr 1 min 36 sec) 
Heartbeat CPU 0 instructions: 6000001 cycles: 1536139 heartbeat IPC: 3.92181 cumulative IPC: 3.9059 (Simulation time: 0 hr 2 min 25 sec) 
Heartbeat CPU 0 instructions: 8000000 cycles: 2047442 heartbeat IPC: 3.91157 cumulative IPC: 3.90731 (Simulation time: 0 hr 3 min 19 sec) 
Heartbeat CPU 0 instructions: 10000001 cycles: 2557411 heartbeat IPC: 3.92181 cumulative IPC: 3.9102 (Simulation time: 0 hr 3 min 56 sec) 
Heartbeat CPU 0 instructions: 12000000 cycles: 3068154 heartbeat IPC: 3.91586 cumulative IPC: 3.91115 (Simulation time: 0 hr 4 min 31 sec) 
Heartbeat CPU 0 instructions: 14000002 cycles: 3578959 heartbeat IPC: 3.91539 cumulative IPC: 3.91175 (Simulation time: 0 hr 5 min 11 sec) 
Heartbeat CPU 0 instructions: 16000002 cycles: 4090252 heartbeat IPC: 3.91165 cumulative IPC: 3.91174 (Simulation time: 0 hr 5 min 51 sec) 
Heartbeat CPU 0 instructions: 18000000 cycles: 4601544 heartbeat IPC: 3.91166 cumulative IPC: 3.91173 (Simulation time: 0 hr 6 min 35 sec) 
Heartbeat CPU 0 instructions: 20000003 cycles: 5113511 heartbeat IPC: 3.90651 cumulative IPC: 3.91121 (Simulation time: 0 hr 7 min 18 sec) 
Heartbeat CPU 0 instructions: 22000001 cycles: 5623554 heartbeat IPC: 3.92123 cumulative IPC: 3.91212 (Simulation time: 0 hr 8 min 1 sec) 
Heartbeat CPU 0 instructions: 24000003 cycles: 6134400 heartbeat IPC: 3.91508 cumulative IPC: 3.91236 (Simulation time: 0 hr 8 min 43 sec) 
Heartbeat CPU 0 instructions: 26000002 cycles: 6645699 heartbeat IPC: 3.9116 cumulative IPC: 3.91231 (Simulation time: 0 hr 9 min 25 sec) 
Heartbeat CPU 0 instructions: 28000003 cycles: 7158321 heartbeat IPC: 3.90151 cumulative IPC: 3.91153 (Simulation time: 0 hr 10 min 8 sec) 
Heartbeat CPU 0 instructions: 30000002 cycles: 7669617 heartbeat IPC: 3.91163 cumulative IPC: 3.91154 (Simulation time: 0 hr 10 min 53 sec) 
Heartbeat CPU 0 instructions: 32000000 cycles: 8181595 heartbeat IPC: 3.90641 cumulative IPC: 3.91122 (Simulation time: 0 hr 11 min 35 sec) 
Heartbeat CPU 0 instructions: 34000001 cycles: 8692886 heartbeat IPC: 3.91167 cumulative IPC: 3.91124 (Simulation time: 0 hr 12 min 15 sec) 
Heartbeat CPU 0 instructions: 36000001 cycles: 9204186 heartbeat IPC: 3.9116 cumulative IPC: 3.91126 (Simulation time: 0 hr 12 min 58 sec) 
Heartbeat CPU 0 instructions: 38000001 cycles: 9714815 heartbeat IPC: 3.91674 cumulative IPC: 3.91155 (Simulation time: 0 hr 13 min 41 sec) 
Heartbeat CPU 0 instructions: 40000002 cycles: 10226868 heartbeat IPC: 3.90585 cumulative IPC: 3.91127 (Simulation time: 0 hr 14 min 23 sec) 
Heartbeat CPU 0 instructions: 42000003 cycles: 10738186 heartbeat IPC: 3.91146 cumulative IPC: 3.91128 (Simulation time: 0 hr 15 min 5 sec) 
Heartbeat CPU 0 instructions: 44000000 cycles: 11251521 heartbeat IPC: 3.89609 cumulative IPC: 3.91058 (Simulation time: 0 hr 15 min 48 sec) 
Heartbeat CPU 0 instructions: 46000003 cycles: 11762835 heartbeat IPC: 3.9115 cumulative IPC: 3.91062 (Simulation time: 0 hr 16 min 31 sec) 
Heartbeat CPU 0 instructions: 48000000 cycles: 12274815 heartbeat IPC: 3.9064 cumulative IPC: 3.91045 (Simulation time: 0 hr 17 min 16 sec) 
Heartbeat CPU 0 instructions: 50000001 cycles: 12786780 heartbeat IPC: 3.90652 cumulative IPC: 3.91029 (Simulation time: 0 hr 17 min 56 sec) 

Warmup complete CPU 0 instructions: 50000001 cycles: 12786780 (Simulation time: 0 hr 17 min 56 sec) 

Heartbeat CPU 0 instructions: 52000001 cycles: 14827282 heartbeat IPC: 0.980151 cumulative IPC: 0.980151 (Simulation time: 0 hr 18 min 43 sec) 

Region of Interest Statistics
cpu0_DTLB TOTAL     ACCESS:     408757  HIT:     407460  MISS:       1297
cpu0_DTLB LOAD      ACCESS:     274093  HIT:     272914  MISS:       1179
cpu0_DTLB RFO       ACCESS:     134664  HIT:     134546  MISS:        118
cpu0_DTLB PREFETCH  ACCESS:          0  HIT:          0  MISS:          0
cpu0_DTLB WRITEBACK ACCESS:          0  HIT:          0  MISS:          0
cpu0_ITLB TOTAL     ACCESS:     226497  HIT:     226497  MISS:          0
cpu0_ITLB LOAD      ACCESS:     226497  HIT:     226497  MISS:          0
cpu0_ITLB RFO       ACCESS:          0  HIT:          0  MISS:          0
cpu0_ITLB PREFETCH  ACCESS:          0  HIT:          0  MISS:          0
cpu0_ITLB WRITEBACK ACCESS:          0  HIT:          0  MISS:          0
cpu0_L1I TOTAL     ACCESS:     105753  HIT:     105218  MISS:        535
cpu0_L1I LOAD      ACCESS:     105753  HIT:     105218  MISS:        535
cpu0_L1I RFO       ACCESS:          0  HIT:          0  MISS:          0
cpu0_L1I PREFETCH  ACCESS:          0  HIT:          0  MISS:          0
cpu0_L1I WRITEBACK ACCESS:          0  HIT:          0  MISS:          0
cpu0_STLB TOTAL     ACCESS:       1297  HIT:       1286  MISS:         11
cpu0_STLB LOAD      ACCESS:       1179  HIT:       1168  MISS:         11
cpu0_STLB RFO       ACCESS:        118  HIT:        118  MISS:          0
cpu0_STLB PREFETCH  ACCESS:          0  HIT:          0  MISS:          0
cpu0_STLB WRITEBACK ACCESS:          0  HIT:          0  MISS:          0
cpu0_L1D TOTAL     ACCESS:     547006  HIT:     543864  MISS:       3142
cpu0_L1D LOAD      ACCESS:     305072  HIT:     302589  MISS:       2483
cpu0_L1D RFO       ACCESS:     241923  HIT:     241273  MISS:        650
cpu0_L1D PREFETCH  ACCESS:          0  HIT:          0  MISS:          0
cpu0_L1D WRITEBACK ACCESS:          0  HIT:          0  MISS:          0
cpu0_L2C TOTAL     ACCESS:       4814  HIT:       4774  MISS:         40
cpu0_L2C LOAD      ACCESS:       3018  HIT:       2996  MISS:         22
cpu0_L2C RFO       ACCESS:        650  HIT:        632  MISS:         18
cpu0_L2C PREFETCH  ACCESS:          0  HIT:          0  MISS:          0
cpu0_L2C WRITEBACK ACCESS:       1137  HIT:       1137  MISS:          0
LLC TOTAL     ACCESS:         41  HIT:          2  MISS:         39
LLC LOAD      ACCESS:         22  HIT:          1  MISS:         21
LLC RFO       ACCESS:         18  HIT:          0  MISS:         18
LLC PREFETCH  ACCESS:          0  HIT:          0  MISS:          0
LLC WRITEBACK ACCESS:          1  HIT:          1  MISS:          0
Heartbeat CPU 0 instructions: 54000001 cycles: 16835510 heartbeat IPC: 0.995903 cumulative IPC: 0.987964 (Simulation time: 0 hr 19 min 30 sec) 

Region of Interest Statistics
cpu0_DTLB TOTAL     ACCESS:     816021  HIT:     813518  MISS:       2503
cpu0_DTLB LOAD      ACCESS:     547294  HIT:     545037  MISS:       2257
cpu0_DTLB RFO       ACCESS:     268727  HIT:     268481  MISS:        246
cpu0_DTLB PREFETCH  ACCESS:          0  HIT:          0  MISS:          0
cpu0_DTLB WRITEBACK ACCESS:          0  HIT:          0  MISS:          0
cpu0_ITLB TOTAL     ACCESS:     453044  HIT:     453044  MISS:          0
cpu0_ITLB LOAD      ACCESS:     453044  HIT:     453044  MISS:          0
cpu0_ITLB RFO       ACCESS:          0  HIT:          0  MISS:          0
cpu0_ITLB PREFETCH  ACCESS:          0  HIT:          0  MISS:          0
cpu0_ITLB WRITEBACK ACCESS:          0  HIT:          0  MISS:          0
cpu0_L1I TOTAL     ACCESS:     211164  HIT:     210189  MISS:        975
cpu0_L1I LOAD      ACCESS:     211164  HIT:     210189  MISS:        975
cpu0_L1I RFO       ACCESS:          0  HIT:          0  MISS:          0
cpu0_L1I PREFETCH  ACCESS:          0  HIT:          0  MISS:          0
cpu0_L1I WRITEBACK ACCESS:          0  HIT:          0  MISS:          0
cpu0_STLB TOTAL     ACCESS:       2503  HIT:       2488  MISS:         15
cpu0_STLB LOAD      ACCESS:       2257  HIT:       2242  MISS:         15
cpu0_STLB RFO       ACCESS:        246  HIT:        246  MISS:          0
cpu0_STLB PREFETCH  ACCESS:          0  HIT:          0  MISS:          0
cpu0_STLB WRITEBACK ACCESS:          0  HIT:          0  MISS:          0
cpu0_L1D TOTAL     ACCESS:    1092676  HIT:    1086725  MISS:       5951
cpu0_L1D LOAD      ACCESS:     610024  HIT:     605409  MISS:       4615
cpu0_L1D RFO       ACCESS:     482637  HIT:     481314  MISS:       1323
cpu0_L1D PREFETCH  ACCESS:          0  HIT:          0  MISS:          0
cpu0_L1D WRITEBACK ACCESS:          0  HIT:          0  MISS:          0
cpu0_L2C TOTAL     ACCESS:       9039  HIT:       8961  MISS:         78
cpu0_L2C LOAD      ACCESS:       5590  HIT:       5531  MISS:         59
cpu0_L2C RFO       ACCESS:       1323  HIT:       1305  MISS:         18
cpu0_L2C PREFETCH  ACCESS:          0  HIT:          0  MISS:          0
cpu0_L2C WRITEBACK ACCESS:       2113  HIT:       2112  MISS:          1
LLC TOTAL     ACCESS:         79  HIT:          4  MISS:         75
LLC LOAD      ACCESS:         59  HIT:          2  MISS:         57
LLC RFO       ACCESS:         18  HIT:          0  MISS:         18
LLC PREFETCH  ACCESS:          0  HIT:          0  MISS:          0
LLC WRITEBACK ACCESS:          2  HIT:          2  MISS:          0
Heartbeat CPU 0 instructions: 56000000 cycles: 18854090 heartbeat IPC: 0.990795 cumulative IPC: 0.988906 (Simulation time: 0 hr 20 min 18 sec) 

Region of Interest Statistics
cpu0_DTLB TOTAL     ACCESS:    1223769  HIT:    1220031  MISS:       3738
cpu0_DTLB LOAD      ACCESS:     820817  HIT:     817445  MISS:       3372
cpu0_DTLB RFO       ACCESS:     402952  HIT:     402586  MISS:        366
cpu0_DTLB PREFETCH  ACCESS:          0  HIT:          0  MISS:          0
cpu0_DTLB WRITEBACK ACCESS:          0  HIT:          0  MISS:          0
cpu0_ITLB TOTAL     ACCESS:     679249  HIT:     679249  MISS:          0
cpu0_ITLB LOAD      ACCESS:     679249  HIT:     679249  MISS:          0
cpu0_ITLB RFO       ACCESS:          0  HIT:          0  MISS:          0
cpu0_ITLB PREFETCH  ACCESS:          0  HIT:          0  MISS:          0
cpu0_ITLB WRITEBACK ACCESS:          0  HIT:          0  MISS:          0
cpu0_L1I TOTAL     ACCESS:     317192  HIT:     315705  MISS:       1487
cpu0_L1I LOAD      ACCESS:     317192  HIT:     315705  MISS:       1487
cpu0_L1I RFO       ACCESS:          0  HIT:          0  MISS:          0
cpu0_L1I PREFETCH  ACCESS:          0  HIT:          0  MISS:          0
cpu0_L1I WRITEBACK ACCESS:          0  HIT:          0  MISS:          0
cpu0_STLB TOTAL     ACCESS:       3738  HIT:       3718  MISS:         20
cpu0_STLB LOAD      ACCESS:       3372  HIT:       3352  MISS:         20
cpu0_STLB RFO       ACCESS:        366  HIT:        366  MISS:          0
cpu0_STLB PREFETCH  ACCESS:          0  HIT:          0  MISS:          0
cpu0_STLB WRITEBACK ACCESS:          0  HIT:          0  MISS:          0
cpu0_L1D TOTAL     ACCESS:    1637924  HIT:    1629004  MISS:       8920
cpu0_L1D LOAD      ACCESS:     915365  HIT:     908524  MISS:       6841
cpu0_L1D RFO       ACCESS:     722539  HIT:     720477  MISS:       2062
cpu0_L1D PREFETCH  ACCESS:          0  HIT:          0  MISS:          0
cpu0_L1D WRITEBACK ACCESS:          0  HIT:          0  MISS:          0
cpu0_L2C TOTAL     ACCESS:      13618  HIT:      13503  MISS:        115
cpu0_L2C LOAD      ACCESS:       8328  HIT:       8248  MISS:         80
cpu0_L2C RFO       ACCESS:       2062  HIT:       2028  MISS:         34
cpu0_L2C PREFETCH  ACCESS:          0  HIT:          0  MISS:          0
cpu0_L2C WRITEBACK ACCESS:       3211  HIT:       3210  MISS:          1
LLC TOTAL     ACCESS:        116  HIT:          5  MISS:        111
LLC LOAD      ACCESS:         80  HIT:          3  MISS:         77
LLC RFO       ACCESS:         34  HIT:          0  MISS:         34
LLC PREFETCH  ACCESS:          0  HIT:          0  MISS:          0
LLC WRITEBACK ACCESS:          2  HIT:          2  MISS:          0
Heartbeat CPU 0 instructions: 58000001 cycles: 20885324 heartbeat IPC: 0.984624 cumulative IPC: 0.987832 (Simulation time: 0 hr 21 min 4 sec) 

Region of Interest Statistics
cpu0_DTLB TOTAL     ACCESS:    1628922  HIT:    1623928  MISS:       4994
cpu0_DTLB LOAD      ACCESS:    1093376  HIT:    1088869  MISS:       4507
cpu0_DTLB RFO       ACCESS:     535546  HIT:     535059  MISS:        487
cpu0_DTLB PREFETCH  ACCESS:          0  HIT:          0  MISS:          0
cpu0_DTLB WRITEBACK ACCESS:          0  HIT:          0  MISS:          0
cpu0_ITLB TOTAL     ACCESS:     904303  HIT:     904303  MISS:          0
cpu0_ITLB LOAD      ACCESS:     904303  HIT:     904303  MISS:          0
cpu0_ITLB RFO       ACCESS:          0  HIT:          0  MISS:          0
cpu0_ITLB PREFETCH  ACCESS:          0  HIT:          0  MISS:          0
cpu0_ITLB WRITEBACK ACCESS:          0  HIT:          0  MISS:          0
cpu0_L1I TOTAL     ACCESS:     422801  HIT:     420701  MISS:       2100
cpu0_L1I LOAD      ACCESS:     422801  HIT:     420701  MISS:       2100
cpu0_L1I RFO       ACCESS:          0  HIT:          0  MISS:          0
cpu0_L1I PREFETCH  ACCESS:          0  HIT:          0  MISS:          0
cpu0_L1I WRITEBACK ACCESS:          0  HIT:          0  MISS:          0
cpu0_STLB TOTAL     ACCESS:       4994  HIT:       4968  MISS:         26
cpu0_STLB LOAD      ACCESS:       4507  HIT:       4482  MISS:         25
cpu0_STLB RFO       ACCESS:        487  HIT:        486  MISS:          1
cpu0_STLB PREFETCH  ACCESS:          0  HIT:          0  MISS:          0
cpu0_STLB WRITEBACK ACCESS:          0  HIT:          0  MISS:          0
cpu0_L1D TOTAL     ACCESS:    2177993  HIT:    2165620  MISS:      12373
cpu0_L1D LOAD      ACCESS:    1218112  HIT:    1208574  MISS:       9538
cpu0_L1D RFO       ACCESS:     959855  HIT:     957042  MISS:       2813
cpu0_L1D PREFETCH  ACCESS:          0  HIT:          0  MISS:          0
cpu0_L1D WRITEBACK ACCESS:          0  HIT:          0  MISS:          0
cpu0_L2C TOTAL     ACCESS:      19049  HIT:      18889  MISS:        160
cpu0_L2C LOAD      ACCESS:      11638  HIT:      11537  MISS:        101
cpu0_L2C RFO       ACCESS:       2812  HIT:       2754  MISS:         58
cpu0_L2C PREFETCH  ACCESS:          0  HIT:          0  MISS:          0
cpu0_L2C WRITEBACK ACCESS:       4577  HIT:       4576  MISS:          1
LLC TOTAL     ACCESS:        161  HIT:          5  MISS:        156
LLC LOAD      ACCESS:        101  HIT:          3  MISS:         98
LLC RFO       ACCESS:         58  HIT:          0  MISS:         58
LLC PREFETCH  ACCESS:          0  HIT:          0  MISS:          0
LLC WRITEBACK ACCESS:          2  HIT:          2  MISS:          0
Heartbeat CPU 0 instructions: 60000003 cycles: 22944500 heartbeat IPC: 0.971263 cumulative IPC: 0.984473 (Simulation time: 0 hr 21 min 49 sec) 

Region of Interest Statistics
cpu0_DTLB TOTAL     ACCESS:    2031743  HIT:    2025307  MISS:       6436
cpu0_DTLB LOAD      ACCESS:    1360838  HIT:    1355054  MISS:       5784
cpu0_DTLB RFO       ACCESS:     670905  HIT:     670253  MISS:        652
cpu0_DTLB PREFETCH  ACCESS:          0  HIT:          0  MISS:          0
cpu0_DTLB WRITEBACK ACCESS:          0  HIT:          0  MISS:          0
cpu0_ITLB TOTAL     ACCESS:    1126134  HIT:    1126134  MISS:          0
cpu0_ITLB LOAD      ACCESS:    1126134  HIT:    1126134  MISS:          0
cpu0_ITLB RFO       ACCESS:          0  HIT:          0  MISS:          0
cpu0_ITLB PREFETCH  ACCESS:          0  HIT:          0  MISS:          0
cpu0_ITLB WRITEBACK ACCESS:          0  HIT:          0  MISS:          0
cpu0_L1I TOTAL     ACCESS:     527997  HIT:     525163  MISS:       2834
cpu0_L1I LOAD      ACCESS:     527997  HIT:     525163  MISS:       2834
cpu0_L1I RFO       ACCESS:          0  HIT:          0  MISS:          0
cpu0_L1I PREFETCH  ACCESS:          0  HIT:          0  MISS:          0
cpu0_L1I WRITEBACK ACCESS:          0  HIT:          0  MISS:          0
cpu0_STLB TOTAL     ACCESS:       6436  HIT:       6404  MISS:         32
cpu0_STLB LOAD      ACCESS:       5784  HIT:       5753  MISS:         31
cpu0_STLB RFO       ACCESS:        652  HIT:        651  MISS:          1
cpu0_STLB PREFETCH  ACCESS:          0  HIT:          0  MISS:          0
cpu0_STLB WRITEBACK ACCESS:          0  HIT:          0  MISS:          0
cpu0_L1D TOTAL     ACCESS:    2708328  HIT:    2691987  MISS:      16341
cpu0_L1D LOAD      ACCESS:    1515240  HIT:    1502711  MISS:      12529
cpu0_L1D RFO       ACCESS:    1193056  HIT:    1189271  MISS:       3785
cpu0_L1D PREFETCH  ACCESS:          0  HIT:          0  MISS:          0
cpu0_L1D WRITEBACK ACCESS:          0  HIT:          0  MISS:          0
cpu0_L2C TOTAL     ACCESS:      25403  HIT:      25181  MISS:        222
cpu0_L2C LOAD      ACCESS:      15363  HIT:      15218  MISS:        145
cpu0_L2C RFO       ACCESS:       3784  HIT:       3708  MISS:         76
cpu0_L2C PREFETCH  ACCESS:          0  HIT:          0  MISS:          0
cpu0_L2C WRITEBACK ACCESS:       6229  HIT:       6228  MISS:          1
LLC TOTAL     ACCESS:        225  HIT:          8  MISS:        217
LLC LOAD      ACCESS:        145  HIT:          4  MISS:        141
LLC RFO       ACCESS:         76  HIT:          0  MISS:         76
LLC PREFETCH  ACCESS:          0  HIT:          0  MISS:          0
LLC WRITEBACK ACCESS:          4  HIT:          4  MISS:          0
Heartbeat CPU 0 instructions: 62000004 cycles: 25005655 heartbeat IPC: 0.97033 cumulative IPC: 0.982087 (Simulation time: 0 hr 22 min 32 sec) 

Region of Interest Statistics
cpu0_DTLB TOTAL     ACCESS:    2438258  HIT:    2430483  MISS:       7775
cpu0_DTLB LOAD      ACCESS:    1634436  HIT:    1627463  MISS:       6973
cpu0_DTLB RFO       ACCESS:     803822  HIT:     803020  MISS:        802
cpu0_DTLB PREFETCH  ACCESS:          0  HIT:          0  MISS:          0
cpu0_DTLB WRITEBACK ACCESS:          0  HIT:          0  MISS:          0
cpu0_ITLB TOTAL     ACCESS:    1351146  HIT:    1351146  MISS:          0
cpu0_ITLB LOAD      ACCESS:    1351146  HIT:    1351146  MISS:          0
cpu0_ITLB RFO       ACCESS:          0  HIT:          0  MISS:          0
cpu0_ITLB PREFETCH  ACCESS:          0  HIT:          0  MISS:          0
cpu0_ITLB WRITEBACK ACCESS:          0  HIT:          0  MISS:          0
cpu0_L1I TOTAL     ACCESS:     633897  HIT:     630441  MISS:       3456
cpu0_L1I LOAD      ACCESS:     633897  HIT:     630441  MISS:       3456
cpu0_L1I RFO       ACCESS:          0  HIT:          0  MISS:          0
cpu0_L1I PREFETCH  ACCESS:          0  HIT:          0  MISS:          0
cpu0_L1I WRITEBACK ACCESS:          0  HIT:          0  MISS:          0
cpu0_STLB TOTAL     ACCESS:       7775  HIT:       7741  MISS:         34
cpu0_STLB LOAD      ACCESS:       6973  HIT:       6940  MISS:         33
cpu0_STLB RFO       ACCESS:        802  HIT:        801  MISS:          1
cpu0_STLB PREFETCH  ACCESS:          0  HIT:          0  MISS:          0
cpu0_STLB WRITEBACK ACCESS:          0  HIT:          0  MISS:          0
cpu0_L1D TOTAL     ACCESS:    3245163  HIT:    3225122  MISS:      20041
cpu0_L1D LOAD      ACCESS:    1819604  HIT:    1804303  MISS:      15301
cpu0_L1D RFO       ACCESS:    1425525  HIT:    1420814  MISS:       4711
cpu0_L1D PREFETCH  ACCESS:          0  HIT:          0  MISS:          0
cpu0_L1D WRITEBACK ACCESS:          0  HIT:          0  MISS:          0
cpu0_L2C TOTAL     ACCESS:      31157  HIT:      30917  MISS:        240
cpu0_L2C LOAD      ACCESS:      18757  HIT:      18594  MISS:        163
cpu0_L2C RFO       ACCESS:       4710  HIT:       4634  MISS:         76
cpu0_L2C PREFETCH  ACCESS:          0  HIT:          0  MISS:          0
cpu0_L2C WRITEBACK ACCESS:       7661  HIT:       7660  MISS:          1
LLC TOTAL     ACCESS:        243  HIT:         11  MISS:        232
LLC LOAD      ACCESS:        163  HIT:          7  MISS:        156
LLC RFO       ACCESS:         76  HIT:          0  MISS:         76
LLC PREFETCH  ACCESS:          0  HIT:          0  MISS:          0
LLC WRITEBACK ACCESS:          4  HIT:          4  MISS:          0
Heartbeat CPU 0 instructions: 64000000 cycles: 27019917 heartbeat IPC: 0.992917 cumulative IPC: 0.98362 (Simulation time: 0 hr 23 min 16 sec) 

Region of Interest Statistics
cpu0_DTLB TOTAL     ACCESS:    2840059  HIT:    2830968  MISS:       9091
cpu0_DTLB LOAD      ACCESS:    1905947  HIT:    1897802  MISS:       8145
cpu0_DTLB RFO       ACCESS:     934112  HIT:     933166  MISS:        946
cpu0_DTLB PREFETCH  ACCESS:          0  HIT:          0  MISS:          0
cpu0_DTLB WRITEBACK ACCESS:          0  HIT:          0  MISS:          0
cpu0_ITLB TOTAL     ACCESS:    1574800  HIT:    1574800  MISS:          0
cpu0_ITLB LOAD      ACCESS:    1574800  HIT:    1574800  MISS:          0
cpu0_ITLB RFO       ACCESS:          0  HIT:          0  MISS:          0
cpu0_ITLB PREFETCH  ACCESS:          0  HIT:          0  MISS:          0
cpu0_ITLB WRITEBACK ACCESS:          0  HIT:          0  MISS:          0
cpu0_L1I TOTAL     ACCESS:     741231  HIT:     737228  MISS:       4003
cpu0_L1I LOAD      ACCESS:     741231  HIT:     737228  MISS:       4003
cpu0_L1I RFO       ACCESS:          0  HIT:          0  MISS:          0
cpu0_L1I PREFETCH  ACCESS:          0  HIT:          0  MISS:          0
cpu0_L1I WRITEBACK ACCESS:          0  HIT:          0  MISS:          0
cpu0_STLB TOTAL     ACCESS:       9091  HIT:       9053  MISS:         38
cpu0_STLB LOAD      ACCESS:       8145  HIT:       8108  MISS:         37
cpu0_STLB RFO       ACCESS:        946  HIT:        945  MISS:          1
cpu0_STLB PREFETCH  ACCESS:          0  HIT:          0  MISS:          0
cpu0_STLB WRITEBACK ACCESS:          0  HIT:          0  MISS:          0
cpu0_L1D TOTAL     ACCESS:    3779234  HIT:    3755619  MISS:      23615
cpu0_L1D LOAD      ACCESS:    2120854  HIT:    2102872  MISS:      17982
cpu0_L1D RFO       ACCESS:    1658342  HIT:    1652742  MISS:       5600
cpu0_L1D PREFETCH  ACCESS:          0  HIT:          0  MISS:          0
cpu0_L1D WRITEBACK ACCESS:          0  HIT:          0  MISS:          0
cpu0_L2C TOTAL     ACCESS:      36577  HIT:      36322  MISS:        255
cpu0_L2C LOAD      ACCESS:      21985  HIT:      21807  MISS:        178
cpu0_L2C RFO       ACCESS:       5599  HIT:       5523  MISS:         76
cpu0_L2C PREFETCH  ACCESS:          0  HIT:          0  MISS:          0
cpu0_L2C WRITEBACK ACCESS:       8960  HIT:       8959  MISS:          1
LLC TOTAL     ACCESS:        259  HIT:         17  MISS:        242
LLC LOAD      ACCESS:        178  HIT:         12  MISS:        166
LLC RFO       ACCESS:         76  HIT:          0  MISS:         76
LLC PREFETCH  ACCESS:          0  HIT:          0  MISS:          0
LLC WRITEBACK ACCESS:          5  HIT:          5  MISS:          0
Heartbeat CPU 0 instructions: 66000001 cycles: 29039675 heartbeat IPC: 0.990218 cumulative IPC: 0.98444 (Simulation time: 0 hr 24 min 0 sec) 

Region of Interest Statistics
cpu0_DTLB TOTAL     ACCESS:    3245836  HIT:    3235484  MISS:      10352
cpu0_DTLB LOAD      ACCESS:    2179309  HIT:    2170033  MISS:       9276
cpu0_DTLB RFO       ACCESS:    1066527  HIT:    1065451  MISS:       1076
cpu0_DTLB PREFETCH  ACCESS:          0  HIT:          0  MISS:          0
cpu0_DTLB WRITEBACK ACCESS:          0  HIT:          0  MISS:          0
cpu0_ITLB TOTAL     ACCESS:    1798779  HIT:    1798779  MISS:          0
cpu0_ITLB LOAD      ACCESS:    1798779  HIT:    1798779  MISS:          0
cpu0_ITLB RFO       ACCESS:          0  HIT:          0  MISS:          0
cpu0_ITLB PREFETCH  ACCESS:          0  HIT:          0  MISS:          0
cpu0_ITLB WRITEBACK ACCESS:          0  HIT:          0  MISS:          0
cpu0_L1I TOTAL     ACCESS:     847676  HIT:     843092  MISS:       4584
cpu0_L1I LOAD      ACCESS:     847676  HIT:     843092  MISS:       4584
cpu0_L1I RFO       ACCESS:          0  HIT:          0  MISS:          0
cpu0_L1I PREFETCH  ACCESS:          0  HIT:          0  MISS:          0
cpu0_L1I WRITEBACK ACCESS:          0  HIT:          0  MISS:          0
cpu0_STLB TOTAL     ACCESS:      10352  HIT:      10313  MISS:         39
cpu0_STLB LOAD      ACCESS:       9276  HIT:       9238  MISS:         38
cpu0_STLB RFO       ACCESS:       1076  HIT:       1075  MISS:          1
cpu0_STLB PREFETCH  ACCESS:          0  HIT:          0  MISS:          0
cpu0_STLB WRITEBACK ACCESS:          0  HIT:          0  MISS:          0
cpu0_L1D TOTAL     ACCESS:    4320246  HIT:    4293938  MISS:      26308
cpu0_L1D LOAD      ACCESS:    2424740  HIT:    2404754  MISS:      19986
cpu0_L1D RFO       ACCESS:    1895467  HIT:    1889179  MISS:       6288
cpu0_L1D PREFETCH  ACCESS:          0  HIT:          0  MISS:          0
cpu0_L1D WRITEBACK ACCESS:          0  HIT:          0  MISS:          0
cpu0_L2C TOTAL     ACCESS:      40810  HIT:      40541  MISS:        269
cpu0_L2C LOAD      ACCESS:      24570  HIT:      24378  MISS:        192
cpu0_L2C RFO       ACCESS:       6287  HIT:       6211  MISS:         76
cpu0_L2C PREFETCH  ACCESS:          0  HIT:          0  MISS:          0
cpu0_L2C WRITEBACK ACCESS:       9919  HIT:       9918  MISS:          1
LLC TOTAL     ACCESS:        273  HIT:         19  MISS:        254
LLC LOAD      ACCESS:        192  HIT:         14  MISS:        178
LLC RFO       ACCESS:         76  HIT:          0  MISS:         76
LLC PREFETCH  ACCESS:          0  HIT:          0  MISS:          0
LLC WRITEBACK ACCESS:          5  HIT:          5  MISS:          0
Heartbeat CPU 0 instructions: 68000000 cycles: 31091218 heartbeat IPC: 0.974876 cumulative IPC: 0.983368 (Simulation time: 0 hr 24 min 44 sec) 

Region of Interest Statistics
cpu0_DTLB TOTAL     ACCESS:    3652774  HIT:    3641115  MISS:      11659
cpu0_DTLB LOAD      ACCESS:    2454791  HIT:    2444352  MISS:      10439
cpu0_DTLB RFO       ACCESS:    1197983  HIT:    1196763  MISS:       1220
cpu0_DTLB PREFETCH  ACCESS:          0  HIT:          0  MISS:          0
cpu0_DTLB WRITEBACK ACCESS:          0  HIT:          0  MISS:          0
cpu0_ITLB TOTAL     ACCESS:    2023908  HIT:    2023908  MISS:          0
cpu0_ITLB LOAD      ACCESS:    2023908  HIT:    2023908  MISS:          0
cpu0_ITLB RFO       ACCESS:          0  HIT:          0  MISS:          0
cpu0_ITLB PREFETCH  ACCESS:          0  HIT:          0  MISS:          0
cpu0_ITLB WRITEBACK ACCESS:          0  HIT:          0  MISS:          0
cpu0_L1I TOTAL     ACCESS:     954721  HIT:     949562  MISS:       5159
cpu0_L1I LOAD      ACCESS:     954721  HIT:     949562  MISS:       5159
cpu0_L1I RFO       ACCESS:          0  HIT:          0  MISS:          0
cpu0_L1I PREFETCH  ACCESS:          0  HIT:          0  MISS:          0
cpu0_L1I WRITEBACK ACCESS:          0  HIT:          0  MISS:          0
cpu0_STLB TOTAL     ACCESS:      11659  HIT:      11612  MISS:         47
cpu0_STLB LOAD      ACCESS:      10439  HIT:      10393  MISS:         46
cpu0_STLB RFO       ACCESS:       1220  HIT:       1219  MISS:          1
cpu0_STLB PREFETCH  ACCESS:          0  HIT:          0  MISS:          0
cpu0_STLB WRITEBACK ACCESS:          0  HIT:          0  MISS:          0
cpu0_L1D TOTAL     ACCESS:    4861853  HIT:    4832442  MISS:      29411
cpu0_L1D LOAD      ACCESS:    2731000  HIT:    2708725  MISS:      22275
cpu0_L1D RFO       ACCESS:    2130806  HIT:    2123712  MISS:       7094
cpu0_L1D PREFETCH  ACCESS:          0  HIT:          0  MISS:          0
cpu0_L1D WRITEBACK ACCESS:          0  HIT:          0  MISS:          0
cpu0_L2C TOTAL     ACCESS:      45537  HIT:      45239  MISS:        298
cpu0_L2C LOAD      ACCESS:      27434  HIT:      27221  MISS:        213
cpu0_L2C RFO       ACCESS:       7089  HIT:       7005  MISS:         84
cpu0_L2C PREFETCH  ACCESS:          0  HIT:          0  MISS:          0
cpu0_L2C WRITEBACK ACCESS:      10972  HIT:      10971  MISS:          1
LLC TOTAL     ACCESS:        302  HIT:         21  MISS:        281
LLC LOAD      ACCESS:        213  HIT:         16  MISS:        197
LLC RFO       ACCESS:         84  HIT:          0  MISS:         84
LLC PREFETCH  ACCESS:          0  HIT:          0  MISS:          0
LLC WRITEBACK ACCESS:          5  HIT:          5  MISS:          0
Heartbeat CPU 0 instructions: 70000002 cycles: 33110477 heartbeat IPC: 0.990463 cumulative IPC: 0.984073 (Simulation time: 0 hr 25 min 28 sec) 

Region of Interest Statistics
cpu0_DTLB TOTAL     ACCESS:    4057756  HIT:    4044763  MISS:      12993
cpu0_DTLB LOAD      ACCESS:    2724972  HIT:    2713346  MISS:      11626
cpu0_DTLB RFO       ACCESS:    1332784  HIT:    1331417  MISS:       1367
cpu0_DTLB PREFETCH  ACCESS:          0  HIT:          0  MISS:          0
cpu0_DTLB WRITEBACK ACCESS:          0  HIT:          0  MISS:          0
cpu0_ITLB TOTAL     ACCESS:    2246717  HIT:    2246717  MISS:          0
cpu0_ITLB LOAD      ACCESS:    2246717  HIT:    2246717  MISS:          0
cpu0_ITLB RFO       ACCESS:          0  HIT:          0  MISS:          0
cpu0_ITLB PREFETCH  ACCESS:          0  HIT:          0  MISS:          0
cpu0_ITLB WRITEBACK ACCESS:          0  HIT:          0  MISS:          0
cpu0_L1I TOTAL     ACCESS:    1062629  HIT:    1056809  MISS:       5820
cpu0_L1I LOAD      ACCESS:    1062629  HIT:    1056809  MISS:       5820
cpu0_L1I RFO       ACCESS:          0  HIT:          0  MISS:          0
cpu0_L1I PREFETCH  ACCESS:          0  HIT:          0  MISS:          0
cpu0_L1I WRITEBACK ACCESS:          0  HIT:          0  MISS:          0
cpu0_STLB TOTAL     ACCESS:      12993  HIT:      12941  MISS:         52
cpu0_STLB LOAD      ACCESS:      11626  HIT:      11575  MISS:         51
cpu0_STLB RFO       ACCESS:       1367  HIT:       1366  MISS:          1
cpu0_STLB PREFETCH  ACCESS:          0  HIT:          0  MISS:          0
cpu0_STLB WRITEBACK ACCESS:          0  HIT:          0  MISS:          0
cpu0_L1D TOTAL     ACCESS:    5401445  HIT:    5368999  MISS:      32446
cpu0_L1D LOAD      ACCESS:    3031953  HIT:    3007392  MISS:      24561
cpu0_L1D RFO       ACCESS:    2369440  HIT:    2361602  MISS:       7838
cpu0_L1D PREFETCH  ACCESS:          0  HIT:          0  MISS:          0
cpu0_L1D WRITEBACK ACCESS:          0  HIT:          0  MISS:          0
cpu0_L2C TOTAL     ACCESS:      50305  HIT:      49970  MISS:        335
cpu0_L2C LOAD      ACCESS:      30381  HIT:      30131  MISS:        250
cpu0_L2C RFO       ACCESS:       7826  HIT:       7742  MISS:         84
cpu0_L2C PREFETCH  ACCESS:          0  HIT:          0  MISS:          0
cpu0_L2C WRITEBACK ACCESS:      12051  HIT:      12050  MISS:          1
LLC TOTAL     ACCESS:        340  HIT:         24  MISS:        316
LLC LOAD      ACCESS:        250  HIT:         18  MISS:        232
LLC RFO       ACCESS:         84  HIT:          0  MISS:         84
LLC PREFETCH  ACCESS:          0  HIT:          0  MISS:          0
LLC WRITEBACK ACCESS:          6  HIT:          6  MISS:          0
Heartbeat CPU 0 instructions: 72000001 cycles: 35158049 heartbeat IPC: 0.976766 cumulative IPC: 0.983404 (Simulation time: 0 hr 26 min 12 sec) 

Region of Interest Statistics
cpu0_DTLB TOTAL     ACCESS:    4465846  HIT:    4451462  MISS:      14384
cpu0_DTLB LOAD      ACCESS:    2997284  HIT:    2984414  MISS:      12870
cpu0_DTLB RFO       ACCESS:    1468562  HIT:    1467048  MISS:       1514
cpu0_DTLB PREFETCH  ACCESS:          0  HIT:          0  MISS:          0
cpu0_DTLB WRITEBACK ACCESS:          0  HIT:          0  MISS:          0
cpu0_ITLB TOTAL     ACCESS:    2471355  HIT:    2471355  MISS:          0
cpu0_ITLB LOAD      ACCESS:    2471355  HIT:    2471355  MISS:          0
cpu0_ITLB RFO       ACCESS:          0  HIT:          0  MISS:          0
cpu0_ITLB PREFETCH  ACCESS:          0  HIT:          0  MISS:          0
cpu0_ITLB WRITEBACK ACCESS:          0  HIT:          0  MISS:          0
cpu0_L1I TOTAL     ACCESS:    1168226  HIT:    1161690  MISS:       6536
cpu0_L1I LOAD      ACCESS:    1168226  HIT:    1161690  MISS:       6536
cpu0_L1I RFO       ACCESS:          0  HIT:          0  MISS:          0
cpu0_L1I PREFETCH  ACCESS:          0  HIT:          0  MISS:          0
cpu0_L1I WRITEBACK ACCESS:          0  HIT:          0  MISS:          0
cpu0_STLB TOTAL     ACCESS:      14384  HIT:      14327  MISS:         57
cpu0_STLB LOAD      ACCESS:      12870  HIT:      12814  MISS:         56
cpu0_STLB RFO       ACCESS:       1514  HIT:       1513  MISS:          1
cpu0_STLB PREFETCH  ACCESS:          0  HIT:          0  MISS:          0
cpu0_STLB WRITEBACK ACCESS:          0  HIT:          0  MISS:          0
cpu0_L1D TOTAL     ACCESS:    5943517  HIT:    5907353  MISS:      36164
cpu0_L1D LOAD      ACCESS:    3335415  HIT:    3307863  MISS:      27552
cpu0_L1D RFO       ACCESS:    2608045  HIT:    2599485  MISS:       8560
cpu0_L1D PREFETCH  ACCESS:          0  HIT:          0  MISS:          0
cpu0_L1D WRITEBACK ACCESS:          0  HIT:          0  MISS:          0
cpu0_L2C TOTAL     ACCESS:      56247  HIT:      55882  MISS:        365
cpu0_L2C LOAD      ACCESS:      34088  HIT:      33827  MISS:        261
cpu0_L2C RFO       ACCESS:       8545  HIT:       8442  MISS:        103
cpu0_L2C PREFETCH  ACCESS:          0  HIT:          0  MISS:          0
cpu0_L2C WRITEBACK ACCESS:      13562  HIT:      13561  MISS:          1
LLC TOTAL     ACCESS:        370  HIT:         24  MISS:        346
LLC LOAD      ACCESS:        261  HIT:         18  MISS:        243
LLC RFO       ACCESS:        103  HIT:          0  MISS:        103
LLC PREFETCH  ACCESS:          0  HIT:          0  MISS:          0
LLC WRITEBACK ACCESS:          6  HIT:          6  MISS:          0
Heartbeat CPU 0 instructions: 74000000 cycles: 37185837 heartbeat IPC: 0.986296 cumulative IPC: 0.983645 (Simulation time: 0 hr 26 min 57 sec) 

Region of Interest Statistics
cpu0_DTLB TOTAL     ACCESS:    4873490  HIT:    4857882  MISS:      15608
cpu0_DTLB LOAD      ACCESS:    3271101  HIT:    3257125  MISS:      13976
cpu0_DTLB RFO       ACCESS:    1602389  HIT:    1600757  MISS:       1632
cpu0_DTLB PREFETCH  ACCESS:          0  HIT:          0  MISS:          0
cpu0_DTLB WRITEBACK ACCESS:          0  HIT:          0  MISS:          0
cpu0_ITLB TOTAL     ACCESS:    2696735  HIT:    2696735  MISS:          0
cpu0_ITLB LOAD      ACCESS:    2696735  HIT:    2696735  MISS:          0
cpu0_ITLB RFO       ACCESS:          0  HIT:          0  MISS:          0
cpu0_ITLB PREFETCH  ACCESS:          0  HIT:          0  MISS:          0
cpu0_ITLB WRITEBACK ACCESS:          0  HIT:          0  MISS:          0
cpu0_L1I TOTAL     ACCESS:    1273622  HIT:    1266418  MISS:       7204
cpu0_L1I LOAD      ACCESS:    1273622  HIT:    1266418  MISS:       7204
cpu0_L1I RFO       ACCESS:          0  HIT:          0  MISS:          0
cpu0_L1I PREFETCH  ACCESS:          0  HIT:          0  MISS:          0
cpu0_L1I WRITEBACK ACCESS:          0  HIT:          0  MISS:          0
cpu0_STLB TOTAL     ACCESS:      15608  HIT:      15545  MISS:         63
cpu0_STLB LOAD      ACCESS:      13976  HIT:      13914  MISS:         62
cpu0_STLB RFO       ACCESS:       1632  HIT:       1631  MISS:          1
cpu0_STLB PREFETCH  ACCESS:          0  HIT:          0  MISS:          0
cpu0_STLB WRITEBACK ACCESS:          0  HIT:          0  MISS:          0
cpu0_L1D TOTAL     ACCESS:    6486629  HIT:    6447077  MISS:      39552
cpu0_L1D LOAD      ACCESS:    3640568  HIT:    3610325  MISS:      30243
cpu0_L1D RFO       ACCESS:    2845998  HIT:    2836745  MISS:       9253
cpu0_L1D PREFETCH  ACCESS:          0  HIT:          0  MISS:          0
cpu0_L1D WRITEBACK ACCESS:          0  HIT:          0  MISS:          0
cpu0_L2C TOTAL     ACCESS:      61646  HIT:      61266  MISS:        380
cpu0_L2C LOAD      ACCESS:      37447  HIT:      37171  MISS:        276
cpu0_L2C RFO       ACCESS:       9238  HIT:       9135  MISS:        103
cpu0_L2C PREFETCH  ACCESS:          0  HIT:          0  MISS:          0
cpu0_L2C WRITEBACK ACCESS:      14905  HIT:      14904  MISS:          1
LLC TOTAL     ACCESS:        385  HIT:         25  MISS:        360
LLC LOAD      ACCESS:        276  HIT:         19  MISS:        257
LLC RFO       ACCESS:        103  HIT:          0  MISS:        103
LLC PREFETCH  ACCESS:          0  HIT:          0  MISS:          0
LLC WRITEBACK ACCESS:          6  HIT:          6  MISS:          0
Heartbeat CPU 0 instructions: 76000000 cycles: 39220574 heartbeat IPC: 0.982928 cumulative IPC: 0.983589 (Simulation time: 0 hr 27 min 42 sec) 

Region of Interest Statistics
cpu0_DTLB TOTAL     ACCESS:    5279642  HIT:    5262539  MISS:      17103
cpu0_DTLB LOAD      ACCESS:    3539421  HIT:    3524102  MISS:      15319
cpu0_DTLB RFO       ACCESS:    1740221  HIT:    1738437  MISS:       1784
cpu0_DTLB PREFETCH  ACCESS:          0  HIT:          0  MISS:          0
cpu0_DTLB WRITEBACK ACCESS:          0  HIT:          0  MISS:          0
cpu0_ITLB TOTAL     ACCESS:    2918148  HIT:    2918148  MISS:          0
cpu0_ITLB LOAD      ACCESS:    2918148  HIT:    2918148  MISS:          0
cpu0_ITLB RFO       ACCESS:          0  HIT:          0  MISS:          0
cpu0_ITLB PREFETCH  ACCESS:          0  HIT:          0  MISS:          0
cpu0_ITLB WRITEBACK ACCESS:          0  HIT:          0  MISS:          0
cpu0_L1I TOTAL     ACCESS:    1383092  HIT:    1375131  MISS:       7961
cpu0_L1I LOAD      ACCESS:    1383092  HIT:    1375131  MISS:       7961
cpu0_L1I RFO       ACCESS:          0  HIT:          0  MISS:          0
cpu0_L1I PREFETCH  ACCESS:          0  HIT:          0  MISS:          0
cpu0_L1I WRITEBACK ACCESS:          0  HIT:          0  MISS:          0
cpu0_STLB TOTAL     ACCESS:      17103  HIT:      17036  MISS:         67
cpu0_STLB LOAD      ACCESS:      15319  HIT:      15253  MISS:         66
cpu0_STLB RFO       ACCESS:       1784  HIT:       1783  MISS:          1
cpu0_STLB PREFETCH  ACCESS:          0  HIT:          0  MISS:          0
cpu0_STLB WRITEBACK ACCESS:          0  HIT:          0  MISS:          0
cpu0_L1D TOTAL     ACCESS:    7025836  HIT:    6982414  MISS:      43422
cpu0_L1D LOAD      ACCESS:    3939254  HIT:    3905997  MISS:      33257
cpu0_L1D RFO       ACCESS:    3086515  HIT:    3076410  MISS:      10105
cpu0_L1D PREFETCH  ACCESS:          0  HIT:          0  MISS:          0
cpu0_L1D WRITEBACK ACCESS:          0  HIT:          0  MISS:          0
cpu0_L2C TOTAL     ACCESS:      67732  HIT:      67343  MISS:        389
cpu0_L2C LOAD      ACCESS:      41218  HIT:      40933  MISS:        285
cpu0_L2C RFO       ACCESS:      10090  HIT:       9987  MISS:        103
cpu0_L2C PREFETCH  ACCESS:          0  HIT:          0  MISS:          0
cpu0_L2C WRITEBACK ACCESS:      16364  HIT:      16363  MISS:          1
LLC TOTAL     ACCESS:        394  HIT:         25  MISS:        369
LLC LOAD      ACCESS:        285  HIT:         19  MISS:        266
LLC RFO       ACCESS:        103  HIT:          0  MISS:        103
LLC PREFETCH  ACCESS:          0  HIT:          0  MISS:          0
LLC WRITEBACK ACCESS:          6  HIT:          6  MISS:          0
Heartbeat CPU 0 instructions: 78000002 cycles: 41258405 heartbeat IPC: 0.981437 cumulative IPC: 0.983435 (Simulation time: 0 hr 28 min 25 sec) 

Region of Interest Statistics
cpu0_DTLB TOTAL     ACCESS:    5686789  HIT:    5668305  MISS:      18484
cpu0_DTLB LOAD      ACCESS:    3811596  HIT:    3795038  MISS:      16558
cpu0_DTLB RFO       ACCESS:    1875193  HIT:    1873267  MISS:       1926
cpu0_DTLB PREFETCH  ACCESS:          0  HIT:          0  MISS:          0
cpu0_DTLB WRITEBACK ACCESS:          0  HIT:          0  MISS:          0
cpu0_ITLB TOTAL     ACCESS:    3142315  HIT:    3142315  MISS:          0
cpu0_ITLB LOAD      ACCESS:    3142315  HIT:    3142315  MISS:          0
cpu0_ITLB RFO       ACCESS:          0  HIT:          0  MISS:          0
cpu0_ITLB PREFETCH  ACCESS:          0  HIT:          0  MISS:          0
cpu0_ITLB WRITEBACK ACCESS:          0  HIT:          0  MISS:          0
cpu0_L1I TOTAL     ACCESS:    1491814  HIT:    1483193  MISS:       8621
cpu0_L1I LOAD      ACCESS:    1491814  HIT:    1483193  MISS:       8621
cpu0_L1I RFO       ACCESS:          0  HIT:          0  MISS:          0
cpu0_L1I PREFETCH  ACCESS:          0  HIT:          0  MISS:          0
cpu0_L1I WRITEBACK ACCESS:          0  HIT:          0  MISS:          0
cpu0_STLB TOTAL     ACCESS:      18484  HIT:      18411  MISS:         73
cpu0_STLB LOAD      ACCESS:      16558  HIT:      16486  MISS:         72
cpu0_STLB RFO       ACCESS:       1926  HIT:       1925  MISS:          1
cpu0_STLB PREFETCH  ACCESS:          0  HIT:          0  MISS:          0
cpu0_STLB WRITEBACK ACCESS:          0  HIT:          0  MISS:          0
cpu0_L1D TOTAL     ACCESS:    7568726  HIT:    7521946  MISS:      46780
cpu0_L1D LOAD      ACCESS:    4242445  HIT:    4206635  MISS:      35810
cpu0_L1D RFO       ACCESS:    3326208  HIT:    3315304  MISS:      10904
cpu0_L1D PREFETCH  ACCESS:          0  HIT:          0  MISS:          0
cpu0_L1D WRITEBACK ACCESS:          0  HIT:          0  MISS:          0
cpu0_L2C TOTAL     ACCESS:      72973  HIT:      72557  MISS:        416
cpu0_L2C LOAD      ACCESS:      44431  HIT:      44130  MISS:        301
cpu0_L2C RFO       ACCESS:      10889  HIT:      10775  MISS:        114
cpu0_L2C PREFETCH  ACCESS:          0  HIT:          0  MISS:          0
cpu0_L2C WRITEBACK ACCESS:      17587  HIT:      17586  MISS:          1
LLC TOTAL     ACCESS:        421  HIT:         25  MISS:        396
LLC LOAD      ACCESS:        301  HIT:         19  MISS:        282
LLC RFO       ACCESS:        114  HIT:          0  MISS:        114
LLC PREFETCH  ACCESS:          0  HIT:          0  MISS:          0
LLC WRITEBACK ACCESS:          6  HIT:          6  MISS:          0
Heartbeat CPU 0 instructions: 80000002 cycles: 43308743 heartbeat IPC: 0.975449 cumulative IPC: 0.982899 (Simulation time: 0 hr 29 min 8 sec) 

Region of Interest Statistics
cpu0_DTLB TOTAL     ACCESS:    6093368  HIT:    6073662  MISS:      19706
cpu0_DTLB LOAD      ACCESS:    4087073  HIT:    4069420  MISS:      17653
cpu0_DTLB RFO       ACCESS:    2006295  HIT:    2004242  MISS:       2053
cpu0_DTLB PREFETCH  ACCESS:          0  HIT:          0  MISS:          0
cpu0_DTLB WRITEBACK ACCESS:          0  HIT:          0  MISS:          0
cpu0_ITLB TOTAL     ACCESS:    3368547  HIT:    3368547  MISS:          0
cpu0_ITLB LOAD      ACCESS:    3368547  HIT:    3368547  MISS:          0
cpu0_ITLB RFO       ACCESS:          0  HIT:          0  MISS:          0
cpu0_ITLB PREFETCH  ACCESS:          0  HIT:          0  MISS:          0
cpu0_ITLB WRITEBACK ACCESS:          0  HIT:          0  MISS:          0
cpu0_L1I TOTAL     ACCESS:    1595909  HIT:    1586682  MISS:       9227
cpu0_L1I LOAD      ACCESS:    1595909  HIT:    1586682  MISS:       9227
cpu0_L1I RFO       ACCESS:          0  HIT:          0  MISS:          0
cpu0_L1I PREFETCH  ACCESS:          0  HIT:          0  MISS:          0
cpu0_L1I WRITEBACK ACCESS:          0  HIT:          0  MISS:          0
cpu0_STLB TOTAL     ACCESS:      19706  HIT:      19631  MISS:         75
cpu0_STLB LOAD      ACCESS:      17653  HIT:      17579  MISS:         74
cpu0_STLB RFO       ACCESS:       2053  HIT:       2052  MISS:          1
cpu0_STLB PREFETCH  ACCESS:          0  HIT:          0  MISS:          0
cpu0_STLB WRITEBACK ACCESS:          0  HIT:          0  MISS:          0
cpu0_L1D TOTAL     ACCESS:    8111800  HIT:    8062135  MISS:      49665
cpu0_L1D LOAD      ACCESS:    4548822  HIT:    4510671  MISS:      38151
cpu0_L1D RFO       ACCESS:    3562903  HIT:    3551457  MISS:      11446
cpu0_L1D PREFETCH  ACCESS:          0  HIT:          0  MISS:          0
cpu0_L1D WRITEBACK ACCESS:          0  HIT:          0  MISS:          0
cpu0_L2C TOTAL     ACCESS:      77533  HIT:      77109  MISS:        424
cpu0_L2C LOAD      ACCESS:      47378  HIT:      47069  MISS:        309
cpu0_L2C RFO       ACCESS:      11431  HIT:      11317  MISS:        114
cpu0_L2C PREFETCH  ACCESS:          0  HIT:          0  MISS:          0
cpu0_L2C WRITEBACK ACCESS:      18656  HIT:      18655  MISS:          1
LLC TOTAL     ACCESS:        429  HIT:         25  MISS:        404
LLC LOAD      ACCESS:        309  HIT:         19  MISS:        290
LLC RFO       ACCESS:        114  HIT:          0  MISS:        114
LLC PREFETCH  ACCESS:          0  HIT:          0  MISS:          0
LLC WRITEBACK ACCESS:          6  HIT:          6  MISS:          0
Heartbeat CPU 0 instructions: 82000001 cycles: 45371692 heartbeat IPC: 0.969485 cumulative IPC: 0.98205 (Simulation time: 0 hr 29 min 53 sec) 

Region of Interest Statistics
cpu0_DTLB TOTAL     ACCESS:    6501796  HIT:    6480678  MISS:      21118
cpu0_DTLB LOAD      ACCESS:    4360174  HIT:    4341256  MISS:      18918
cpu0_DTLB RFO       ACCESS:    2141622  HIT:    2139422  MISS:       2200
cpu0_DTLB PREFETCH  ACCESS:          0  HIT:          0  MISS:          0
cpu0_DTLB WRITEBACK ACCESS:          0  HIT:          0  MISS:          0
cpu0_ITLB TOTAL     ACCESS:    3593418  HIT:    3593418  MISS:          0
cpu0_ITLB LOAD      ACCESS:    3593418  HIT:    3593418  MISS:          0
cpu0_ITLB RFO       ACCESS:          0  HIT:          0  MISS:          0
cpu0_ITLB PREFETCH  ACCESS:          0  HIT:          0  MISS:          0
cpu0_ITLB WRITEBACK ACCESS:          0  HIT:          0  MISS:          0
cpu0_L1I TOTAL     ACCESS:    1702410  HIT:    1692477  MISS:       9933
cpu0_L1I LOAD      ACCESS:    1702410  HIT:    1692477  MISS:       9933
cpu0_L1I RFO       ACCESS:          0  HIT:          0  MISS:          0
cpu0_L1I PREFETCH  ACCESS:          0  HIT:          0  MISS:          0
cpu0_L1I WRITEBACK ACCESS:          0  HIT:          0  MISS:          0
cpu0_STLB TOTAL     ACCESS:      21118  HIT:      21036  MISS:         82
cpu0_STLB LOAD      ACCESS:      18918  HIT:      18838  MISS:         80
cpu0_STLB RFO       ACCESS:       2200  HIT:       2198  MISS:          2
cpu0_STLB PREFETCH  ACCESS:          0  HIT:          0  MISS:          0
cpu0_STLB WRITEBACK ACCESS:          0  HIT:          0  MISS:          0
cpu0_L1D TOTAL     ACCESS:    8655993  HIT:    8603126  MISS:      52867
cpu0_L1D LOAD      ACCESS:    4852524  HIT:    4811795  MISS:      40729
cpu0_L1D RFO       ACCESS:    3803387  HIT:    3791324  MISS:      12063
cpu0_L1D PREFETCH  ACCESS:          0  HIT:          0  MISS:          0
cpu0_L1D WRITEBACK ACCESS:          0  HIT:          0  MISS:          0
cpu0_L2C TOTAL     ACCESS:      82658  HIT:      82185  MISS:        473
cpu0_L2C LOAD      ACCESS:      50662  HIT:      50328  MISS:        334
cpu0_L2C RFO       ACCESS:      12048  HIT:      11910  MISS:        138
cpu0_L2C PREFETCH  ACCESS:          0  HIT:          0  MISS:          0
cpu0_L2C WRITEBACK ACCESS:      19873  HIT:      19872  MISS:          1
LLC TOTAL     ACCESS:        478  HIT:         26  MISS:        452
LLC LOAD      ACCESS:        334  HIT:         20  MISS:        314
LLC RFO       ACCESS:        138  HIT:          0  MISS:        138
LLC PREFETCH  ACCESS:          0  HIT:          0  MISS:          0
LLC WRITEBACK ACCESS:          6  HIT:          6  MISS:          0
Heartbeat CPU 0 instructions: 84000000 cycles: 47421911 heartbeat IPC: 0.975505 cumulative IPC: 0.981662 (Simulation time: 0 hr 30 min 37 sec) 

Region of Interest Statistics
cpu0_DTLB TOTAL     ACCESS:    6910793  HIT:    6888418  MISS:      22375
cpu0_DTLB LOAD      ACCESS:    4636051  HIT:    4616015  MISS:      20036
cpu0_DTLB RFO       ACCESS:    2274742  HIT:    2272403  MISS:       2339
cpu0_DTLB PREFETCH  ACCESS:          0  HIT:          0  MISS:          0
cpu0_DTLB WRITEBACK ACCESS:          0  HIT:          0  MISS:          0
cpu0_ITLB TOTAL     ACCESS:    3819973  HIT:    3819973  MISS:          0
cpu0_ITLB LOAD      ACCESS:    3819973  HIT:    3819973  MISS:          0
cpu0_ITLB RFO       ACCESS:          0  HIT:          0  MISS:          0
cpu0_ITLB PREFETCH  ACCESS:          0  HIT:          0  MISS:          0
cpu0_ITLB WRITEBACK ACCESS:          0  HIT:          0  MISS:          0
cpu0_L1I TOTAL     ACCESS:    1808346  HIT:    1797786  MISS:      10560
cpu0_L1I LOAD      ACCESS:    1808346  HIT:    1797786  MISS:      10560
cpu0_L1I RFO       ACCESS:          0  HIT:          0  MISS:          0
cpu0_L1I PREFETCH  ACCESS:          0  HIT:          0  MISS:          0
cpu0_L1I WRITEBACK ACCESS:          0  HIT:          0  MISS:          0
cpu0_STLB TOTAL     ACCESS:      22375  HIT:      22290  MISS:         85
cpu0_STLB LOAD      ACCESS:      20036  HIT:      19953  MISS:         83
cpu0_STLB RFO       ACCESS:       2339  HIT:       2337  MISS:          2
cpu0_STLB PREFETCH  ACCESS:          0  HIT:          0  MISS:          0
cpu0_STLB WRITEBACK ACCESS:          0  HIT:          0  MISS:          0
cpu0_L1D TOTAL     ACCESS:    9201591  HIT:    9145636  MISS:      55955
cpu0_L1D LOAD      ACCESS:    5159296  HIT:    5116061  MISS:      43235
cpu0_L1D RFO       ACCESS:    4042210  HIT:    4029568  MISS:      12642
cpu0_L1D PREFETCH  ACCESS:          0  HIT:          0  MISS:          0
cpu0_L1D WRITEBACK ACCESS:          0  HIT:          0  MISS:          0
cpu0_L2C TOTAL     ACCESS:      87543  HIT:      87042  MISS:        501
cpu0_L2C LOAD      ACCESS:      53795  HIT:      53446  MISS:        349
cpu0_L2C RFO       ACCESS:      12627  HIT:      12476  MISS:        151
cpu0_L2C PREFETCH  ACCESS:          0  HIT:          0  MISS:          0
cpu0_L2C WRITEBACK ACCESS:      21043  HIT:      21042  MISS:          1
LLC TOTAL     ACCESS:        506  HIT:         28  MISS:        478
LLC LOAD      ACCESS:        349  HIT:         22  MISS:        327
LLC RFO       ACCESS:        151  HIT:          0  MISS:        151
LLC PREFETCH  ACCESS:          0  HIT:          0  MISS:          0
LLC WRITEBACK ACCESS:          6  HIT:          6  MISS:          0
Heartbeat CPU 0 instructions: 86000001 cycles: 49488842 heartbeat IPC: 0.967619 cumulative IPC: 0.980871 (Simulation time: 0 hr 31 min 22 sec) 

Region of Interest Statistics
cpu0_DTLB TOTAL     ACCESS:    7320824  HIT:    7297144  MISS:      23680
cpu0_DTLB LOAD      ACCESS:    4911335  HIT:    4890129  MISS:      21206
cpu0_DTLB RFO       ACCESS:    2409489  HIT:    2407015  MISS:       2474
cpu0_DTLB PREFETCH  ACCESS:          0  HIT:          0  MISS:          0
cpu0_DTLB WRITEBACK ACCESS:          0  HIT:          0  MISS:          0
cpu0_ITLB TOTAL     ACCESS:    4045275  HIT:    4045275  MISS:          0
cpu0_ITLB LOAD      ACCESS:    4045275  HIT:    4045275  MISS:          0
cpu0_ITLB RFO       ACCESS:          0  HIT:          0  MISS:          0
cpu0_ITLB PREFETCH  ACCESS:          0  HIT:          0  MISS:          0
cpu0_ITLB WRITEBACK ACCESS:          0  HIT:          0  MISS:          0
cpu0_L1I TOTAL     ACCESS:    1912844  HIT:    1901584  MISS:      11260
cpu0_L1I LOAD      ACCESS:    1912844  HIT:    1901584  MISS:      11260
cpu0_L1I RFO       ACCESS:          0  HIT:          0  MISS:          0
cpu0_L1I PREFETCH  ACCESS:          0  HIT:          0  MISS:          0
cpu0_L1I WRITEBACK ACCESS:          0  HIT:          0  MISS:          0
cpu0_STLB TOTAL     ACCESS:      23680  HIT:      23587  MISS:         93
cpu0_STLB LOAD      ACCESS:      21206  HIT:      21115  MISS:         91
cpu0_STLB RFO       ACCESS:       2474  HIT:       2472  MISS:          2
cpu0_STLB PREFETCH  ACCESS:          0  HIT:          0  MISS:          0
cpu0_STLB WRITEBACK ACCESS:          0  HIT:          0  MISS:          0
cpu0_L1D TOTAL     ACCESS:    9745891  HIT:    9686922  MISS:      58969
cpu0_L1D LOAD      ACCESS:    5464931  HIT:    5419287  MISS:      45644
cpu0_L1D RFO       ACCESS:    4280867  HIT:    4267627  MISS:      13240
cpu0_L1D PREFETCH  ACCESS:          0  HIT:          0  MISS:          0
cpu0_L1D WRITEBACK ACCESS:          0  HIT:          0  MISS:          0
cpu0_L2C TOTAL     ACCESS:      92364  HIT:      91808  MISS:        556
cpu0_L2C LOAD      ACCESS:      56904  HIT:      56517  MISS:        387
cpu0_L2C RFO       ACCESS:      13225  HIT:      13057  MISS:        168
cpu0_L2C PREFETCH  ACCESS:          0  HIT:          0  MISS:          0
cpu0_L2C WRITEBACK ACCESS:      22150  HIT:      22149  MISS:          1
LLC TOTAL     ACCESS:        562  HIT:         31  MISS:        531
LLC LOAD      ACCESS:        387  HIT:         24  MISS:        363
LLC RFO       ACCESS:        168  HIT:          0  MISS:        168
LLC PREFETCH  ACCESS:          0  HIT:          0  MISS:          0
LLC WRITEBACK ACCESS:          7  HIT:          7  MISS:          0
Heartbeat CPU 0 instructions: 88000000 cycles: 51509671 heartbeat IPC: 0.989692 cumulative IPC: 0.981332 (Simulation time: 0 hr 32 min 4 sec) 

Region of Interest Statistics
cpu0_DTLB TOTAL     ACCESS:    7724223  HIT:    7699146  MISS:      25077
cpu0_DTLB LOAD      ACCESS:    5181276  HIT:    5158828  MISS:      22448
cpu0_DTLB RFO       ACCESS:    2542947  HIT:    2540318  MISS:       2629
cpu0_DTLB PREFETCH  ACCESS:          0  HIT:          0  MISS:          0
cpu0_DTLB WRITEBACK ACCESS:          0  HIT:          0  MISS:          0
cpu0_ITLB TOTAL     ACCESS:    4269226  HIT:    4269226  MISS:          0
cpu0_ITLB LOAD      ACCESS:    4269226  HIT:    4269226  MISS:          0
cpu0_ITLB RFO       ACCESS:          0  HIT:          0  MISS:          0
cpu0_ITLB PREFETCH  ACCESS:          0  HIT:          0  MISS:          0
cpu0_ITLB WRITEBACK ACCESS:          0  HIT:          0  MISS:          0
cpu0_L1I TOTAL     ACCESS:    2018658  HIT:    2006775  MISS:      11883
cpu0_L1I LOAD      ACCESS:    2018658  HIT:    2006775  MISS:      11883
cpu0_L1I RFO       ACCESS:          0  HIT:          0  MISS:          0
cpu0_L1I PREFETCH  ACCESS:          0  HIT:          0  MISS:          0
cpu0_L1I WRITEBACK ACCESS:          0  HIT:          0  MISS:          0
cpu0_STLB TOTAL     ACCESS:      25077  HIT:      24981  MISS:         96
cpu0_STLB LOAD      ACCESS:      22448  HIT:      22354  MISS:         94
cpu0_STLB RFO       ACCESS:       2629  HIT:       2627  MISS:          2
cpu0_STLB PREFETCH  ACCESS:          0  HIT:          0  MISS:          0
cpu0_STLB WRITEBACK ACCESS:          0  HIT:          0  MISS:          0
cpu0_L1D TOTAL     ACCESS:   10285290  HIT:   10222747  MISS:      62543
cpu0_L1D LOAD      ACCESS:    5765768  HIT:    5717358  MISS:      48410
cpu0_L1D RFO       ACCESS:    4519426  HIT:    4505381  MISS:      14045
cpu0_L1D PREFETCH  ACCESS:          0  HIT:          0  MISS:          0
cpu0_L1D WRITEBACK ACCESS:          0  HIT:          0  MISS:          0
cpu0_L2C TOTAL     ACCESS:      97978  HIT:      97371  MISS:        607
cpu0_L2C LOAD      ACCESS:      60293  HIT:      59893  MISS:        400
cpu0_L2C RFO       ACCESS:      14030  HIT:      13824  MISS:        206
cpu0_L2C PREFETCH  ACCESS:          0  HIT:          0  MISS:          0
cpu0_L2C WRITEBACK ACCESS:      23567  HIT:      23566  MISS:          1
LLC TOTAL     ACCESS:        613  HIT:         32  MISS:        581
LLC LOAD      ACCESS:        400  HIT:         25  MISS:        375
LLC RFO       ACCESS:        206  HIT:          0  MISS:        206
LLC PREFETCH  ACCESS:          0  HIT:          0  MISS:          0
LLC WRITEBACK ACCESS:          7  HIT:          7  MISS:          0
Heartbeat CPU 0 instructions: 90000004 cycles: 53508564 heartbeat IPC: 1.00056 cumulative IPC: 0.982275 (Simulation time: 0 hr 32 min 48 sec) 

Region of Interest Statistics
cpu0_DTLB TOTAL     ACCESS:    8125545  HIT:    8099097  MISS:      26448
cpu0_DTLB LOAD      ACCESS:    5448358  HIT:    5424713  MISS:      23645
cpu0_DTLB RFO       ACCESS:    2677187  HIT:    2674384  MISS:       2803
cpu0_DTLB PREFETCH  ACCESS:          0  HIT:          0  MISS:          0
cpu0_DTLB WRITEBACK ACCESS:          0  HIT:          0  MISS:          0
cpu0_ITLB TOTAL     ACCESS:    4491554  HIT:    4491554  MISS:          0
cpu0_ITLB LOAD      ACCESS:    4491554  HIT:    4491554  MISS:          0
cpu0_ITLB RFO       ACCESS:          0  HIT:          0  MISS:          0
cpu0_ITLB PREFETCH  ACCESS:          0  HIT:          0  MISS:          0
cpu0_ITLB WRITEBACK ACCESS:          0  HIT:          0  MISS:          0
cpu0_L1I TOTAL     ACCESS:    2126836  HIT:    2114413  MISS:      12423
cpu0_L1I LOAD      ACCESS:    2126836  HIT:    2114413  MISS:      12423
cpu0_L1I RFO       ACCESS:          0  HIT:          0  MISS:          0
cpu0_L1I PREFETCH  ACCESS:          0  HIT:          0  MISS:          0
cpu0_L1I WRITEBACK ACCESS:          0  HIT:          0  MISS:          0
cpu0_STLB TOTAL     ACCESS:      26448  HIT:      26346  MISS:        102
cpu0_STLB LOAD      ACCESS:      23645  HIT:      23545  MISS:        100
cpu0_STLB RFO       ACCESS:       2803  HIT:       2801  MISS:          2
cpu0_STLB PREFETCH  ACCESS:          0  HIT:          0  MISS:          0
cpu0_STLB WRITEBACK ACCESS:          0  HIT:          0  MISS:          0
cpu0_L1D TOTAL     ACCESS:   10819933  HIT:   10753977  MISS:      65956
cpu0_L1D LOAD      ACCESS:    6062991  HIT:    6012091  MISS:      50900
cpu0_L1D RFO       ACCESS:    4756840  HIT:    4741878  MISS:      14962
cpu0_L1D PREFETCH  ACCESS:          0  HIT:          0  MISS:          0
cpu0_L1D WRITEBACK ACCESS:          0  HIT:          0  MISS:          0
cpu0_L2C TOTAL     ACCESS:     103198  HIT:     102568  MISS:        630
cpu0_L2C LOAD      ACCESS:      63323  HIT:      62913  MISS:        410
cpu0_L2C RFO       ACCESS:      14947  HIT:      14728  MISS:        219
cpu0_L2C PREFETCH  ACCESS:          0  HIT:          0  MISS:          0
cpu0_L2C WRITEBACK ACCESS:      24834  HIT:      24833  MISS:          1
LLC TOTAL     ACCESS:        636  HIT:         32  MISS:        604
LLC LOAD      ACCESS:        410  HIT:         25  MISS:        385
LLC RFO       ACCESS:        219  HIT:          0  MISS:        219
LLC PREFETCH  ACCESS:          0  HIT:          0  MISS:          0
LLC WRITEBACK ACCESS:          7  HIT:          7  MISS:          0
Heartbeat CPU 0 instructions: 92000003 cycles: 55554801 heartbeat IPC: 0.977403 cumulative IPC: 0.982042 (Simulation time: 0 hr 33 min 31 sec) 

Region of Interest Statistics
cpu0_DTLB TOTAL     ACCESS:    8535557  HIT:    8507759  MISS:      27798
cpu0_DTLB LOAD      ACCESS:    5724380  HIT:    5699549  MISS:      24831
cpu0_DTLB RFO       ACCESS:    2811177  HIT:    2808210  MISS:       2967
cpu0_DTLB PREFETCH  ACCESS:          0  HIT:          0  MISS:          0
cpu0_DTLB WRITEBACK ACCESS:          0  HIT:          0  MISS:          0
cpu0_ITLB TOTAL     ACCESS:    4717881  HIT:    4717881  MISS:          0
cpu0_ITLB LOAD      ACCESS:    4717881  HIT:    4717881  MISS:          0
cpu0_ITLB RFO       ACCESS:          0  HIT:          0  MISS:          0
cpu0_ITLB PREFETCH  ACCESS:          0  HIT:          0  MISS:          0
cpu0_ITLB WRITEBACK ACCESS:          0  HIT:          0  MISS:          0
cpu0_L1I TOTAL     ACCESS:    2232935  HIT:    2220078  MISS:      12857
cpu0_L1I LOAD      ACCESS:    2232935  HIT:    2220078  MISS:      12857
cpu0_L1I RFO       ACCESS:          0  HIT:          0  MISS:          0
cpu0_L1I PREFETCH  ACCESS:          0  HIT:          0  MISS:          0
cpu0_L1I WRITEBACK ACCESS:          0  HIT:          0  MISS:          0
cpu0_STLB TOTAL     ACCESS:      27798  HIT:      27689  MISS:        109
cpu0_STLB LOAD      ACCESS:      24831  HIT:      24724  MISS:        107
cpu0_STLB RFO       ACCESS:       2967  HIT:       2965  MISS:          2
cpu0_STLB PREFETCH  ACCESS:          0  HIT:          0  MISS:          0
cpu0_STLB WRITEBACK ACCESS:          0  HIT:          0  MISS:          0
cpu0_L1D TOTAL     ACCESS:   11366419  HIT:   11297652  MISS:      68767
cpu0_L1D LOAD      ACCESS:    6370055  HIT:    6316975  MISS:      53080
cpu0_L1D RFO       ACCESS:    4996255  HIT:    4980668  MISS:      15587
cpu0_L1D PREFETCH  ACCESS:          0  HIT:          0  MISS:          0
cpu0_L1D WRITEBACK ACCESS:          0  HIT:          0  MISS:          0
cpu0_L2C TOTAL     ACCESS:     107451  HIT:     106803  MISS:        648
cpu0_L2C LOAD      ACCESS:      65937  HIT:      65510  MISS:        427
cpu0_L2C RFO       ACCESS:      15572  HIT:      15352  MISS:        220
cpu0_L2C PREFETCH  ACCESS:          0  HIT:          0  MISS:          0
cpu0_L2C WRITEBACK ACCESS:      25842  HIT:      25841  MISS:          1
LLC TOTAL     ACCESS:        654  HIT:         36  MISS:        618
LLC LOAD      ACCESS:        427  HIT:         29  MISS:        398
LLC RFO       ACCESS:        220  HIT:          0  MISS:        220
LLC PREFETCH  ACCESS:          0  HIT:          0  MISS:          0
LLC WRITEBACK ACCESS:          7  HIT:          7  MISS:          0
Heartbeat CPU 0 instructions: 94000001 cycles: 57621584 heartbeat IPC: 0.967686 cumulative IPC: 0.98138 (Simulation time: 0 hr 34 min 14 sec) 

Region of Interest Statistics
cpu0_DTLB TOTAL     ACCESS:    8951498  HIT:    8922595  MISS:      28903
cpu0_DTLB LOAD      ACCESS:    6006481  HIT:    5980691  MISS:      25790
cpu0_DTLB RFO       ACCESS:    2945017  HIT:    2941904  MISS:       3113
cpu0_DTLB PREFETCH  ACCESS:          0  HIT:          0  MISS:          0
cpu0_DTLB WRITEBACK ACCESS:          0  HIT:          0  MISS:          0
cpu0_ITLB TOTAL     ACCESS:    4947706  HIT:    4947706  MISS:          0
cpu0_ITLB LOAD      ACCESS:    4947706  HIT:    4947706  MISS:          0
cpu0_ITLB RFO       ACCESS:          0  HIT:          0  MISS:          0
cpu0_ITLB PREFETCH  ACCESS:          0  HIT:          0  MISS:          0
cpu0_ITLB WRITEBACK ACCESS:          0  HIT:          0  MISS:          0
cpu0_L1I TOTAL     ACCESS:    2337273  HIT:    2323940  MISS:      13333
cpu0_L1I LOAD      ACCESS:    2337273  HIT:    2323940  MISS:      13333
cpu0_L1I RFO       ACCESS:          0  HIT:          0  MISS:          0
cpu0_L1I PREFETCH  ACCESS:          0  HIT:          0  MISS:          0
cpu0_L1I WRITEBACK ACCESS:          0  HIT:          0  MISS:          0
cpu0_STLB TOTAL     ACCESS:      28903  HIT:      28789  MISS:        114
cpu0_STLB LOAD      ACCESS:      25790  HIT:      25678  MISS:        112
cpu0_STLB RFO       ACCESS:       3113  HIT:       3111  MISS:          2
cpu0_STLB PREFETCH  ACCESS:          0  HIT:          0  MISS:          0
cpu0_STLB WRITEBACK ACCESS:          0  HIT:          0  MISS:          0
cpu0_L1D TOTAL     ACCESS:   11920488  HIT:   11850248  MISS:      70240
cpu0_L1D LOAD      ACCESS:    6682741  HIT:    6628458  MISS:      54283
cpu0_L1D RFO       ACCESS:    5237633  HIT:    5221779  MISS:      15854
cpu0_L1D PREFETCH  ACCESS:          0  HIT:          0  MISS:          0
cpu0_L1D WRITEBACK ACCESS:          0  HIT:          0  MISS:          0
cpu0_L2C TOTAL     ACCESS:     109782  HIT:     109112  MISS:        670
cpu0_L2C LOAD      ACCESS:      67616  HIT:      67167  MISS:        449
cpu0_L2C RFO       ACCESS:      15839  HIT:      15619  MISS:        220
cpu0_L2C PREFETCH  ACCESS:          0  HIT:          0  MISS:          0
cpu0_L2C WRITEBACK ACCESS:      26224  HIT:      26223  MISS:          1
LLC TOTAL     ACCESS:        676  HIT:         37  MISS:        639
LLC LOAD      ACCESS:        449  HIT:         30  MISS:        419
LLC RFO       ACCESS:        220  HIT:          0  MISS:        220
LLC PREFETCH  ACCESS:          0  HIT:          0  MISS:          0
LLC WRITEBACK ACCESS:          7  HIT:          7  MISS:          0
Heartbeat CPU 0 instructions: 96000003 cycles: 59674663 heartbeat IPC: 0.974148 cumulative IPC: 0.981064 (Simulation time: 0 hr 34 min 55 sec) 

Region of Interest Statistics
cpu0_DTLB TOTAL     ACCESS:    9366901  HIT:    9336783  MISS:      30118
cpu0_DTLB LOAD      ACCESS:    6288181  HIT:    6261271  MISS:      26910
cpu0_DTLB RFO       ACCESS:    3078720  HIT:    3075512  MISS:       3208
cpu0_DTLB PREFETCH  ACCESS:          0  HIT:          0  MISS:          0
cpu0_DTLB WRITEBACK ACCESS:          0  HIT:          0  MISS:          0
cpu0_ITLB TOTAL     ACCESS:    5177212  HIT:    5177212  MISS:          0
cpu0_ITLB LOAD      ACCESS:    5177212  HIT:    5177212  MISS:          0
cpu0_ITLB RFO       ACCESS:          0  HIT:          0  MISS:          0
cpu0_ITLB PREFETCH  ACCESS:          0  HIT:          0  MISS:          0
cpu0_ITLB WRITEBACK ACCESS:          0  HIT:          0  MISS:          0
cpu0_L1I TOTAL     ACCESS:    2444273  HIT:    2430406  MISS:      13867
cpu0_L1I LOAD      ACCESS:    2444273  HIT:    2430406  MISS:      13867
cpu0_L1I RFO       ACCESS:          0  HIT:          0  MISS:          0
cpu0_L1I PREFETCH  ACCESS:          0  HIT:          0  MISS:          0
cpu0_L1I WRITEBACK ACCESS:          0  HIT:          0  MISS:          0
cpu0_STLB TOTAL     ACCESS:      30118  HIT:      29996  MISS:        122
cpu0_STLB LOAD      ACCESS:      26910  HIT:      26790  MISS:        120
cpu0_STLB RFO       ACCESS:       3208  HIT:       3206  MISS:          2
cpu0_STLB PREFETCH  ACCESS:          0  HIT:          0  MISS:          0
cpu0_STLB WRITEBACK ACCESS:          0  HIT:          0  MISS:          0
cpu0_L1D TOTAL     ACCESS:   12475264  HIT:   12403341  MISS:      71923
cpu0_L1D LOAD      ACCESS:    6995162  HIT:    6939498  MISS:      55664
cpu0_L1D RFO       ACCESS:    5479980  HIT:    5463830  MISS:      16150
cpu0_L1D PREFETCH  ACCESS:          0  HIT:          0  MISS:          0
cpu0_L1D WRITEBACK ACCESS:          0  HIT:          0  MISS:          0
cpu0_L2C TOTAL     ACCESS:     112450  HIT:     111737  MISS:        713
cpu0_L2C LOAD      ACCESS:      69531  HIT:      69057  MISS:        474
cpu0_L2C RFO       ACCESS:      16135  HIT:      15897  MISS:        238
cpu0_L2C PREFETCH  ACCESS:          0  HIT:          0  MISS:          0
cpu0_L2C WRITEBACK ACCESS:      26675  HIT:      26674  MISS:          1
LLC TOTAL     ACCESS:        721  HIT:         41  MISS:        680
LLC LOAD      ACCESS:        474  HIT:         32  MISS:        442
LLC RFO       ACCESS:        238  HIT:          0  MISS:        238
LLC PREFETCH  ACCESS:          0  HIT:          0  MISS:          0
LLC WRITEBACK ACCESS:          9  HIT:          9  MISS:          0
Heartbeat CPU 0 instructions: 98000002 cycles: 61721599 heartbeat IPC: 0.97707 cumulative IPC: 0.980897 (Simulation time: 0 hr 35 min 36 sec) 

Region of Interest Statistics
cpu0_DTLB TOTAL     ACCESS:    9781637  HIT:    9750428  MISS:      31209
cpu0_DTLB LOAD      ACCESS:    6568770  HIT:    6540837  MISS:      27933
cpu0_DTLB RFO       ACCESS:    3212867  HIT:    3209591  MISS:       3276
cpu0_DTLB PREFETCH  ACCESS:          0  HIT:          0  MISS:          0
cpu0_DTLB WRITEBACK ACCESS:          0  HIT:          0  MISS:          0
cpu0_ITLB TOTAL     ACCESS:    5405493  HIT:    5405493  MISS:          0
cpu0_ITLB LOAD      ACCESS:    5405493  HIT:    5405493  MISS:          0
cpu0_ITLB RFO       ACCESS:          0  HIT:          0  MISS:          0
cpu0_ITLB PREFETCH  ACCESS:          0  HIT:          0  MISS:          0
cpu0_ITLB WRITEBACK ACCESS:          0  HIT:          0  MISS:          0
cpu0_L1I TOTAL     ACCESS:    2551027  HIT:    2536554  MISS:      14473
cpu0_L1I LOAD      ACCESS:    2551027  HIT:    2536554  MISS:      14473
cpu0_L1I RFO       ACCESS:          0  HIT:          0  MISS:          0
cpu0_L1I PREFETCH  ACCESS:          0  HIT:          0  MISS:          0
cpu0_L1I WRITEBACK ACCESS:          0  HIT:          0  MISS:          0
cpu0_STLB TOTAL     ACCESS:      31209  HIT:      31087  MISS:        122
cpu0_STLB LOAD      ACCESS:      27933  HIT:      27813  MISS:        120
cpu0_STLB RFO       ACCESS:       3276  HIT:       3274  MISS:          2
cpu0_STLB PREFETCH  ACCESS:          0  HIT:          0  MISS:          0
cpu0_STLB WRITEBACK ACCESS:          0  HIT:          0  MISS:          0
cpu0_L1D TOTAL     ACCESS:   13031409  HIT:   12958170  MISS:      73239
cpu0_L1D LOAD      ACCESS:    7306376  HIT:    7249619  MISS:      56757
cpu0_L1D RFO       ACCESS:    5724911  HIT:    5708538  MISS:      16373
cpu0_L1D PREFETCH  ACCESS:          0  HIT:          0  MISS:          0
cpu0_L1D WRITEBACK ACCESS:          0  HIT:          0  MISS:          0
cpu0_L2C TOTAL     ACCESS:     114670  HIT:     113944  MISS:        726
cpu0_L2C LOAD      ACCESS:      71230  HIT:      70743  MISS:        487
cpu0_L2C RFO       ACCESS:      16358  HIT:      16120  MISS:        238
cpu0_L2C PREFETCH  ACCESS:          0  HIT:          0  MISS:          0
cpu0_L2C WRITEBACK ACCESS:      26973  HIT:      26972  MISS:          1
LLC TOTAL     ACCESS:        734  HIT:         41  MISS:        693
LLC LOAD      ACCESS:        487  HIT:         32  MISS:        455
LLC RFO       ACCESS:        238  HIT:          0  MISS:        238
LLC PREFETCH  ACCESS:          0  HIT:          0  MISS:          0
LLC WRITEBACK ACCESS:          9  HIT:          9  MISS:          0
Heartbeat CPU 0 instructions: 100000001 cycles: 63754599 heartbeat IPC: 0.983767 cumulative IPC: 0.981011 (Simulation time: 0 hr 36 min 17 sec) 

Region of Interest Statistics
cpu0_DTLB TOTAL     ACCESS:   10195384  HIT:   10163020  MISS:      32364
cpu0_DTLB LOAD      ACCESS:    6847018  HIT:    6818020  MISS:      28998
cpu0_DTLB RFO       ACCESS:    3348366  HIT:    3345000  MISS:       3366
cpu0_DTLB PREFETCH  ACCESS:          0  HIT:          0  MISS:          0
cpu0_DTLB WRITEBACK ACCESS:          0  HIT:          0  MISS:          0
cpu0_ITLB TOTAL     ACCESS:    5632748  HIT:    5632748  MISS:          0
cpu0_ITLB LOAD      ACCESS:    5632748  HIT:    5632748  MISS:          0
cpu0_ITLB RFO       ACCESS:          0  HIT:          0  MISS:          0
cpu0_ITLB PREFETCH  ACCESS:          0  HIT:          0  MISS:          0
cpu0_ITLB WRITEBACK ACCESS:          0  HIT:          0  MISS:          0
cpu0_L1I TOTAL     ACCESS:    2658597  HIT:    2643472  MISS:      15125
cpu0_L1I LOAD      ACCESS:    2658597  HIT:    2643472  MISS:      15125
cpu0_L1I RFO       ACCESS:          0  HIT:          0  MISS:          0
cpu0_L1I PREFETCH  ACCESS:          0  HIT:          0  MISS:          0
cpu0_L1I WRITEBACK ACCESS:          0  HIT:          0  MISS:          0
cpu0_STLB TOTAL     ACCESS:      32364  HIT:      32240  MISS:        124
cpu0_STLB LOAD      ACCESS:      28998  HIT:      28876  MISS:        122
cpu0_STLB RFO       ACCESS:       3366  HIT:       3364  MISS:          2
cpu0_STLB PREFETCH  ACCESS:          0  HIT:          0  MISS:          0
cpu0_STLB WRITEBACK ACCESS:          0  HIT:          0  MISS:          0
cpu0_L1D TOTAL     ACCESS:   13584716  HIT:   13509869  MISS:      74847
cpu0_L1D LOAD      ACCESS:    7614684  HIT:    7556608  MISS:      58076
cpu0_L1D RFO       ACCESS:    5969908  HIT:    5953248  MISS:      16660
cpu0_L1D PREFETCH  ACCESS:          0  HIT:          0  MISS:          0
cpu0_L1D WRITEBACK ACCESS:          0  HIT:          0  MISS:          0
cpu0_L2C TOTAL     ACCESS:     117316  HIT:     116548  MISS:        768
cpu0_L2C LOAD      ACCESS:      73201  HIT:      72692  MISS:        509
cpu0_L2C RFO       ACCESS:      16645  HIT:      16387  MISS:        258
cpu0_L2C PREFETCH  ACCESS:          0  HIT:          0  MISS:          0
cpu0_L2C WRITEBACK ACCESS:      27359  HIT:      27358  MISS:          1
LLC TOTAL     ACCESS:        777  HIT:         43  MISS:        734
LLC LOAD      ACCESS:        509  HIT:         33  MISS:        476
LLC RFO       ACCESS:        258  HIT:          0  MISS:        258
LLC PREFETCH  ACCESS:          0  HIT:          0  MISS:          0
LLC WRITEBACK ACCESS:         10  HIT:         10  MISS:          0
Heartbeat CPU 0 instructions: 102000003 cycles: 65812743 heartbeat IPC: 0.97175 cumulative IPC: 0.980652 (Simulation time: 0 hr 37 min 0 sec) 

Region of Interest Statistics
cpu0_DTLB TOTAL     ACCESS:   10609608  HIT:   10576142  MISS:      33466
cpu0_DTLB LOAD      ACCESS:    7127402  HIT:    7097384  MISS:      30018
cpu0_DTLB RFO       ACCESS:    3482206  HIT:    3478758  MISS:       3448
cpu0_DTLB PREFETCH  ACCESS:          0  HIT:          0  MISS:          0
cpu0_DTLB WRITEBACK ACCESS:          0  HIT:          0  MISS:          0
cpu0_ITLB TOTAL     ACCESS:    5860766  HIT:    5860766  MISS:          0
cpu0_ITLB LOAD      ACCESS:    5860766  HIT:    5860766  MISS:          0
cpu0_ITLB RFO       ACCESS:          0  HIT:          0  MISS:          0
cpu0_ITLB PREFETCH  ACCESS:          0  HIT:          0  MISS:          0
cpu0_ITLB WRITEBACK ACCESS:          0  HIT:          0  MISS:          0
cpu0_L1I TOTAL     ACCESS:    2766630  HIT:    2750892  MISS:      15738
cpu0_L1I LOAD      ACCESS:    2766630  HIT:    2750892  MISS:      15738
cpu0_L1I RFO       ACCESS:          0  HIT:          0  MISS:          0
cpu0_L1I PREFETCH  ACCESS:          0  HIT:          0  MISS:          0
cpu0_L1I WRITEBACK ACCESS:          0  HIT:          0  MISS:          0
cpu0_STLB TOTAL     ACCESS:      33466  HIT:      33338  MISS:        128
cpu0_STLB LOAD      ACCESS:      30018  HIT:      29893  MISS:        125
cpu0_STLB RFO       ACCESS:       3448  HIT:       3445  MISS:          3
cpu0_STLB PREFETCH  ACCESS:          0  HIT:          0  MISS:          0
cpu0_STLB WRITEBACK ACCESS:          0  HIT:          0  MISS:          0
cpu0_L1D TOTAL     ACCESS:   14139274  HIT:   14062802  MISS:      76472
cpu0_L1D LOAD      ACCESS:    7925718  HIT:    7866319  MISS:      59399
cpu0_L1D RFO       ACCESS:    6213428  HIT:    6196470  MISS:      16958
cpu0_L1D PREFETCH  ACCESS:          0  HIT:          0  MISS:          0
cpu0_L1D WRITEBACK ACCESS:          0  HIT:          0  MISS:          0
cpu0_L2C TOTAL     ACCESS:     119969  HIT:     119158  MISS:        811
cpu0_L2C LOAD      ACCESS:      75137  HIT:      74610  MISS:        527
cpu0_L2C RFO       ACCESS:      16943  HIT:      16660  MISS:        283
cpu0_L2C PREFETCH  ACCESS:          0  HIT:          0  MISS:          0
cpu0_L2C WRITEBACK ACCESS:      27774  HIT:      27773  MISS:          1
LLC TOTAL     ACCESS:        821  HIT:         44  MISS:        777
LLC LOAD      ACCESS:        527  HIT:         33  MISS:        494
LLC RFO       ACCESS:        283  HIT:          0  MISS:        283
LLC PREFETCH  ACCESS:          0  HIT:          0  MISS:          0
LLC WRITEBACK ACCESS:         11  HIT:         11  MISS:          0
Heartbeat CPU 0 instructions: 104000001 cycles: 67852318 heartbeat IPC: 0.980595 cumulative IPC: 0.98065 (Simulation time: 0 hr 37 min 38 sec) 

Region of Interest Statistics
cpu0_DTLB TOTAL     ACCESS:   11022227  HIT:   10987655  MISS:      34572
cpu0_DTLB LOAD      ACCESS:    7407585  HIT:    7376536  MISS:      31049
cpu0_DTLB RFO       ACCESS:    3614642  HIT:    3611119  MISS:       3523
cpu0_DTLB PREFETCH  ACCESS:          0  HIT:          0  MISS:          0
cpu0_DTLB WRITEBACK ACCESS:          0  HIT:          0  MISS:          0
cpu0_ITLB TOTAL     ACCESS:    6089751  HIT:    6089751  MISS:          0
cpu0_ITLB LOAD      ACCESS:    6089751  HIT:    6089751  MISS:          0
cpu0_ITLB RFO       ACCESS:          0  HIT:          0  MISS:          0
cpu0_ITLB PREFETCH  ACCESS:          0  HIT:          0  MISS:          0
cpu0_ITLB WRITEBACK ACCESS:          0  HIT:          0  MISS:          0
cpu0_L1I TOTAL     ACCESS:    2871631  HIT:    2855292  MISS:      16339
cpu0_L1I LOAD      ACCESS:    2871631  HIT:    2855292  MISS:      16339
cpu0_L1I RFO       ACCESS:          0  HIT:          0  MISS:          0
cpu0_L1I PREFETCH  ACCESS:          0  HIT:          0  MISS:          0
cpu0_L1I WRITEBACK ACCESS:          0  HIT:          0  MISS:          0
cpu0_STLB TOTAL     ACCESS:      34572  HIT:      34444  MISS:        128
cpu0_STLB LOAD      ACCESS:      31049  HIT:      30924  MISS:        125
cpu0_STLB RFO       ACCESS:       3523  HIT:       3520  MISS:          3
cpu0_STLB PREFETCH  ACCESS:          0  HIT:          0  MISS:          0
cpu0_STLB WRITEBACK ACCESS:          0  HIT:          0  MISS:          0
cpu0_L1D TOTAL     ACCESS:   14694439  HIT:   14616384  MISS:      78055
cpu0_L1D LOAD      ACCESS:    8236924  HIT:    8176211  MISS:      60713
cpu0_L1D RFO       ACCESS:    6457387  HIT:    6440160  MISS:      17227
cpu0_L1D PREFETCH  ACCESS:          0  HIT:          0  MISS:          0
cpu0_L1D WRITEBACK ACCESS:          0  HIT:          0  MISS:          0
cpu0_L2C TOTAL     ACCESS:     122588  HIT:     121770  MISS:        818
cpu0_L2C LOAD      ACCESS:      77052  HIT:      76518  MISS:        534
cpu0_L2C RFO       ACCESS:      17212  HIT:      16929  MISS:        283
cpu0_L2C PREFETCH  ACCESS:          0  HIT:          0  MISS:          0
cpu0_L2C WRITEBACK ACCESS:      28209  HIT:      28208  MISS:          1
LLC TOTAL     ACCESS:        828  HIT:         46  MISS:        782
LLC LOAD      ACCESS:        534  HIT:         35  MISS:        499
LLC RFO       ACCESS:        283  HIT:          0  MISS:        283
LLC PREFETCH  ACCESS:          0  HIT:          0  MISS:          0
LLC WRITEBACK ACCESS:         11  HIT:         11  MISS:          0
Heartbeat CPU 0 instructions: 106000002 cycles: 69911707 heartbeat IPC: 0.971162 cumulative IPC: 0.980308 (Simulation time: 0 hr 38 min 19 sec) 

Region of Interest Statistics
cpu0_DTLB TOTAL     ACCESS:   11437251  HIT:   11401511  MISS:      35740
cpu0_DTLB LOAD      ACCESS:    7689120  HIT:    7656987  MISS:      32133
cpu0_DTLB RFO       ACCESS:    3748131  HIT:    3744524  MISS:       3607
cpu0_DTLB PREFETCH  ACCESS:          0  HIT:          0  MISS:          0
cpu0_DTLB WRITEBACK ACCESS:          0  HIT:          0  MISS:          0
cpu0_ITLB TOTAL     ACCESS:    6318180  HIT:    6318180  MISS:          0
cpu0_ITLB LOAD      ACCESS:    6318180  HIT:    6318180  MISS:          0
cpu0_ITLB RFO       ACCESS:          0  HIT:          0  MISS:          0
cpu0_ITLB PREFETCH  ACCESS:          0  HIT:          0  MISS:          0
cpu0_ITLB WRITEBACK ACCESS:          0  HIT:          0  MISS:          0
cpu0_L1I TOTAL     ACCESS:    2979039  HIT:    2962062  MISS:      16977
cpu0_L1I LOAD      ACCESS:    2979039  HIT:    2962062  MISS:      16977
cpu0_L1I RFO       ACCESS:          0  HIT:          0  MISS:          0
cpu0_L1I PREFETCH  ACCESS:          0  HIT:          0  MISS:          0
cpu0_L1I WRITEBACK ACCESS:          0  HIT:          0  MISS:          0
cpu0_STLB TOTAL     ACCESS:      35740  HIT:      35608  MISS:        132
cpu0_STLB LOAD      ACCESS:      32133  HIT:      32004  MISS:        129
cpu0_STLB RFO       ACCESS:       3607  HIT:       3604  MISS:          3
cpu0_STLB PREFETCH  ACCESS:          0  HIT:          0  MISS:          0
cpu0_STLB WRITEBACK ACCESS:          0  HIT:          0  MISS:          0
cpu0_L1D TOTAL     ACCESS:   15250110  HIT:   15170281  MISS:      79829
cpu0_L1D LOAD      ACCESS:    8549300  HIT:    8487136  MISS:      62164
cpu0_L1D RFO       ACCESS:    6700678  HIT:    6683131  MISS:      17547
cpu0_L1D PREFETCH  ACCESS:          0  HIT:          0  MISS:          0
cpu0_L1D WRITEBACK ACCESS:          0  HIT:          0  MISS:          0
cpu0_L2C TOTAL     ACCESS:     125497  HIT:     124657  MISS:        840
cpu0_L2C LOAD      ACCESS:      79141  HIT:      78597  MISS:        544
cpu0_L2C RFO       ACCESS:      17532  HIT:      17237  MISS:        295
cpu0_L2C PREFETCH  ACCESS:          0  HIT:          0  MISS:          0
[...]

CPU 0 cumulative IPC: 0.938771 instructions: 1500000003 cycles: 1597833011
cpu0_DTLB TOTAL     ACCESS:  309138604  HIT:  308125489  MISS:    1013115
cpu0_DTLB LOAD      ACCESS:  206865631  HIT:  205967259  MISS:     898372
cpu0_DTLB RFO       ACCESS:  102272973  HIT:  102158230  MISS:     114743
cpu0_DTLB PREFETCH  ACCESS:          0  HIT:          0  MISS:          0
cpu0_DTLB WRITEBACK ACCESS:          0  HIT:          0  MISS:          0
cpu0_DTLB TRANSLATION ACCESS:          0  HIT:          0  MISS:          0
cpu0_DTLB PREFETCH  REQUESTED:          0  ISSUED:          0  USEFUL:          0  USELESS:          0
cpu0_DTLB AVERAGE MISS LATENCY: 9.27806 cycles
cpu0_ITLB TOTAL     ACCESS:  169034299  HIT:  169033916  MISS:        383
cpu0_ITLB LOAD      ACCESS:  169034299  HIT:  169033916  MISS:        383
cpu0_ITLB RFO       ACCESS:          0  HIT:          0  MISS:          0
cpu0_ITLB PREFETCH  ACCESS:          0  HIT:          0  MISS:          0
cpu0_ITLB WRITEBACK ACCESS:          0  HIT:          0  MISS:          0
cpu0_ITLB TRANSLATION ACCESS:          0  HIT:          0  MISS:          0
cpu0_ITLB PREFETCH  REQUESTED:          0  ISSUED:          0  USEFUL:          0  USELESS:          0
cpu0_ITLB AVERAGE MISS LATENCY: 39.7311 cycles
cpu0_L1I TOTAL     ACCESS:   80858289  HIT:   80380409  MISS:     477880
cpu0_L1I LOAD      ACCESS:   80858289  HIT:   80380409  MISS:     477880
cpu0_L1I RFO       ACCESS:          0  HIT:          0  MISS:          0
cpu0_L1I PREFETCH  ACCESS:          0  HIT:          0  MISS:          0
cpu0_L1I WRITEBACK ACCESS:          0  HIT:          0  MISS:          0
cpu0_L1I TRANSLATION ACCESS:          0  HIT:          0  MISS:          0
cpu0_L1I PREFETCH  REQUESTED:          0  ISSUED:          0  USEFUL:          0  USELESS:          0
cpu0_L1I AVERAGE MISS LATENCY: 14.4906 cycles
cpu0_STLB TOTAL     ACCESS:    1013498  HIT:    1010760  MISS:       2738
cpu0_STLB LOAD      ACCESS:     898755  HIT:     896723  MISS:       2032
cpu0_STLB RFO       ACCESS:     114743  HIT:     114037  MISS:        706
cpu0_STLB PREFETCH  ACCESS:          0  HIT:          0  MISS:          0
cpu0_STLB WRITEBACK ACCESS:          0  HIT:          0  MISS:          0
cpu0_STLB TRANSLATION ACCESS:          0  HIT:          0  MISS:          0
cpu0_STLB PREFETCH  REQUESTED:          0  ISSUED:          0  USEFUL:          0  USELESS:          0
cpu0_STLB AVERAGE MISS LATENCY: 107.001 cycles
cpu0_L1D TOTAL     ACCESS:  409052510  HIT:  406141330  MISS:    2911180
cpu0_L1D LOAD      ACCESS:  229855848  HIT:  227774355  MISS:    2081493
cpu0_L1D RFO       ACCESS:  179193929  HIT:  178365611  MISS:     828318
cpu0_L1D PREFETCH  ACCESS:          0  HIT:          0  MISS:          0
cpu0_L1D WRITEBACK ACCESS:          0  HIT:          0  MISS:          0
cpu0_L1D TRANSLATION ACCESS:       2733  HIT:       1364  MISS:       1369
cpu0_L1D PREFETCH  REQUESTED:          0  ISSUED:          0  USEFUL:          0  USELESS:          0
cpu0_L1D AVERAGE MISS LATENCY: 48.4449 cycles
cpu0_L2C TOTAL     ACCESS:    4515811  HIT:    3891646  MISS:     624165
cpu0_L2C LOAD      ACCESS:    2559344  HIT:    2227190  MISS:     332154
cpu0_L2C RFO       ACCESS:     827779  HIT:     536161  MISS:     291618
cpu0_L2C PREFETCH  ACCESS:          0  HIT:          0  MISS:          0
cpu0_L2C WRITEBACK ACCESS:    1127319  HIT:    1126977  MISS:        342
cpu0_L2C TRANSLATION ACCESS:       1369  HIT:       1318  MISS:         51
cpu0_L2C PREFETCH  REQUESTED:          0  ISSUED:          0  USEFUL:          0  USELESS:          0
cpu0_L2C AVERAGE MISS LATENCY: 177.303 cycles
LLC TOTAL     ACCESS:     941322  HIT:     526541  MISS:     414781
LLC LOAD      ACCESS:     332154  HIT:     121197  MISS:     210957
LLC RFO       ACCESS:     291618  HIT:      88136  MISS:     203482
LLC PREFETCH  ACCESS:          0  HIT:          0  MISS:          0
LLC WRITEBACK ACCESS:     317499  HIT:     317192  MISS:        307
LLC TRANSLATION ACCESS:         51  HIT:         16  MISS:         35
LLC PREFETCH  REQUESTED:          0  ISSUED:          0  USEFUL:          0  USELESS:          0
LLC AVERAGE MISS LATENCY: 235.222 cycles
~~~~~~~~~~Reuse Distance Profiler output~~~~~~~~~~
0	93965888	15680880
1	52477104	22831200
2	22436352	9181216
3	18355424	10909776
4	15122608	8682096
5	12634320	8094928
6	11702304	8053312
7	10474176	6818128
8	9375136	6158912
9	8346816	6278672
10	7767616	5989184
11	6772512	4967344
12	6722224	5218336
13	5764160	4541392
14	4987984	3921040
15	5005216	3538384
16	4938208	3642528
17	4033584	3137936
18	3648512	2904464
19	3108176	2381296
20	2974208	2324064
21	2529840	2053328
22	2164928	1823680
23	2177024	1704912
24	2143584	1643104
25	2043056	1766944
26	1813040	1514992
27	1584112	1268688
28	1428384	1150688
29	1345184	1105328
30	1359376	1144480
31	1383792	1166192
32	1376192	1103968
33	1572560	1166192
34	1441344	1151264
35	1207424	970080
36	1142032	874176
37	1096000	800896
38	1007760	737248
39	934192	681776
40	918768	687776
41	896496	668720
42	1110032	688960
43	897328	649888
44	865776	656864
45	815984	633744
46	778112	641744
47	753360	618848
48	720656	596224
49	701248	579584
50	668544	556352
51	663488	554720
52	680448	560160
53	689616	573888
54	689088	585248
55	678400	573408
56	700336	614640
57	675456	598336
58	642064	577680
59	610112	555856
60	610656	559280
61	598880	533056
62	629296	562816
63	624768	554768
64	1211280	1101088
66	1189024	1072560
68	1114848	999600
70	1077168	970896
72	1085120	982960
74	1014800	918992
76	937984	843440
78	860160	780352
80	850272	772784
82	801520	729504
84	767184	695248
86	755648	671264
88	710192	620864
90	700400	602400
92	679056	580704
94	651232	559008
96	604704	522192
98	561696	492912
100	540000	472784
102	504800	446656
104	500640	445104
106	454608	408208
108	445264	398224
110	428640	388864
112	417248	377760
114	411248	372192
116	402832	367280
118	376256	343632
120	362256	331024
122	363296	331824
124	349888	316656
126	336464	301520
128	647616	572576
132	619216	553888
136	578128	521440
140	549168	500048
144	535136	486768
148	523744	474912
152	500224	452608
156	475872	428352
160	452112	406976
164	433504	390320
168	427088	383216
172	404368	356224
176	376976	330848
180	354592	307248
184	350272	302000
188	359200	313312
192	334256	283936
196	321424	269952
200	326832	273392
204	319120	269616
208	322560	275328
212	290640	247376
216	280144	241792
220	258592	224192
224	284000	249200
228	327360	289808
232	310752	259936
236	277008	232592
240	270736	227968
244	309232	261872
248	270944	226400
252	254944	206032
256	462784	394560
264	425680	356416
272	439840	375360
280	444528	389664
288	402960	341408
296	352048	291056
304	309488	256848
312	326016	273488
320	307952	256352
328	280544	232832
336	320576	265584
344	256960	195680
352	220144	178624
360	206160	171920
368	202752	171504
376	194768	162288
384	206768	170592
392	211024	172640
400	199344	160896
408	187440	156544
416	176752	148512
424	170464	143616
432	175872	145808
440	174224	144768
448	170480	140384
456	180080	151312
464	160352	134480
472	150960	126656
480	149664	123056
488	155120	123264
496	147952	122800
504	138800	115040
512	272960	219696
528	280000	222112
544	270608	213776
560	276704	220624
576	284480	230048
592	273408	218384
608	272288	220512
624	266160	214688
640	261088	209488
656	252912	200720
672	243680	192208
688	226672	176688
704	221680	169408
720	207488	160112
736	197344	152624
752	183824	142704
768	174320	135920
784	159216	126160
800	149056	115328
816	145168	113104
832	134528	106240
848	135312	105312
864	120672	92352
880	113072	90128
896	107488	84960
912	106944	86704
928	97968	80576
944	96128	79552
960	91552	76400
976	85952	70352
992	85792	70112
1008	78896	64736
1024	153424	126832
1056	136896	114704
1088	131584	107696
1120	117936	94960
1152	105568	85680
1184	102416	82800
1216	100080	81856
1248	90976	73536
1280	89728	73696
1312	91040	75152
1344	85824	71632
1376	76720	63200
1408	70000	57488
1440	66608	54800
1472	63360	51984
1504	60368	44960
1536	61648	44944
1568	56496	42800
1600	52752	40896
1632	51632	38848
1664	49312	38752
1696	47872	38416
1728	51936	42768
1760	40592	31296
1792	41680	32656
1824	44560	35696
1856	45296	34512
1888	42320	33072
1920	38096	29664
1952	36720	28448
1984	41760	30624
2016	45472	29664
2048	122000	93520
2112	138224	93072
2176	88768	46592
2240	72752	46624
2304	103504	54224
2368	70320	39744
2432	63152	43456
2496	98336	74016
2560	189360	160544
2624	210880	193024
2688	83984	66624
2752	62608	36224
2816	56656	36816
2880	51008	35776
2944	56128	31984
3008	65472	26480
3072	46176	22384
3136	46512	19328
3200	39312	20960
3264	41792	24448
3328	41920	21952
3392	48208	30208
3456	73392	57104
3520	138064	119616
3584	127328	110608
3648	47840	33536
3712	29552	15120
3776	30160	16160
3840	39888	24336
3904	66288	52192
3968	119216	104688
4032	112128	96640
4096	81920	42144
4224	68896	31632
4352	120896	90512
4480	160208	132208
4608	85296	50704
4736	66352	33808
4864	126080	99456
4992	131856	107344
5120	57360	26448
5248	64032	39040
5376	110800	95488
5504	89856	71824
5632	70304	50768
5760	86160	67824
5888	82432	65376
6016	65008	46864
6144	64176	48048
6272	64688	49984
6400	56592	42912
6528	55488	42736
6656	56816	43936
6784	46144	32960
6912	45648	33344
7040	45648	34640
7168	34064	22000
7296	35088	25120
7424	34592	25552
7552	31040	21104
7680	34016	24656
7808	31328	22480
7936	25152	17200
8064	27248	19200
8192	44848	29152
8448	40608	28096
8704	33792	21904
8960	30480	20304
9216	26176	17712
9472	22512	14080
9728	20064	13200
9984	17152	11072
10240	16400	10336
10496	15952	10240
10752	12480	7936
11008	13264	8592
11264	11552	7712
11520	11296	7552
11776	10544	6896
12032	11984	8688
12288	13360	9328
12544	9280	6528
12800	10432	7456
13056	9904	6992
13312	11648	8496
13568	11680	8192
13824	12496	9136
14080	11216	8464
14336	13520	10064
14592	13168	10368
14848	14832	11568
15104	14624	11120
15360	17072	12864
15616	16160	12752
15872	15632	12768
16128	18784	14720
16384	36560	28432
16896	42992	33824
17408	52512	41680
17920	56352	44896
18432	67664	53712
18944	68048	54272
19456	74800	58656
19968	84384	66896
20480	94416	73536
20992	102480	81344
21504	109280	85136
22016	121712	94624
22528	127216	99760
23040	140432	106960
23552	166608	122048
24064	167600	127120
24576	160224	121520
25088	183040	136096
25600	191568	142560
26112	193936	142000
26624	205632	148768
27136	209408	155152
27648	225168	162096
28160	216512	159312
28672	222208	159376
29184	226656	163936
29696	224800	160912
30208	226208	159568
30720	213728	151520
31232	216384	148992
31744	219744	151936
32256	216192	148528
32768	386112	261904
33792	375024	257296
34816	327104	222064
35840	286000	192176
36864	242160	165168
37888	204272	135296
38912	174768	119616
39936	144672	99744
40960	105040	75600
41984	85744	60272
43008	69920	48400
44032	50368	35936
45056	49808	33360
46080	32640	23168
47104	24336	17008
48128	19376	14016
49152	19328	13680
50176	14448	11184
51200	10160	8160
52224	7728	5952
53248	9920	8144
54272	7744	6736
55296	9440	8656
56320	7040	5952
57344	6992	6496
58368	5920	5600
59392	6176	5840
60416	6928	6480
61440	6752	6464
62464	6880	6624
63488	5872	5616
64512	6736	6432
65536	12944	12400
67584	11968	11360
69632	11328	10784
71680	10048	9648
73728	9200	8704
75776	8992	8752
77824	8224	7904
79872	6768	6544
81920	6944	6592
83968	6032	5776
86016	6496	6304
88064	6176	5984
90112	6368	6144
92160	6704	6496
94208	7168	6976
96256	7328	7072
98304	6944	6528
100352	8512	8272
102400	8768	8464
104448	7728	7264
106496	7376	7152
108544	6800	6512
110592	6640	6384
112640	16624	16448
114688	25376	25152
116736	42624	42448
118784	39904	39600
120832	21760	21552
122880	7984	7584
124928	6544	6080
126976	4480	4144
129024	4432	4256
131072	10144	9504
135168	28672	7696
139264	36384	7248
143360	7664	7280
147456	6784	6592
151552	6368	6192
155648	6496	6240
159744	6208	6016
163840	6160	5904
167936	5152	4976
172032	5168	4960
176128	5472	5152
180224	9520	4848
184320	12240	5328
188416	13056	4384
192512	4592	4368
196608	4640	4384
200704	4720	4512
204800	4496	4304
208896	4368	4112
212992	3920	3760
217088	3904	3728
221184	3824	3712
225280	4608	4320
229376	4144	3920
233472	4528	4128
237568	4064	3744
241664	4000	3760
245760	4224	4064
249856	4048	3840
253952	19760	19504
258048	89856	39968
262144	6640	6368
270336	7296	6800
278528	5840	5568
286720	5536	5376
294912	21536	14160
303104	29248	17232
311296	5408	5216
319488	5056	4976
327680	4656	4480
335872	4720	4560
344064	4320	4256
352256	4048	3888
360448	4336	4256
368640	4304	4224
376832	3920	3888
385024	3504	3424
393216	3744	3632
401408	3424	3376
409600	3840	3728
417792	3424	3328
425984	3056	2960
434176	3408	3360
442368	2672	2640
450560	2640	2544
458752	3168	3120
466944	2720	2640
475136	2992	2864
483328	2608	2576
491520	2400	2384
499712	2432	2384
507904	2384	2368
516096	2608	2544
524288	4624	4592
540672	4480	4384
557056	4848	4736
573440	4672	4624
589824	4320	4240
606208	4512	4416
622592	4256	3936
638976	3600	3504
655360	3984	3904
671744	3952	3840
688128	3552	3520
704512	3648	3488
720896	3376	3344
737280	3088	3056
753664	3232	3184
770048	2720	2688
786432	3424	3328
802816	2800	2720
819200	2720	2720
835584	2896	2896
851968	2928	2864
868352	2352	2272
884736	2048	2032
901120	2224	2160
917504	2704	2656
933888	2336	2304
950272	2272	2256
966656	2480	2416
983040	1936	1888
999424	3024	2944
1015808	2016	2016
1032192	2352	2320
1048576	4320	4224
1081344	5104	4992
1114112	4560	4480
1146880	4992	4960
1179648	4608	4528
1212416	3968	3936
1245184	3648	3616
1277952	3920	3840
1310720	3696	3584
1343488	3744	3664
1376256	2864	2816
1409024	2400	2352
1441792	2224	2160
1474560	2416	2400
1507328	1824	1776
1540096	1760	1696
1572864	1808	1776
1605632	1632	1536
1638400	1888	1760
1671168	1456	1408
1703936	1232	1216
1736704	1344	1296
1769472	1296	1152
1802240	1328	1280
1835008	1360	1296
1867776	1360	1216
1900544	912	784
1933312	1552	1504
1966080	1104	1072
1998848	944	896
2031616	1104	1072
2064384	928	880
2097152	1904	1888
2162688	1280	1248
2228224	1968	1936
2293760	2880	2864
2359296	3504	3472
2424832	2896	2880
2490368	3328	3312
2555904	2240	2160
2621440	1616	1488
2686976	1616	1536
2752512	1632	1536
2818048	9824	912
2883584	4560	4528
2949120	7520	7520
3014656	1328	1328
3080192	1072	1040
3145728	1264	1264
3211264	736	736
3276800	1152	1104
3342336	752	736
3407872	832	816
3473408	1072	1072
3538944	864	832
3604480	672	656
3670016	880	816
3735552	960	896
3801088	672	640
3866624	720	640
3932160	480	464
3997696	560	544
4063232	608	560
4128768	432	400
4194304	992	960
4325376	912	912
4456448	944	880
4587520	640	608
4718592	752	752
4849664	1072	976
4980736	624	624
5111808	464	448
5242880	720	704
5373952	480	448
5505024	704	672
5636096	976	864
5767168	528	448
5898240	496	496
6029312	704	624
6160384	880	848
6291456	768	752
6422528	544	544
6553600	544	480
6684672	496	464
6815744	592	576
6946816	368	368
7077888	864	848
7208960	368	320
7340032	240	240
7471104	400	384
7602176	272	224
7733248	224	224
7864320	272	240
7995392	400	384
8126464	272	272
8257536	544	544
8388608	832	816
8650752	576	528
8912896	544	480
9175040	352	320
9437184	688	608
9699328	512	480
9961472	560	544
10223616	640	592
10485760	336	320
10747904	448	416
11010048	464	400
11272192	336	320
11534336	352	352
11796480	368	272
12058624	288	256
12320768	400	384
12582912	192	176
12845056	320	320
13107200	272	192
13369344	160	144
13631488	256	240
13893632	416	416
14155776	304	256
14417920	288	256
14680064	192	176
14942208	304	272
15204352	400	336
15466496	144	128
15728640	160	160
15990784	352	288
16252928	160	160
16515072	176	144
16777216	384	336
17301504	528	352
17825792	528	480
18350080	288	240
18874368	160	112
19398656	272	208
19922944	208	176
20447232	224	192
20971520	384	208
21495808	304	240
22020096	352	192
22544384	240	176
23068672	432	320
23592960	368	304
24117248	240	160
24641536	240	208
25165824	240	176
25690112	144	112
26214400	128	96
26738688	176	128
27262976	288	224
27787264	352	336
28311552	496	368
28835840	496	336
29360128	400	208
29884416	288	224
30408704	304	240
30932992	320	288
31457280	400	352
31981568	464	368
32505856	240	112
33030144	240	224
33554432	352	224
34603008	432	224
35651584	368	224
36700160	416	384
37748736	320	64
38797312	112	32
39845888	240	144
40894464	320	160
41943040	144	96
42991616	176	96
44040192	192	160
45088768	240	48
46137344	224	208
47185920	240	80
48234496	464	288
49283072	160	112
50331648	96	32
51380224	256	128
52428800	208	48
53477376	160	64
54525952	352	192
55574528	144	32
56623104	160	32
57671680	224	112
58720256	240	96
59768832	192	160
60817408	160	48
61865984	96	48
62914560	9744	32
63963136	49456	20448
65011712	60528	21104
66060288	20176	10448
67108864	1568	80
69206016	10192	128
71303168	16	16
73400320	64	64
75497472	32	32
77594624	128	128
79691776	288	288
81788928	1376	1360
83886080	336	336
85983232	240	240
88080384	80	80
90177536	208	208
92274688	256	256
94371840	160	160
96468992	32	32
98566144	64	64
100663296	80	80
102760448	32	32
104857600	128	128
106954752	64	48
109051904	64	64
111149056	32	16
113246208	16	16
115343360	80	80
117440512	0	0
119537664	48	48
121634816	112	112
123731968	80	80
125829120	64	64
127926272	0	0
130023424	80	80
132120576	1136	80
134217728	272	160
138412032	80	80
142606336	48	48
146800640	144	144
150994944	208	208
155189248	96	96
159383552	80	64
163577856	96	96
167772160	16	16
171966464	144	144
176160768	32	32
180355072	32	32
184549376	64	64
188743680	96	80
192937984	48	48
197132288	32	32
201326592	0	0
205520896	32	32
209715200	0	0
213909504	192	192
218103808	16	16
222298112	16	16
226492416	80	80
230686720	16	0
234881024	32	32
239075328	48	48
243269632	16	16
247463936	80	80
251658240	0	0
255852544	0	0
260046848	0	0
264241152	16	16
268435456	16	16
276824064	0	0
285212672	0	0
293601280	0	0
301989888	16	16
310378496	0	0
318767104	0	0
327155712	0	0
335544320	0	0
343932928	0	0
352321536	0	0
360710144	0	0
369098752	0	0
377487360	0	0
385875968	0	0
394264576	0	0
402653184	0	0
411041792	0	0
419430400	0	0
427819008	0	0
436207616	0	0
444596224	0	0
452984832	0	0
461373440	0	0
469762048	0	0
478150656	0	0
486539264	0	0
494927872	0	0
503316480	0	0
511705088	0	0
520093696	0	0
528482304	0	0
536870912	0	0
553648128	0	0
570425344	0	0
587202560	0	0
603979776	0	0
620756992	0	0
637534208	0	0
654311424	0	0
671088640	0	0
687865856	0	0
704643072	0	0
721420288	0	0
738197504	0	0
754974720	0	0
771751936	0	0
788529152	0	0
805306368	0	0
822083584	0	0
838860800	0	0
855638016	0	0
872415232	0	0
889192448	0	0
905969664	0	0
922746880	0	0
939524096	0	0
956301312	0	0
973078528	0	0
989855744	0	0
1006632960	0	0
1023410176	0	0
1040187392	0	0
1056964608	0	0
1073741824	0	0
1107296256	0	0
1140850688	0	0
1174405120	0	0
1207959552	0	0
1241513984	0	0
1275068416	0	0
1308622848	0	0
1342177280	0	0
1375731712	0	0
1409286144	0	0
1442840576	0	0
1476395008	0	0
1509949440	0	0
1543503872	0	0
1577058304	0	0
1610612736	0	0
1644167168	0	0
1677721600	0	0
1711276032	0	0
1744830464	0	0
1778384896	0	0
1811939328	0	0
1845493760	0	0
1879048192	0	0
1912602624	0	0
1946157056	0	0
1979711488	0	0
2013265920	0	0
2046820352	0	0
2080374784	0	0
2113929216	0	0
2147483648	0	0
2214592512	0	0
2281701376	0	0
2348810240	0	0
2415919104	0	0
2483027968	0	0
2550136832	0	0
2617245696	0	0
2684354560	0	0
2751463424	0	0
2818572288	0	0
2885681152	0	0
2952790016	0	0
3019898880	0	0
3087007744	0	0
3154116608	0	0
3221225472	0	0
3288334336	0	0
3355443200	0	0
3422552064	0	0
3489660928	0	0
3556769792	0	0
3623878656	0	0
3690987520	0	0
3758096384	0	0
3825205248	0	0
3892314112	0	0
3959422976	0	0
4026531840	0	0
4093640704	0	0
4160749568	0	0
4227858432	0	0
~~~~~~~~~~Reuse Distance Profiler output end~~~~~~~~~~

Sampler size:3041

DRAM Statistics
 CHANNEL 0
 RQ ROW_BUFFER_HIT:      25090  ROW_BUFFER_MISS:     388007
 DBUS AVG_CONGESTED_CYCLE:    3.95309
 WQ ROW_BUFFER_HIT:      27944  ROW_BUFFER_MISS:     196070  FULL:          0


CPU 0 Branch Prediction Accuracy: 86.2448% MPKI: 24.0067 Average ROB Occupancy at Mispredict: 20.167
Branch type MPKI
BRANCH_DIRECT_JUMP: 9.6e-05
BRANCH_INDIRECT: 0.00313867
BRANCH_CONDITIONAL: 24.0029
BRANCH_DIRECT_CALL: 0.000208
BRANCH_INDIRECT_CALL: 9.66667e-05
BRANCH_RETURN: 0.000242667

