
*** ChampSim Multicore Out-of-Order Simulator ***

Warmup Instructions: 50000000
Simulation Instructions: 1500000000
Number of CPUs: 1
Off-chip DRAM Size: 4 GiB Channels: 1 Width: 64-bit Data Rate: 3200 MT/s

VirtualMemory physical capacity: 8588881920 num_ppages: 2096895
VirtualMemory page size: 4096 log2_page_size: 12

CPU 0 runs /s/traces/champsim_traces/641.leela_s-1083B.champsimtrace.xz
CPU 0 Bimodal branch predictor
Basic BTB sets: 1024 ways: 8 indirect buffer size: 4096 RAS size: 64
Initializing LRU.
Initializing LRU.
Initializing LRU.
Initializing LRU.
Initializing rdLRU.
Initializing LRU.
Initializing LRU.
Heartbeat CPU 0 instructions: 2000000 cycles: 501549 heartbeat IPC: 3.98765 cumulative IPC: 3.98765 (Simulation time: 0 hr 1 min 4 sec) 
Heartbeat CPU 0 instructions: 4000000 cycles: 1003570 heartbeat IPC: 3.9839 cumulative IPC: 3.98577 (Simulation time: 0 hr 2 min 6 sec) 
Heartbeat CPU 0 instructions: 6000001 cycles: 1506283 heartbeat IPC: 3.97842 cumulative IPC: 3.98332 (Simulation time: 0 hr 3 min 7 sec) 
Heartbeat CPU 0 instructions: 8000002 cycles: 2008293 heartbeat IPC: 3.98399 cumulative IPC: 3.98348 (Simulation time: 0 hr 4 min 8 sec) 
Heartbeat CPU 0 instructions: 10000002 cycles: 2510303 heartbeat IPC: 3.98398 cumulative IPC: 3.98358 (Simulation time: 0 hr 5 min 9 sec) 
Heartbeat CPU 0 instructions: 12000002 cycles: 3012310 heartbeat IPC: 3.98401 cumulative IPC: 3.98365 (Simulation time: 0 hr 6 min 8 sec) 
Heartbeat CPU 0 instructions: 14000000 cycles: 3514320 heartbeat IPC: 3.98398 cumulative IPC: 3.9837 (Simulation time: 0 hr 7 min 4 sec) 
Heartbeat CPU 0 instructions: 16000003 cycles: 4016995 heartbeat IPC: 3.97872 cumulative IPC: 3.98308 (Simulation time: 0 hr 7 min 57 sec) 
Heartbeat CPU 0 instructions: 18000003 cycles: 4519088 heartbeat IPC: 3.98333 cumulative IPC: 3.98311 (Simulation time: 0 hr 8 min 55 sec) 
Heartbeat CPU 0 instructions: 20000003 cycles: 5020425 heartbeat IPC: 3.98933 cumulative IPC: 3.98373 (Simulation time: 0 hr 9 min 49 sec) 
Heartbeat CPU 0 instructions: 22000000 cycles: 5522434 heartbeat IPC: 3.98399 cumulative IPC: 3.98375 (Simulation time: 0 hr 10 min 45 sec) 
Heartbeat CPU 0 instructions: 24000003 cycles: 6025115 heartbeat IPC: 3.97867 cumulative IPC: 3.98333 (Simulation time: 0 hr 11 min 40 sec) 
Heartbeat CPU 0 instructions: 26000003 cycles: 6527178 heartbeat IPC: 3.98356 cumulative IPC: 3.98335 (Simulation time: 0 hr 12 min 36 sec) 
Heartbeat CPU 0 instructions: 28000000 cycles: 7029187 heartbeat IPC: 3.98399 cumulative IPC: 3.98339 (Simulation time: 0 hr 13 min 26 sec) 
Heartbeat CPU 0 instructions: 30000000 cycles: 7531197 heartbeat IPC: 3.98398 cumulative IPC: 3.98343 (Simulation time: 0 hr 14 min 16 sec) 
Heartbeat CPU 0 instructions: 32000001 cycles: 8033217 heartbeat IPC: 3.98391 cumulative IPC: 3.98346 (Simulation time: 0 hr 15 min 11 sec) 
Heartbeat CPU 0 instructions: 34000003 cycles: 8534558 heartbeat IPC: 3.9893 cumulative IPC: 3.9838 (Simulation time: 0 hr 16 min 1 sec) 
Heartbeat CPU 0 instructions: 36000002 cycles: 9037237 heartbeat IPC: 3.97868 cumulative IPC: 3.98352 (Simulation time: 0 hr 16 min 55 sec) 
Heartbeat CPU 0 instructions: 38000000 cycles: 9538576 heartbeat IPC: 3.98931 cumulative IPC: 3.98382 (Simulation time: 0 hr 17 min 44 sec) 
Heartbeat CPU 0 instructions: 40000002 cycles: 10040583 heartbeat IPC: 3.98401 cumulative IPC: 3.98383 (Simulation time: 0 hr 18 min 39 sec) 
Heartbeat CPU 0 instructions: 42000001 cycles: 10542593 heartbeat IPC: 3.98398 cumulative IPC: 3.98384 (Simulation time: 0 hr 19 min 36 sec) 
Heartbeat CPU 0 instructions: 44000001 cycles: 11044652 heartbeat IPC: 3.9836 cumulative IPC: 3.98383 (Simulation time: 0 hr 20 min 26 sec) 
Heartbeat CPU 0 instructions: 46000002 cycles: 11546026 heartbeat IPC: 3.98904 cumulative IPC: 3.98406 (Simulation time: 0 hr 21 min 22 sec) 
Heartbeat CPU 0 instructions: 48000000 cycles: 12048734 heartbeat IPC: 3.97845 cumulative IPC: 3.98382 (Simulation time: 0 hr 22 min 16 sec) 
Heartbeat CPU 0 instructions: 50000000 cycles: 12550756 heartbeat IPC: 3.98389 cumulative IPC: 3.98382 (Simulation time: 0 hr 23 min 9 sec) 

Warmup complete CPU 0 instructions: 50000004 cycles: 12550757 (Simulation time: 0 hr 23 min 9 sec) 

Heartbeat CPU 0 instructions: 52000002 cycles: 14553190 heartbeat IPC: 0.998785 cumulative IPC: 0.998784 (Simulation time: 0 hr 24 min 5 sec) 

Region of Interest Statistics
cpu0_DTLB TOTAL     ACCESS:     389815  HIT:     388916  MISS:        899
cpu0_DTLB LOAD      ACCESS:     274021  HIT:     273160  MISS:        861
cpu0_DTLB RFO       ACCESS:     115794  HIT:     115756  MISS:         38
cpu0_DTLB PREFETCH  ACCESS:          0  HIT:          0  MISS:          0
cpu0_DTLB WRITEBACK ACCESS:          0  HIT:          0  MISS:          0
cpu0_ITLB TOTAL     ACCESS:     221777  HIT:     221777  MISS:          0
cpu0_ITLB LOAD      ACCESS:     221777  HIT:     221777  MISS:          0
cpu0_ITLB RFO       ACCESS:          0  HIT:          0  MISS:          0
cpu0_ITLB PREFETCH  ACCESS:          0  HIT:          0  MISS:          0
cpu0_ITLB WRITEBACK ACCESS:          0  HIT:          0  MISS:          0
cpu0_L1I TOTAL     ACCESS:     122737  HIT:     122629  MISS:        108
cpu0_L1I LOAD      ACCESS:     122737  HIT:     122629  MISS:        108
cpu0_L1I RFO       ACCESS:          0  HIT:          0  MISS:          0
cpu0_L1I PREFETCH  ACCESS:          0  HIT:          0  MISS:          0
cpu0_L1I WRITEBACK ACCESS:          0  HIT:          0  MISS:          0
cpu0_STLB TOTAL     ACCESS:        899  HIT:        892  MISS:          7
cpu0_STLB LOAD      ACCESS:        861  HIT:        854  MISS:          7
cpu0_STLB RFO       ACCESS:         38  HIT:         38  MISS:          0
cpu0_STLB PREFETCH  ACCESS:          0  HIT:          0  MISS:          0
cpu0_STLB WRITEBACK ACCESS:          0  HIT:          0  MISS:          0
cpu0_L1D TOTAL     ACCESS:     531456  HIT:     525489  MISS:       5967
cpu0_L1D LOAD      ACCESS:     311848  HIT:     306641  MISS:       5207
cpu0_L1D RFO       ACCESS:     219601  HIT:     218844  MISS:        757
cpu0_L1D PREFETCH  ACCESS:          0  HIT:          0  MISS:          0
cpu0_L1D WRITEBACK ACCESS:          0  HIT:          0  MISS:          0
cpu0_L2C TOTAL     ACCESS:       7481  HIT:       7249  MISS:        232
cpu0_L2C LOAD      ACCESS:       5315  HIT:       5084  MISS:        231
cpu0_L2C RFO       ACCESS:        757  HIT:        756  MISS:          1
cpu0_L2C PREFETCH  ACCESS:          0  HIT:          0  MISS:          0
cpu0_L2C WRITEBACK ACCESS:       1406  HIT:       1406  MISS:          0
LLC TOTAL     ACCESS:        245  HIT:         58  MISS:        187
LLC LOAD      ACCESS:        231  HIT:         44  MISS:        187
LLC RFO       ACCESS:          1  HIT:          1  MISS:          0
LLC PREFETCH  ACCESS:          0  HIT:          0  MISS:          0
LLC WRITEBACK ACCESS:         13  HIT:         13  MISS:          0
Heartbeat CPU 0 instructions: 54000000 cycles: 16528734 heartbeat IPC: 1.01238 cumulative IPC: 1.00554 (Simulation time: 0 hr 25 min 1 sec) 

Region of Interest Statistics
cpu0_DTLB TOTAL     ACCESS:     778845  HIT:     777079  MISS:       1766
cpu0_DTLB LOAD      ACCESS:     544256  HIT:     542581  MISS:       1675
cpu0_DTLB RFO       ACCESS:     234589  HIT:     234498  MISS:         91
cpu0_DTLB PREFETCH  ACCESS:          0  HIT:          0  MISS:          0
cpu0_DTLB WRITEBACK ACCESS:          0  HIT:          0  MISS:          0
cpu0_ITLB TOTAL     ACCESS:     439960  HIT:     439960  MISS:          0
cpu0_ITLB LOAD      ACCESS:     439960  HIT:     439960  MISS:          0
cpu0_ITLB RFO       ACCESS:          0  HIT:          0  MISS:          0
cpu0_ITLB PREFETCH  ACCESS:          0  HIT:          0  MISS:          0
cpu0_ITLB WRITEBACK ACCESS:          0  HIT:          0  MISS:          0
cpu0_L1I TOTAL     ACCESS:     253250  HIT:     253046  MISS:        204
cpu0_L1I LOAD      ACCESS:     253250  HIT:     253046  MISS:        204
cpu0_L1I RFO       ACCESS:          0  HIT:          0  MISS:          0
cpu0_L1I PREFETCH  ACCESS:          0  HIT:          0  MISS:          0
cpu0_L1I WRITEBACK ACCESS:          0  HIT:          0  MISS:          0
cpu0_STLB TOTAL     ACCESS:       1766  HIT:       1748  MISS:         18
cpu0_STLB LOAD      ACCESS:       1675  HIT:       1658  MISS:         17
cpu0_STLB RFO       ACCESS:         91  HIT:         90  MISS:          1
cpu0_STLB PREFETCH  ACCESS:          0  HIT:          0  MISS:          0
cpu0_STLB WRITEBACK ACCESS:          0  HIT:          0  MISS:          0
cpu0_L1D TOTAL     ACCESS:    1067686  HIT:    1056617  MISS:      11069
cpu0_L1D LOAD      ACCESS:     619375  HIT:     609842  MISS:       9533
cpu0_L1D RFO       ACCESS:     448293  HIT:     446766  MISS:       1527
cpu0_L1D PREFETCH  ACCESS:          0  HIT:          0  MISS:          0
cpu0_L1D WRITEBACK ACCESS:          0  HIT:          0  MISS:          0
cpu0_L2C TOTAL     ACCESS:      13819  HIT:      13225  MISS:        594
cpu0_L2C LOAD      ACCESS:       9737  HIT:       9267  MISS:        470
cpu0_L2C RFO       ACCESS:       1527  HIT:       1403  MISS:        124
cpu0_L2C PREFETCH  ACCESS:          0  HIT:          0  MISS:          0
cpu0_L2C WRITEBACK ACCESS:       2546  HIT:       2546  MISS:          0
LLC TOTAL     ACCESS:        629  HIT:        125  MISS:        504
LLC LOAD      ACCESS:        470  HIT:         87  MISS:        383
LLC RFO       ACCESS:        124  HIT:          3  MISS:        121
LLC PREFETCH  ACCESS:          0  HIT:          0  MISS:          0
LLC WRITEBACK ACCESS:         35  HIT:         35  MISS:          0
Heartbeat CPU 0 instructions: 56000001 cycles: 18545232 heartbeat IPC: 0.991819 cumulative IPC: 1.00092 (Simulation time: 0 hr 25 min 57 sec) 

Region of Interest Statistics
cpu0_DTLB TOTAL     ACCESS:    1174882  HIT:    1172253  MISS:       2629
cpu0_DTLB LOAD      ACCESS:     822689  HIT:     820185  MISS:       2504
cpu0_DTLB RFO       ACCESS:     352193  HIT:     352068  MISS:        125
cpu0_DTLB PREFETCH  ACCESS:          0  HIT:          0  MISS:          0
cpu0_DTLB WRITEBACK ACCESS:          0  HIT:          0  MISS:          0
cpu0_ITLB TOTAL     ACCESS:     663806  HIT:     663806  MISS:          0
cpu0_ITLB LOAD      ACCESS:     663806  HIT:     663806  MISS:          0
cpu0_ITLB RFO       ACCESS:          0  HIT:          0  MISS:          0
cpu0_ITLB PREFETCH  ACCESS:          0  HIT:          0  MISS:          0
cpu0_ITLB WRITEBACK ACCESS:          0  HIT:          0  MISS:          0
cpu0_L1I TOTAL     ACCESS:     376048  HIT:     375749  MISS:        299
cpu0_L1I LOAD      ACCESS:     376048  HIT:     375749  MISS:        299
cpu0_L1I RFO       ACCESS:          0  HIT:          0  MISS:          0
cpu0_L1I PREFETCH  ACCESS:          0  HIT:          0  MISS:          0
cpu0_L1I WRITEBACK ACCESS:          0  HIT:          0  MISS:          0
cpu0_STLB TOTAL     ACCESS:       2629  HIT:       2607  MISS:         22
cpu0_STLB LOAD      ACCESS:       2504  HIT:       2485  MISS:         19
cpu0_STLB RFO       ACCESS:        125  HIT:        122  MISS:          3
cpu0_STLB PREFETCH  ACCESS:          0  HIT:          0  MISS:          0
cpu0_STLB WRITEBACK ACCESS:          0  HIT:          0  MISS:          0
cpu0_L1D TOTAL     ACCESS:    1606828  HIT:    1590815  MISS:      16013
cpu0_L1D LOAD      ACCESS:     936467  HIT:     922591  MISS:      13876
cpu0_L1D RFO       ACCESS:     670340  HIT:     668215  MISS:       2125
cpu0_L1D PREFETCH  ACCESS:          0  HIT:          0  MISS:          0
cpu0_L1D WRITEBACK ACCESS:          0  HIT:          0  MISS:          0
cpu0_L2C TOTAL     ACCESS:      20082  HIT:      19405  MISS:        677
cpu0_L2C LOAD      ACCESS:      14175  HIT:      13648  MISS:        527
cpu0_L2C RFO       ACCESS:       2125  HIT:       1975  MISS:        150
cpu0_L2C PREFETCH  ACCESS:          0  HIT:          0  MISS:          0
cpu0_L2C WRITEBACK ACCESS:       3770  HIT:       3770  MISS:          0
LLC TOTAL     ACCESS:        715  HIT:        164  MISS:        551
LLC LOAD      ACCESS:        527  HIT:        123  MISS:        404
LLC RFO       ACCESS:        150  HIT:          3  MISS:        147
LLC PREFETCH  ACCESS:          0  HIT:          0  MISS:          0
LLC WRITEBACK ACCESS:         38  HIT:         38  MISS:          0
Heartbeat CPU 0 instructions: 58000001 cycles: 20508617 heartbeat IPC: 1.01865 cumulative IPC: 1.0053 (Simulation time: 0 hr 26 min 54 sec) 

Region of Interest Statistics
cpu0_DTLB TOTAL     ACCESS:    1565712  HIT:    1562200  MISS:       3512
cpu0_DTLB LOAD      ACCESS:    1097060  HIT:    1093706  MISS:       3354
cpu0_DTLB RFO       ACCESS:     468652  HIT:     468494  MISS:        158
cpu0_DTLB PREFETCH  ACCESS:          0  HIT:          0  MISS:          0
cpu0_DTLB WRITEBACK ACCESS:          0  HIT:          0  MISS:          0
cpu0_ITLB TOTAL     ACCESS:     885877  HIT:     885877  MISS:          0
cpu0_ITLB LOAD      ACCESS:     885877  HIT:     885877  MISS:          0
cpu0_ITLB RFO       ACCESS:          0  HIT:          0  MISS:          0
cpu0_ITLB PREFETCH  ACCESS:          0  HIT:          0  MISS:          0
cpu0_ITLB WRITEBACK ACCESS:          0  HIT:          0  MISS:          0
cpu0_L1I TOTAL     ACCESS:     498301  HIT:     497911  MISS:        390
cpu0_L1I LOAD      ACCESS:     498301  HIT:     497911  MISS:        390
cpu0_L1I RFO       ACCESS:          0  HIT:          0  MISS:          0
cpu0_L1I PREFETCH  ACCESS:          0  HIT:          0  MISS:          0
cpu0_L1I WRITEBACK ACCESS:          0  HIT:          0  MISS:          0
cpu0_STLB TOTAL     ACCESS:       3512  HIT:       3488  MISS:         24
cpu0_STLB LOAD      ACCESS:       3354  HIT:       3333  MISS:         21
cpu0_STLB RFO       ACCESS:        158  HIT:        155  MISS:          3
cpu0_STLB PREFETCH  ACCESS:          0  HIT:          0  MISS:          0
cpu0_STLB WRITEBACK ACCESS:          0  HIT:          0  MISS:          0
cpu0_L1D TOTAL     ACCESS:    2140627  HIT:    2119487  MISS:      21140
cpu0_L1D LOAD      ACCESS:    1248530  HIT:    1230133  MISS:      18397
cpu0_L1D RFO       ACCESS:     892074  HIT:     889344  MISS:       2730
cpu0_L1D PREFETCH  ACCESS:          0  HIT:          0  MISS:          0
cpu0_L1D WRITEBACK ACCESS:          0  HIT:          0  MISS:          0
cpu0_L2C TOTAL     ACCESS:      26455  HIT:      25582  MISS:        873
cpu0_L2C LOAD      ACCESS:      18787  HIT:      18064  MISS:        723
cpu0_L2C RFO       ACCESS:       2730  HIT:       2580  MISS:        150
cpu0_L2C PREFETCH  ACCESS:          0  HIT:          0  MISS:          0
cpu0_L2C WRITEBACK ACCESS:       4925  HIT:       4925  MISS:          0
LLC TOTAL     ACCESS:        922  HIT:        186  MISS:        736
LLC LOAD      ACCESS:        723  HIT:        134  MISS:        589
LLC RFO       ACCESS:        150  HIT:          3  MISS:        147
LLC PREFETCH  ACCESS:          0  HIT:          0  MISS:          0
LLC WRITEBACK ACCESS:         49  HIT:         49  MISS:          0
Heartbeat CPU 0 instructions: 60000003 cycles: 22476397 heartbeat IPC: 1.01637 cumulative IPC: 1.00749 (Simulation time: 0 hr 27 min 48 sec) 

Region of Interest Statistics
cpu0_DTLB TOTAL     ACCESS:    1958186  HIT:    1953821  MISS:       4365
cpu0_DTLB LOAD      ACCESS:    1371954  HIT:    1367784  MISS:       4170
cpu0_DTLB RFO       ACCESS:     586232  HIT:     586037  MISS:        195
cpu0_DTLB PREFETCH  ACCESS:          0  HIT:          0  MISS:          0
cpu0_DTLB WRITEBACK ACCESS:          0  HIT:          0  MISS:          0
cpu0_ITLB TOTAL     ACCESS:    1108628  HIT:    1108628  MISS:          0
cpu0_ITLB LOAD      ACCESS:    1108628  HIT:    1108628  MISS:          0
cpu0_ITLB RFO       ACCESS:          0  HIT:          0  MISS:          0
cpu0_ITLB PREFETCH  ACCESS:          0  HIT:          0  MISS:          0
cpu0_ITLB WRITEBACK ACCESS:          0  HIT:          0  MISS:          0
cpu0_L1I TOTAL     ACCESS:     620957  HIT:     620477  MISS:        480
cpu0_L1I LOAD      ACCESS:     620957  HIT:     620477  MISS:        480
cpu0_L1I RFO       ACCESS:          0  HIT:          0  MISS:          0
cpu0_L1I PREFETCH  ACCESS:          0  HIT:          0  MISS:          0
cpu0_L1I WRITEBACK ACCESS:          0  HIT:          0  MISS:          0
cpu0_STLB TOTAL     ACCESS:       4365  HIT:       4341  MISS:         24
cpu0_STLB LOAD      ACCESS:       4170  HIT:       4149  MISS:         21
cpu0_STLB RFO       ACCESS:        195  HIT:        192  MISS:          3
cpu0_STLB PREFETCH  ACCESS:          0  HIT:          0  MISS:          0
cpu0_STLB WRITEBACK ACCESS:          0  HIT:          0  MISS:          0
cpu0_L1D TOTAL     ACCESS:    2678511  HIT:    2652613  MISS:      25898
cpu0_L1D LOAD      ACCESS:    1561522  HIT:    1538920  MISS:      22602
cpu0_L1D RFO       ACCESS:    1116966  HIT:    1113683  MISS:       3283
cpu0_L1D PREFETCH  ACCESS:          0  HIT:          0  MISS:          0
cpu0_L1D WRITEBACK ACCESS:          0  HIT:          0  MISS:          0
cpu0_L2C TOTAL     ACCESS:      32349  HIT:      31436  MISS:        913
cpu0_L2C LOAD      ACCESS:      23082  HIT:      22320  MISS:        762
cpu0_L2C RFO       ACCESS:       3283  HIT:       3132  MISS:        151
cpu0_L2C PREFETCH  ACCESS:          0  HIT:          0  MISS:          0
cpu0_L2C WRITEBACK ACCESS:       5971  HIT:       5971  MISS:          0
LLC TOTAL     ACCESS:        969  HIT:        222  MISS:        747
LLC LOAD      ACCESS:        762  HIT:        162  MISS:        600
LLC RFO       ACCESS:        151  HIT:          4  MISS:        147
LLC PREFETCH  ACCESS:          0  HIT:          0  MISS:          0
LLC WRITEBACK ACCESS:         56  HIT:         56  MISS:          0
Heartbeat CPU 0 instructions: 62000002 cycles: 24408508 heartbeat IPC: 1.03514 cumulative IPC: 1.012 (Simulation time: 0 hr 28 min 42 sec) 

Region of Interest Statistics
cpu0_DTLB TOTAL     ACCESS:    2341546  HIT:    2336259  MISS:       5287
cpu0_DTLB LOAD      ACCESS:    1637867  HIT:    1632818  MISS:       5049
cpu0_DTLB RFO       ACCESS:     703679  HIT:     703441  MISS:        238
cpu0_DTLB PREFETCH  ACCESS:          0  HIT:          0  MISS:          0
cpu0_DTLB WRITEBACK ACCESS:          0  HIT:          0  MISS:          0
cpu0_ITLB TOTAL     ACCESS:    1327651  HIT:    1327651  MISS:          0
cpu0_ITLB LOAD      ACCESS:    1327651  HIT:    1327651  MISS:          0
cpu0_ITLB RFO       ACCESS:          0  HIT:          0  MISS:          0
cpu0_ITLB PREFETCH  ACCESS:          0  HIT:          0  MISS:          0
cpu0_ITLB WRITEBACK ACCESS:          0  HIT:          0  MISS:          0
cpu0_L1I TOTAL     ACCESS:     746957  HIT:     746386  MISS:        571
cpu0_L1I LOAD      ACCESS:     746957  HIT:     746386  MISS:        571
cpu0_L1I RFO       ACCESS:          0  HIT:          0  MISS:          0
cpu0_L1I PREFETCH  ACCESS:          0  HIT:          0  MISS:          0
cpu0_L1I WRITEBACK ACCESS:          0  HIT:          0  MISS:          0
cpu0_STLB TOTAL     ACCESS:       5287  HIT:       5262  MISS:         25
cpu0_STLB LOAD      ACCESS:       5049  HIT:       5027  MISS:         22
cpu0_STLB RFO       ACCESS:        238  HIT:        235  MISS:          3
cpu0_STLB PREFETCH  ACCESS:          0  HIT:          0  MISS:          0
cpu0_STLB WRITEBACK ACCESS:          0  HIT:          0  MISS:          0
cpu0_L1D TOTAL     ACCESS:    3206403  HIT:    3174465  MISS:      31938
cpu0_L1D LOAD      ACCESS:    1863927  HIT:    1835975  MISS:      27952
cpu0_L1D RFO       ACCESS:    1342452  HIT:    1338480  MISS:       3972
cpu0_L1D PREFETCH  ACCESS:          0  HIT:          0  MISS:          0
cpu0_L1D WRITEBACK ACCESS:          0  HIT:          0  MISS:          0
cpu0_L2C TOTAL     ACCESS:      39757  HIT:      38685  MISS:       1072
cpu0_L2C LOAD      ACCESS:      28523  HIT:      27604  MISS:        919
cpu0_L2C RFO       ACCESS:       3972  HIT:       3820  MISS:        152
cpu0_L2C PREFETCH  ACCESS:          0  HIT:          0  MISS:          0
cpu0_L2C WRITEBACK ACCESS:       7248  HIT:       7248  MISS:          0
LLC TOTAL     ACCESS:       1165  HIT:        400  MISS:        765
LLC LOAD      ACCESS:        919  HIT:        302  MISS:        617
LLC RFO       ACCESS:        152  HIT:          4  MISS:        148
LLC PREFETCH  ACCESS:          0  HIT:          0  MISS:          0
LLC WRITEBACK ACCESS:         93  HIT:         93  MISS:          0
Heartbeat CPU 0 instructions: 64000002 cycles: 26401318 heartbeat IPC: 1.00361 cumulative IPC: 1.01079 (Simulation time: 0 hr 29 min 36 sec) 

Region of Interest Statistics
cpu0_DTLB TOTAL     ACCESS:    2736241  HIT:    2730102  MISS:       6139
cpu0_DTLB LOAD      ACCESS:    1913461  HIT:    1907591  MISS:       5870
cpu0_DTLB RFO       ACCESS:     822780  HIT:     822511  MISS:        269
cpu0_DTLB PREFETCH  ACCESS:          0  HIT:          0  MISS:          0
cpu0_DTLB WRITEBACK ACCESS:          0  HIT:          0  MISS:          0
cpu0_ITLB TOTAL     ACCESS:    1553016  HIT:    1553016  MISS:          0
cpu0_ITLB LOAD      ACCESS:    1553016  HIT:    1553016  MISS:          0
cpu0_ITLB RFO       ACCESS:          0  HIT:          0  MISS:          0
cpu0_ITLB PREFETCH  ACCESS:          0  HIT:          0  MISS:          0
cpu0_ITLB WRITEBACK ACCESS:          0  HIT:          0  MISS:          0
cpu0_L1I TOTAL     ACCESS:     872811  HIT:     872150  MISS:        661
cpu0_L1I LOAD      ACCESS:     872811  HIT:     872150  MISS:        661
cpu0_L1I RFO       ACCESS:          0  HIT:          0  MISS:          0
cpu0_L1I PREFETCH  ACCESS:          0  HIT:          0  MISS:          0
cpu0_L1I WRITEBACK ACCESS:          0  HIT:          0  MISS:          0
cpu0_STLB TOTAL     ACCESS:       6139  HIT:       6113  MISS:         26
cpu0_STLB LOAD      ACCESS:       5870  HIT:       5847  MISS:         23
cpu0_STLB RFO       ACCESS:        269  HIT:        266  MISS:          3
cpu0_STLB PREFETCH  ACCESS:          0  HIT:          0  MISS:          0
cpu0_STLB WRITEBACK ACCESS:          0  HIT:          0  MISS:          0
cpu0_L1D TOTAL     ACCESS:    3749813  HIT:    3713329  MISS:      36484
cpu0_L1D LOAD      ACCESS:    2178603  HIT:    2146594  MISS:      32009
cpu0_L1D RFO       ACCESS:    1571185  HIT:    1566725  MISS:       4460
cpu0_L1D PREFETCH  ACCESS:          0  HIT:          0  MISS:          0
cpu0_L1D WRITEBACK ACCESS:          0  HIT:          0  MISS:          0
cpu0_L2C TOTAL     ACCESS:      45326  HIT:      44095  MISS:       1231
cpu0_L2C LOAD      ACCESS:      32670  HIT:      31593  MISS:       1077
cpu0_L2C RFO       ACCESS:       4460  HIT:       4307  MISS:        153
cpu0_L2C PREFETCH  ACCESS:          0  HIT:          0  MISS:          0
cpu0_L2C WRITEBACK ACCESS:       8181  HIT:       8181  MISS:          0
LLC TOTAL     ACCESS:       1349  HIT:        572  MISS:        777
LLC LOAD      ACCESS:       1077  HIT:        449  MISS:        628
LLC RFO       ACCESS:        153  HIT:          4  MISS:        149
LLC PREFETCH  ACCESS:          0  HIT:          0  MISS:          0
LLC WRITEBACK ACCESS:        118  HIT:        118  MISS:          0
Heartbeat CPU 0 instructions: 66000001 cycles: 28336158 heartbeat IPC: 1.03368 cumulative IPC: 1.01359 (Simulation time: 0 hr 30 min 30 sec) 

Region of Interest Statistics
cpu0_DTLB TOTAL     ACCESS:    3124813  HIT:    3117815  MISS:       6998
cpu0_DTLB LOAD      ACCESS:    2184784  HIT:    2178090  MISS:       6694
cpu0_DTLB RFO       ACCESS:     940029  HIT:     939725  MISS:        304
cpu0_DTLB PREFETCH  ACCESS:          0  HIT:          0  MISS:          0
cpu0_DTLB WRITEBACK ACCESS:          0  HIT:          0  MISS:          0
cpu0_ITLB TOTAL     ACCESS:    1773189  HIT:    1773189  MISS:          0
cpu0_ITLB LOAD      ACCESS:    1773189  HIT:    1773189  MISS:          0
cpu0_ITLB RFO       ACCESS:          0  HIT:          0  MISS:          0
cpu0_ITLB PREFETCH  ACCESS:          0  HIT:          0  MISS:          0
cpu0_ITLB WRITEBACK ACCESS:          0  HIT:          0  MISS:          0
cpu0_L1I TOTAL     ACCESS:     996126  HIT:     995374  MISS:        752
cpu0_L1I LOAD      ACCESS:     996126  HIT:     995374  MISS:        752
cpu0_L1I RFO       ACCESS:          0  HIT:          0  MISS:          0
cpu0_L1I PREFETCH  ACCESS:          0  HIT:          0  MISS:          0
cpu0_L1I WRITEBACK ACCESS:          0  HIT:          0  MISS:          0
cpu0_STLB TOTAL     ACCESS:       6998  HIT:       6971  MISS:         27
cpu0_STLB LOAD      ACCESS:       6694  HIT:       6670  MISS:         24
cpu0_STLB RFO       ACCESS:        304  HIT:        301  MISS:          3
cpu0_STLB PREFETCH  ACCESS:          0  HIT:          0  MISS:          0
cpu0_STLB WRITEBACK ACCESS:          0  HIT:          0  MISS:          0
cpu0_L1D TOTAL     ACCESS:    4283408  HIT:    4241898  MISS:      41510
cpu0_L1D LOAD      ACCESS:    2487704  HIT:    2451226  MISS:      36478
cpu0_L1D RFO       ACCESS:    1795678  HIT:    1790662  MISS:       5016
cpu0_L1D PREFETCH  ACCESS:          0  HIT:          0  MISS:          0
cpu0_L1D WRITEBACK ACCESS:          0  HIT:          0  MISS:          0
cpu0_L2C TOTAL     ACCESS:      51549  HIT:      50266  MISS:       1283
cpu0_L2C LOAD      ACCESS:      37230  HIT:      36101  MISS:       1129
cpu0_L2C RFO       ACCESS:       5016  HIT:       4863  MISS:        153
cpu0_L2C PREFETCH  ACCESS:          0  HIT:          0  MISS:          0
cpu0_L2C WRITEBACK ACCESS:       9287  HIT:       9287  MISS:          0
LLC TOTAL     ACCESS:       1410  HIT:        623  MISS:        787
LLC LOAD      ACCESS:       1129  HIT:        491  MISS:        638
LLC RFO       ACCESS:        153  HIT:          4  MISS:        149
LLC PREFETCH  ACCESS:          0  HIT:          0  MISS:          0
LLC WRITEBACK ACCESS:        127  HIT:        127  MISS:          0
Heartbeat CPU 0 instructions: 68000002 cycles: 30303712 heartbeat IPC: 1.01649 cumulative IPC: 1.01392 (Simulation time: 0 hr 31 min 27 sec) 

Region of Interest Statistics
cpu0_DTLB TOTAL     ACCESS:    3516435  HIT:    3508619  MISS:       7816
cpu0_DTLB LOAD      ACCESS:    2458446  HIT:    2450964  MISS:       7482
cpu0_DTLB RFO       ACCESS:    1057989  HIT:    1057655  MISS:        334
cpu0_DTLB PREFETCH  ACCESS:          0  HIT:          0  MISS:          0
cpu0_DTLB WRITEBACK ACCESS:          0  HIT:          0  MISS:          0
cpu0_ITLB TOTAL     ACCESS:    1994535  HIT:    1994535  MISS:          0
cpu0_ITLB LOAD      ACCESS:    1994535  HIT:    1994535  MISS:          0
cpu0_ITLB RFO       ACCESS:          0  HIT:          0  MISS:          0
cpu0_ITLB PREFETCH  ACCESS:          0  HIT:          0  MISS:          0
cpu0_ITLB WRITEBACK ACCESS:          0  HIT:          0  MISS:          0
cpu0_L1I TOTAL     ACCESS:    1119585  HIT:    1118736  MISS:        849
cpu0_L1I LOAD      ACCESS:    1119585  HIT:    1118736  MISS:        849
cpu0_L1I RFO       ACCESS:          0  HIT:          0  MISS:          0
cpu0_L1I PREFETCH  ACCESS:          0  HIT:          0  MISS:          0
cpu0_L1I WRITEBACK ACCESS:          0  HIT:          0  MISS:          0
cpu0_STLB TOTAL     ACCESS:       7816  HIT:       7789  MISS:         27
cpu0_STLB LOAD      ACCESS:       7482  HIT:       7458  MISS:         24
cpu0_STLB RFO       ACCESS:        334  HIT:        331  MISS:          3
cpu0_STLB PREFETCH  ACCESS:          0  HIT:          0  MISS:          0
cpu0_STLB WRITEBACK ACCESS:          0  HIT:          0  MISS:          0
cpu0_L1D TOTAL     ACCESS:    4820216  HIT:    4773912  MISS:      46304
cpu0_L1D LOAD      ACCESS:    2798782  HIT:    2758060  MISS:      40722
cpu0_L1D RFO       ACCESS:    2021408  HIT:    2015842  MISS:       5566
cpu0_L1D PREFETCH  ACCESS:          0  HIT:          0  MISS:          0
cpu0_L1D WRITEBACK ACCESS:          0  HIT:          0  MISS:          0
cpu0_L2C TOTAL     ACCESS:      57491  HIT:      56182  MISS:       1309
cpu0_L2C LOAD      ACCESS:      41571  HIT:      40416  MISS:       1155
cpu0_L2C RFO       ACCESS:       5566  HIT:       5413  MISS:        153
cpu0_L2C PREFETCH  ACCESS:          0  HIT:          0  MISS:          0
cpu0_L2C WRITEBACK ACCESS:      10338  HIT:      10338  MISS:          0
LLC TOTAL     ACCESS:       1437  HIT:        643  MISS:        794
LLC LOAD      ACCESS:       1155  HIT:        510  MISS:        645
LLC RFO       ACCESS:        153  HIT:          4  MISS:        149
LLC PREFETCH  ACCESS:          0  HIT:          0  MISS:          0
LLC WRITEBACK ACCESS:        128  HIT:        128  MISS:          0
Heartbeat CPU 0 instructions: 70000000 cycles: 32255540 heartbeat IPC: 1.02468 cumulative IPC: 1.01498 (Simulation time: 0 hr 32 min 23 sec) 

Region of Interest Statistics
cpu0_DTLB TOTAL     ACCESS:    3909106  HIT:    3900436  MISS:       8670
cpu0_DTLB LOAD      ACCESS:    2733303  HIT:    2724992  MISS:       8311
cpu0_DTLB RFO       ACCESS:    1175803  HIT:    1175444  MISS:        359
cpu0_DTLB PREFETCH  ACCESS:          0  HIT:          0  MISS:          0
cpu0_DTLB WRITEBACK ACCESS:          0  HIT:          0  MISS:          0
cpu0_ITLB TOTAL     ACCESS:    2215619  HIT:    2215619  MISS:          0
cpu0_ITLB LOAD      ACCESS:    2215619  HIT:    2215619  MISS:          0
cpu0_ITLB RFO       ACCESS:          0  HIT:          0  MISS:          0
cpu0_ITLB PREFETCH  ACCESS:          0  HIT:          0  MISS:          0
cpu0_ITLB WRITEBACK ACCESS:          0  HIT:          0  MISS:          0
cpu0_L1I TOTAL     ACCESS:    1243572  HIT:    1242632  MISS:        940
cpu0_L1I LOAD      ACCESS:    1243572  HIT:    1242632  MISS:        940
cpu0_L1I RFO       ACCESS:          0  HIT:          0  MISS:          0
cpu0_L1I PREFETCH  ACCESS:          0  HIT:          0  MISS:          0
cpu0_L1I WRITEBACK ACCESS:          0  HIT:          0  MISS:          0
cpu0_STLB TOTAL     ACCESS:       8670  HIT:       8643  MISS:         27
cpu0_STLB LOAD      ACCESS:       8311  HIT:       8287  MISS:         24
cpu0_STLB RFO       ACCESS:        359  HIT:        356  MISS:          3
cpu0_STLB PREFETCH  ACCESS:          0  HIT:          0  MISS:          0
cpu0_STLB WRITEBACK ACCESS:          0  HIT:          0  MISS:          0
cpu0_L1D TOTAL     ACCESS:    5357183  HIT:    5306111  MISS:      51072
cpu0_L1D LOAD      ACCESS:    3111310  HIT:    3066370  MISS:      44940
cpu0_L1D RFO       ACCESS:    2245847  HIT:    2239731  MISS:       6116
cpu0_L1D PREFETCH  ACCESS:          0  HIT:          0  MISS:          0
cpu0_L1D WRITEBACK ACCESS:          0  HIT:          0  MISS:          0
cpu0_L2C TOTAL     ACCESS:      63397  HIT:      62046  MISS:       1351
cpu0_L2C LOAD      ACCESS:      45880  HIT:      44683  MISS:       1197
cpu0_L2C RFO       ACCESS:       6116  HIT:       5963  MISS:        153
cpu0_L2C PREFETCH  ACCESS:          0  HIT:          0  MISS:          0
cpu0_L2C WRITEBACK ACCESS:      11385  HIT:      11385  MISS:          0
LLC TOTAL     ACCESS:       1483  HIT:        670  MISS:        813
LLC LOAD      ACCESS:       1197  HIT:        533  MISS:        664
LLC RFO       ACCESS:        153  HIT:          4  MISS:        149
LLC PREFETCH  ACCESS:          0  HIT:          0  MISS:          0
LLC WRITEBACK ACCESS:        132  HIT:        132  MISS:          0
Heartbeat CPU 0 instructions: 72000000 cycles: 34224076 heartbeat IPC: 1.01598 cumulative IPC: 1.01507 (Simulation time: 0 hr 33 min 18 sec) 

Region of Interest Statistics
cpu0_DTLB TOTAL     ACCESS:    4303547  HIT:    4293990  MISS:       9557
cpu0_DTLB LOAD      ACCESS:    3008626  HIT:    2999471  MISS:       9155
cpu0_DTLB RFO       ACCESS:    1294921  HIT:    1294519  MISS:        402
cpu0_DTLB PREFETCH  ACCESS:          0  HIT:          0  MISS:          0
cpu0_DTLB WRITEBACK ACCESS:          0  HIT:          0  MISS:          0
cpu0_ITLB TOTAL     ACCESS:    2435719  HIT:    2435719  MISS:          0
cpu0_ITLB LOAD      ACCESS:    2435719  HIT:    2435719  MISS:          0
cpu0_ITLB RFO       ACCESS:          0  HIT:          0  MISS:          0
cpu0_ITLB PREFETCH  ACCESS:          0  HIT:          0  MISS:          0
cpu0_ITLB WRITEBACK ACCESS:          0  HIT:          0  MISS:          0
cpu0_L1I TOTAL     ACCESS:    1372678  HIT:    1371644  MISS:       1034
cpu0_L1I LOAD      ACCESS:    1372678  HIT:    1371644  MISS:       1034
cpu0_L1I RFO       ACCESS:          0  HIT:          0  MISS:          0
cpu0_L1I PREFETCH  ACCESS:          0  HIT:          0  MISS:          0
cpu0_L1I WRITEBACK ACCESS:          0  HIT:          0  MISS:          0
cpu0_STLB TOTAL     ACCESS:       9557  HIT:       9525  MISS:         32
cpu0_STLB LOAD      ACCESS:       9155  HIT:       9129  MISS:         26
cpu0_STLB RFO       ACCESS:        402  HIT:        396  MISS:          6
cpu0_STLB PREFETCH  ACCESS:          0  HIT:          0  MISS:          0
cpu0_STLB WRITEBACK ACCESS:          0  HIT:          0  MISS:          0
cpu0_L1D TOTAL     ACCESS:    5897266  HIT:    5841283  MISS:      55983
cpu0_L1D LOAD      ACCESS:    3424612  HIT:    3375486  MISS:      49126
cpu0_L1D RFO       ACCESS:    2472623  HIT:    2465784  MISS:       6839
cpu0_L1D PREFETCH  ACCESS:          0  HIT:          0  MISS:          0
cpu0_L1D WRITEBACK ACCESS:          0  HIT:          0  MISS:          0
cpu0_L2C TOTAL     ACCESS:      69498  HIT:      67957  MISS:       1541
cpu0_L2C LOAD      ACCESS:      50160  HIT:      48917  MISS:       1243
cpu0_L2C RFO       ACCESS:       6839  HIT:       6543  MISS:        296
cpu0_L2C PREFETCH  ACCESS:          0  HIT:          0  MISS:          0
cpu0_L2C WRITEBACK ACCESS:      12481  HIT:      12481  MISS:          0
LLC TOTAL     ACCESS:       1713  HIT:        745  MISS:        968
LLC LOAD      ACCESS:       1243  HIT:        566  MISS:        677
LLC RFO       ACCESS:        296  HIT:          5  MISS:        291
LLC PREFETCH  ACCESS:          0  HIT:          0  MISS:          0
LLC WRITEBACK ACCESS:        172  HIT:        172  MISS:          0
Heartbeat CPU 0 instructions: 74000000 cycles: 36186774 heartbeat IPC: 1.01901 cumulative IPC: 1.0154 (Simulation time: 0 hr 34 min 16 sec) 

Region of Interest Statistics
cpu0_DTLB TOTAL     ACCESS:    4691139  HIT:    4680644  MISS:      10495
cpu0_DTLB LOAD      ACCESS:    3280157  HIT:    3270105  MISS:      10052
cpu0_DTLB RFO       ACCESS:    1410982  HIT:    1410539  MISS:        443
cpu0_DTLB PREFETCH  ACCESS:          0  HIT:          0  MISS:          0
cpu0_DTLB WRITEBACK ACCESS:          0  HIT:          0  MISS:          0
cpu0_ITLB TOTAL     ACCESS:    2654980  HIT:    2654980  MISS:          0
cpu0_ITLB LOAD      ACCESS:    2654980  HIT:    2654980  MISS:          0
cpu0_ITLB RFO       ACCESS:          0  HIT:          0  MISS:          0
cpu0_ITLB PREFETCH  ACCESS:          0  HIT:          0  MISS:          0
cpu0_ITLB WRITEBACK ACCESS:          0  HIT:          0  MISS:          0
cpu0_L1I TOTAL     ACCESS:    1496276  HIT:    1495147  MISS:       1129
cpu0_L1I LOAD      ACCESS:    1496276  HIT:    1495147  MISS:       1129
cpu0_L1I RFO       ACCESS:          0  HIT:          0  MISS:          0
cpu0_L1I PREFETCH  ACCESS:          0  HIT:          0  MISS:          0
cpu0_L1I WRITEBACK ACCESS:          0  HIT:          0  MISS:          0
cpu0_STLB TOTAL     ACCESS:      10495  HIT:      10459  MISS:         36
cpu0_STLB LOAD      ACCESS:      10052  HIT:      10022  MISS:         30
cpu0_STLB RFO       ACCESS:        443  HIT:        437  MISS:          6
cpu0_STLB PREFETCH  ACCESS:          0  HIT:          0  MISS:          0
cpu0_STLB WRITEBACK ACCESS:          0  HIT:          0  MISS:          0
cpu0_L1D TOTAL     ACCESS:    6427563  HIT:    6365586  MISS:      61977
cpu0_L1D LOAD      ACCESS:    3734197  HIT:    3679786  MISS:      54411
cpu0_L1D RFO       ACCESS:    2693331  HIT:    2685787  MISS:       7544
cpu0_L1D PREFETCH  ACCESS:          0  HIT:          0  MISS:          0
cpu0_L1D WRITEBACK ACCESS:          0  HIT:          0  MISS:          0
cpu0_L2C TOTAL     ACCESS:      77054  HIT:      75449  MISS:       1605
cpu0_L2C LOAD      ACCESS:      55540  HIT:      54260  MISS:       1280
cpu0_L2C RFO       ACCESS:       7544  HIT:       7221  MISS:        323
cpu0_L2C PREFETCH  ACCESS:          0  HIT:          0  MISS:          0
cpu0_L2C WRITEBACK ACCESS:      13948  HIT:      13948  MISS:          0
LLC TOTAL     ACCESS:       1781  HIT:        770  MISS:       1011
LLC LOAD      ACCESS:       1280  HIT:        587  MISS:        693
LLC RFO       ACCESS:        323  HIT:          5  MISS:        318
LLC PREFETCH  ACCESS:          0  HIT:          0  MISS:          0
LLC WRITEBACK ACCESS:        176  HIT:        176  MISS:          0
Heartbeat CPU 0 instructions: 76000003 cycles: 38138046 heartbeat IPC: 1.02497 cumulative IPC: 1.01613 (Simulation time: 0 hr 35 min 12 sec) 

Region of Interest Statistics
cpu0_DTLB TOTAL     ACCESS:    5078562  HIT:    5067166  MISS:      11396
cpu0_DTLB LOAD      ACCESS:    3551228  HIT:    3540305  MISS:      10923
cpu0_DTLB RFO       ACCESS:    1527334  HIT:    1526861  MISS:        473
cpu0_DTLB PREFETCH  ACCESS:          0  HIT:          0  MISS:          0
cpu0_DTLB WRITEBACK ACCESS:          0  HIT:          0  MISS:          0
cpu0_ITLB TOTAL     ACCESS:    2874275  HIT:    2874275  MISS:          0
cpu0_ITLB LOAD      ACCESS:    2874275  HIT:    2874275  MISS:          0
cpu0_ITLB RFO       ACCESS:          0  HIT:          0  MISS:          0
cpu0_ITLB PREFETCH  ACCESS:          0  HIT:          0  MISS:          0
cpu0_ITLB WRITEBACK ACCESS:          0  HIT:          0  MISS:          0
cpu0_L1I TOTAL     ACCESS:    1619174  HIT:    1617950  MISS:       1224
cpu0_L1I LOAD      ACCESS:    1619174  HIT:    1617950  MISS:       1224
cpu0_L1I RFO       ACCESS:          0  HIT:          0  MISS:          0
cpu0_L1I PREFETCH  ACCESS:          0  HIT:          0  MISS:          0
cpu0_L1I WRITEBACK ACCESS:          0  HIT:          0  MISS:          0
cpu0_STLB TOTAL     ACCESS:      11396  HIT:      11357  MISS:         39
cpu0_STLB LOAD      ACCESS:      10923  HIT:      10890  MISS:         33
cpu0_STLB RFO       ACCESS:        473  HIT:        467  MISS:          6
cpu0_STLB PREFETCH  ACCESS:          0  HIT:          0  MISS:          0
cpu0_STLB WRITEBACK ACCESS:          0  HIT:          0  MISS:          0
cpu0_L1D TOTAL     ACCESS:    6957028  HIT:    6889128  MISS:      67900
cpu0_L1D LOAD      ACCESS:    4042552  HIT:    3982932  MISS:      59620
cpu0_L1D RFO       ACCESS:    2914438  HIT:    2906183  MISS:       8255
cpu0_L1D PREFETCH  ACCESS:          0  HIT:          0  MISS:          0
cpu0_L1D WRITEBACK ACCESS:          0  HIT:          0  MISS:          0
cpu0_L2C TOTAL     ACCESS:      84396  HIT:      82754  MISS:       1642
cpu0_L2C LOAD      ACCESS:      60844  HIT:      59527  MISS:       1317
cpu0_L2C RFO       ACCESS:       8255  HIT:       7932  MISS:        323
cpu0_L2C PREFETCH  ACCESS:          0  HIT:          0  MISS:          0
cpu0_L2C WRITEBACK ACCESS:      15272  HIT:      15272  MISS:          0
LLC TOTAL     ACCESS:       1827  HIT:        798  MISS:       1029
LLC LOAD      ACCESS:       1317  HIT:        606  MISS:        711
LLC RFO       ACCESS:        323  HIT:          5  MISS:        318
LLC PREFETCH  ACCESS:          0  HIT:          0  MISS:          0
LLC WRITEBACK ACCESS:        185  HIT:        185  MISS:          0
Heartbeat CPU 0 instructions: 78000000 cycles: 40079777 heartbeat IPC: 1.03001 cumulative IPC: 1.01711 (Simulation time: 0 hr 36 min 4 sec) 

Region of Interest Statistics
cpu0_DTLB TOTAL     ACCESS:    5464434  HIT:    5452197  MISS:      12237
cpu0_DTLB LOAD      ACCESS:    3820596  HIT:    3808866  MISS:      11730
cpu0_DTLB RFO       ACCESS:    1643838  HIT:    1643331  MISS:        507
cpu0_DTLB PREFETCH  ACCESS:          0  HIT:          0  MISS:          0
cpu0_DTLB WRITEBACK ACCESS:          0  HIT:          0  MISS:          0
cpu0_ITLB TOTAL     ACCESS:    3093289  HIT:    3093289  MISS:          0
cpu0_ITLB LOAD      ACCESS:    3093289  HIT:    3093289  MISS:          0
cpu0_ITLB RFO       ACCESS:          0  HIT:          0  MISS:          0
cpu0_ITLB PREFETCH  ACCESS:          0  HIT:          0  MISS:          0
cpu0_ITLB WRITEBACK ACCESS:          0  HIT:          0  MISS:          0
cpu0_L1I TOTAL     ACCESS:    1742358  HIT:    1741039  MISS:       1319
cpu0_L1I LOAD      ACCESS:    1742358  HIT:    1741039  MISS:       1319
cpu0_L1I RFO       ACCESS:          0  HIT:          0  MISS:          0
cpu0_L1I PREFETCH  ACCESS:          0  HIT:          0  MISS:          0
cpu0_L1I WRITEBACK ACCESS:          0  HIT:          0  MISS:          0
cpu0_STLB TOTAL     ACCESS:      12237  HIT:      12196  MISS:         41
cpu0_STLB LOAD      ACCESS:      11730  HIT:      11695  MISS:         35
cpu0_STLB RFO       ACCESS:        507  HIT:        501  MISS:          6
cpu0_STLB PREFETCH  ACCESS:          0  HIT:          0  MISS:          0
cpu0_STLB WRITEBACK ACCESS:          0  HIT:          0  MISS:          0
cpu0_L1D TOTAL     ACCESS:    7486173  HIT:    7412263  MISS:      73910
cpu0_L1D LOAD      ACCESS:    4349365  HIT:    4284444  MISS:      64921
cpu0_L1D RFO       ACCESS:    3136768  HIT:    3127806  MISS:       8962
cpu0_L1D PREFETCH  ACCESS:          0  HIT:          0  MISS:          0
cpu0_L1D WRITEBACK ACCESS:          0  HIT:          0  MISS:          0
cpu0_L2C TOTAL     ACCESS:      91833  HIT:      90159  MISS:       1674
cpu0_L2C LOAD      ACCESS:      66240  HIT:      64891  MISS:       1349
cpu0_L2C RFO       ACCESS:       8962  HIT:       8639  MISS:        323
cpu0_L2C PREFETCH  ACCESS:          0  HIT:          0  MISS:          0
cpu0_L2C WRITEBACK ACCESS:      16604  HIT:      16604  MISS:          0
LLC TOTAL     ACCESS:       1868  HIT:        824  MISS:       1044
LLC LOAD      ACCESS:       1349  HIT:        623  MISS:        726
LLC RFO       ACCESS:        323  HIT:          5  MISS:        318
LLC PREFETCH  ACCESS:          0  HIT:          0  MISS:          0
LLC WRITEBACK ACCESS:        194  HIT:        194  MISS:          0
Heartbeat CPU 0 instructions: 80000000 cycles: 42045029 heartbeat IPC: 1.01768 cumulative IPC: 1.01715 (Simulation time: 0 hr 36 min 59 sec) 

Region of Interest Statistics
cpu0_DTLB TOTAL     ACCESS:    5848799  HIT:    5835666  MISS:      13133
cpu0_DTLB LOAD      ACCESS:    4088838  HIT:    4076246  MISS:      12592
cpu0_DTLB RFO       ACCESS:    1759961  HIT:    1759420  MISS:        541
cpu0_DTLB PREFETCH  ACCESS:          0  HIT:          0  MISS:          0
cpu0_DTLB WRITEBACK ACCESS:          0  HIT:          0  MISS:          0
cpu0_ITLB TOTAL     ACCESS:    3311803  HIT:    3311803  MISS:          0
cpu0_ITLB LOAD      ACCESS:    3311803  HIT:    3311803  MISS:          0
cpu0_ITLB RFO       ACCESS:          0  HIT:          0  MISS:          0
cpu0_ITLB PREFETCH  ACCESS:          0  HIT:          0  MISS:          0
cpu0_ITLB WRITEBACK ACCESS:          0  HIT:          0  MISS:          0
cpu0_L1I TOTAL     ACCESS:    1867868  HIT:    1866455  MISS:       1413
cpu0_L1I LOAD      ACCESS:    1867868  HIT:    1866455  MISS:       1413
cpu0_L1I RFO       ACCESS:          0  HIT:          0  MISS:          0
cpu0_L1I PREFETCH  ACCESS:          0  HIT:          0  MISS:          0
cpu0_L1I WRITEBACK ACCESS:          0  HIT:          0  MISS:          0
cpu0_STLB TOTAL     ACCESS:      13133  HIT:      13088  MISS:         45
cpu0_STLB LOAD      ACCESS:      12592  HIT:      12553  MISS:         39
cpu0_STLB RFO       ACCESS:        541  HIT:        535  MISS:          6
cpu0_STLB PREFETCH  ACCESS:          0  HIT:          0  MISS:          0
cpu0_STLB WRITEBACK ACCESS:          0  HIT:          0  MISS:          0
cpu0_L1D TOTAL     ACCESS:    8013523  HIT:    7933609  MISS:      79914
cpu0_L1D LOAD      ACCESS:    4654591  HIT:    4584379  MISS:      70212
cpu0_L1D RFO       ACCESS:    3358888  HIT:    3349216  MISS:       9672
cpu0_L1D PREFETCH  ACCESS:          0  HIT:          0  MISS:          0
cpu0_L1D WRITEBACK ACCESS:          0  HIT:          0  MISS:          0
cpu0_L2C TOTAL     ACCESS:      99259  HIT:      97549  MISS:       1710
cpu0_L2C LOAD      ACCESS:      71625  HIT:      70240  MISS:       1385
cpu0_L2C RFO       ACCESS:       9672  HIT:       9349  MISS:        323
cpu0_L2C PREFETCH  ACCESS:          0  HIT:          0  MISS:          0
cpu0_L2C WRITEBACK ACCESS:      17932  HIT:      17932  MISS:          0
LLC TOTAL     ACCESS:       1907  HIT:        845  MISS:       1062
LLC LOAD      ACCESS:       1385  HIT:        641  MISS:        744
LLC RFO       ACCESS:        323  HIT:          5  MISS:        318
LLC PREFETCH  ACCESS:          0  HIT:          0  MISS:          0
LLC WRITEBACK ACCESS:        197  HIT:        197  MISS:          0
Heartbeat CPU 0 instructions: 82000002 cycles: 44025045 heartbeat IPC: 1.01009 cumulative IPC: 1.0167 (Simulation time: 0 hr 37 min 51 sec) 

Region of Interest Statistics
cpu0_DTLB TOTAL     ACCESS:    6235034  HIT:    6221003  MISS:      14031
cpu0_DTLB LOAD      ACCESS:    4357712  HIT:    4344255  MISS:      13457
cpu0_DTLB RFO       ACCESS:    1877322  HIT:    1876748  MISS:        574
cpu0_DTLB PREFETCH  ACCESS:          0  HIT:          0  MISS:          0
cpu0_DTLB WRITEBACK ACCESS:          0  HIT:          0  MISS:          0
cpu0_ITLB TOTAL     ACCESS:    3531252  HIT:    3531252  MISS:          0
cpu0_ITLB LOAD      ACCESS:    3531252  HIT:    3531252  MISS:          0
cpu0_ITLB RFO       ACCESS:          0  HIT:          0  MISS:          0
cpu0_ITLB PREFETCH  ACCESS:          0  HIT:          0  MISS:          0
cpu0_ITLB WRITEBACK ACCESS:          0  HIT:          0  MISS:          0
cpu0_L1I TOTAL     ACCESS:    1991451  HIT:    1989941  MISS:       1510
cpu0_L1I LOAD      ACCESS:    1991451  HIT:    1989941  MISS:       1510
cpu0_L1I RFO       ACCESS:          0  HIT:          0  MISS:          0
cpu0_L1I PREFETCH  ACCESS:          0  HIT:          0  MISS:          0
cpu0_L1I WRITEBACK ACCESS:          0  HIT:          0  MISS:          0
cpu0_STLB TOTAL     ACCESS:      14031  HIT:      13983  MISS:         48
cpu0_STLB LOAD      ACCESS:      13457  HIT:      13415  MISS:         42
cpu0_STLB RFO       ACCESS:        574  HIT:        568  MISS:          6
cpu0_STLB PREFETCH  ACCESS:          0  HIT:          0  MISS:          0
cpu0_STLB WRITEBACK ACCESS:          0  HIT:          0  MISS:          0
cpu0_L1D TOTAL     ACCESS:    8543216  HIT:    8457216  MISS:      86000
cpu0_L1D LOAD      ACCESS:    4960121  HIT:    4884539  MISS:      75582
cpu0_L1D RFO       ACCESS:    3583048  HIT:    3572663  MISS:      10385
cpu0_L1D PREFETCH  ACCESS:          0  HIT:          0  MISS:          0
cpu0_L1D WRITEBACK ACCESS:          0  HIT:          0  MISS:          0
cpu0_L2C TOTAL     ACCESS:     106780  HIT:     105024  MISS:       1756
cpu0_L2C LOAD      ACCESS:      77092  HIT:      75662  MISS:       1430
cpu0_L2C RFO       ACCESS:      10385  HIT:      10061  MISS:        324
cpu0_L2C PREFETCH  ACCESS:          0  HIT:          0  MISS:          0
cpu0_L2C WRITEBACK ACCESS:      19270  HIT:      19270  MISS:          0
LLC TOTAL     ACCESS:       1960  HIT:        881  MISS:       1079
LLC LOAD      ACCESS:       1430  HIT:        670  MISS:        760
LLC RFO       ACCESS:        324  HIT:          5  MISS:        319
LLC PREFETCH  ACCESS:          0  HIT:          0  MISS:          0
LLC WRITEBACK ACCESS:        204  HIT:        204  MISS:          0
Heartbeat CPU 0 instructions: 84000000 cycles: 46011674 heartbeat IPC: 1.00673 cumulative IPC: 1.01611 (Simulation time: 0 hr 38 min 42 sec) 

Region of Interest Statistics
cpu0_DTLB TOTAL     ACCESS:    6626463  HIT:    6611457  MISS:      15006
cpu0_DTLB LOAD      ACCESS:    4630615  HIT:    4616220  MISS:      14395
cpu0_DTLB RFO       ACCESS:    1995848  HIT:    1995237  MISS:        611
cpu0_DTLB PREFETCH  ACCESS:          0  HIT:          0  MISS:          0
cpu0_DTLB WRITEBACK ACCESS:          0  HIT:          0  MISS:          0
cpu0_ITLB TOTAL     ACCESS:    3753857  HIT:    3753857  MISS:          0
cpu0_ITLB LOAD      ACCESS:    3753857  HIT:    3753857  MISS:          0
cpu0_ITLB RFO       ACCESS:          0  HIT:          0  MISS:          0
cpu0_ITLB PREFETCH  ACCESS:          0  HIT:          0  MISS:          0
cpu0_ITLB WRITEBACK ACCESS:          0  HIT:          0  MISS:          0
cpu0_L1I TOTAL     ACCESS:    2117990  HIT:    2116353  MISS:       1637
cpu0_L1I LOAD      ACCESS:    2117990  HIT:    2116353  MISS:       1637
cpu0_L1I RFO       ACCESS:          0  HIT:          0  MISS:          0
cpu0_L1I PREFETCH  ACCESS:          0  HIT:          0  MISS:          0
cpu0_L1I WRITEBACK ACCESS:          0  HIT:          0  MISS:          0
cpu0_STLB TOTAL     ACCESS:      15006  HIT:      14954  MISS:         52
cpu0_STLB LOAD      ACCESS:      14395  HIT:      14349  MISS:         46
cpu0_STLB RFO       ACCESS:        611  HIT:        605  MISS:          6
cpu0_STLB PREFETCH  ACCESS:          0  HIT:          0  MISS:          0
cpu0_STLB WRITEBACK ACCESS:          0  HIT:          0  MISS:          0
cpu0_L1D TOTAL     ACCESS:    9078083  HIT:    8986167  MISS:      91916
cpu0_L1D LOAD      ACCESS:    5270830  HIT:    5190088  MISS:      80742
cpu0_L1D RFO       ACCESS:    3807202  HIT:    3796065  MISS:      11137
cpu0_L1D PREFETCH  ACCESS:          0  HIT:          0  MISS:          0
cpu0_L1D WRITEBACK ACCESS:          0  HIT:          0  MISS:          0
cpu0_L2C TOTAL     ACCESS:     114117  HIT:     112330  MISS:       1787
cpu0_L2C LOAD      ACCESS:      82379  HIT:      80918  MISS:       1461
cpu0_L2C RFO       ACCESS:      11137  HIT:      10813  MISS:        324
cpu0_L2C PREFETCH  ACCESS:          0  HIT:          0  MISS:          0
cpu0_L2C WRITEBACK ACCESS:      20564  HIT:      20564  MISS:          0
LLC TOTAL     ACCESS:       1996  HIT:        904  MISS:       1092
LLC LOAD      ACCESS:       1461  HIT:        688  MISS:        773
LLC RFO       ACCESS:        324  HIT:          5  MISS:        319
LLC PREFETCH  ACCESS:          0  HIT:          0  MISS:          0
LLC WRITEBACK ACCESS:        209  HIT:        209  MISS:          0
Heartbeat CPU 0 instructions: 86000000 cycles: 47995397 heartbeat IPC: 1.00821 cumulative IPC: 1.01567 (Simulation time: 0 hr 39 min 36 sec) 

Region of Interest Statistics
cpu0_DTLB TOTAL     ACCESS:    7023504  HIT:    7007751  MISS:      15753
cpu0_DTLB LOAD      ACCESS:    4907177  HIT:    4892054  MISS:      15123
cpu0_DTLB RFO       ACCESS:    2116327  HIT:    2115697  MISS:        630
cpu0_DTLB PREFETCH  ACCESS:          0  HIT:          0  MISS:          0
cpu0_DTLB WRITEBACK ACCESS:          0  HIT:          0  MISS:          0
cpu0_ITLB TOTAL     ACCESS:    3979291  HIT:    3979291  MISS:          0
cpu0_ITLB LOAD      ACCESS:    3979291  HIT:    3979291  MISS:          0
cpu0_ITLB RFO       ACCESS:          0  HIT:          0  MISS:          0
cpu0_ITLB PREFETCH  ACCESS:          0  HIT:          0  MISS:          0
cpu0_ITLB WRITEBACK ACCESS:          0  HIT:          0  MISS:          0
cpu0_L1I TOTAL     ACCESS:    2246303  HIT:    2244567  MISS:       1736
cpu0_L1I LOAD      ACCESS:    2246303  HIT:    2244567  MISS:       1736
cpu0_L1I RFO       ACCESS:          0  HIT:          0  MISS:          0
cpu0_L1I PREFETCH  ACCESS:          0  HIT:          0  MISS:          0
cpu0_L1I WRITEBACK ACCESS:          0  HIT:          0  MISS:          0
cpu0_STLB TOTAL     ACCESS:      15753  HIT:      15701  MISS:         52
cpu0_STLB LOAD      ACCESS:      15123  HIT:      15077  MISS:         46
cpu0_STLB RFO       ACCESS:        630  HIT:        624  MISS:          6
cpu0_STLB PREFETCH  ACCESS:          0  HIT:          0  MISS:          0
cpu0_STLB WRITEBACK ACCESS:          0  HIT:          0  MISS:          0
cpu0_L1D TOTAL     ACCESS:    9628276  HIT:    9533559  MISS:      94717
cpu0_L1D LOAD      ACCESS:    5585553  HIT:    5502281  MISS:      83272
cpu0_L1D RFO       ACCESS:    4042672  HIT:    4031264  MISS:      11408
cpu0_L1D PREFETCH  ACCESS:          0  HIT:          0  MISS:          0
cpu0_L1D WRITEBACK ACCESS:          0  HIT:          0  MISS:          0
cpu0_L2C TOTAL     ACCESS:     117514  HIT:     115696  MISS:       1818
cpu0_L2C LOAD      ACCESS:      85008  HIT:      83516  MISS:       1492
cpu0_L2C RFO       ACCESS:      11408  HIT:      11084  MISS:        324
cpu0_L2C PREFETCH  ACCESS:          0  HIT:          0  MISS:          0
cpu0_L2C WRITEBACK ACCESS:      21061  HIT:      21061  MISS:          0
LLC TOTAL     ACCESS:       2036  HIT:        930  MISS:       1106
LLC LOAD      ACCESS:       1492  HIT:        705  MISS:        787
LLC RFO       ACCESS:        324  HIT:          5  MISS:        319
LLC PREFETCH  ACCESS:          0  HIT:          0  MISS:          0
LLC WRITEBACK ACCESS:        218  HIT:        218  MISS:          0
Heartbeat CPU 0 instructions: 88000004 cycles: 49973199 heartbeat IPC: 1.01123 cumulative IPC: 1.01543 (Simulation time: 0 hr 40 min 30 sec) 

Region of Interest Statistics
cpu0_DTLB TOTAL     ACCESS:    7423313  HIT:    7406830  MISS:      16483
cpu0_DTLB LOAD      ACCESS:    5188042  HIT:    5172210  MISS:      15832
cpu0_DTLB RFO       ACCESS:    2235271  HIT:    2234620  MISS:        651
cpu0_DTLB PREFETCH  ACCESS:          0  HIT:          0  MISS:          0
cpu0_DTLB WRITEBACK ACCESS:          0  HIT:          0  MISS:          0
cpu0_ITLB TOTAL     ACCESS:    4207347  HIT:    4207347  MISS:          0
cpu0_ITLB LOAD      ACCESS:    4207347  HIT:    4207347  MISS:          0
cpu0_ITLB RFO       ACCESS:          0  HIT:          0  MISS:          0
cpu0_ITLB PREFETCH  ACCESS:          0  HIT:          0  MISS:          0
cpu0_ITLB WRITEBACK ACCESS:          0  HIT:          0  MISS:          0
cpu0_L1I TOTAL     ACCESS:    2370411  HIT:    2368582  MISS:       1829
cpu0_L1I LOAD      ACCESS:    2370411  HIT:    2368582  MISS:       1829
cpu0_L1I RFO       ACCESS:          0  HIT:          0  MISS:          0
cpu0_L1I PREFETCH  ACCESS:          0  HIT:          0  MISS:          0
cpu0_L1I WRITEBACK ACCESS:          0  HIT:          0  MISS:          0
cpu0_STLB TOTAL     ACCESS:      16483  HIT:      16431  MISS:         52
cpu0_STLB LOAD      ACCESS:      15832  HIT:      15786  MISS:         46
cpu0_STLB RFO       ACCESS:        651  HIT:        645  MISS:          6
cpu0_STLB PREFETCH  ACCESS:          0  HIT:          0  MISS:          0
cpu0_STLB WRITEBACK ACCESS:          0  HIT:          0  MISS:          0
cpu0_L1D TOTAL     ACCESS:   10180301  HIT:   10082936  MISS:      97365
cpu0_L1D LOAD      ACCESS:    5906217  HIT:    5820546  MISS:      85671
cpu0_L1D RFO       ACCESS:    4274033  HIT:    4262376  MISS:      11657
cpu0_L1D PREFETCH  ACCESS:          0  HIT:          0  MISS:          0
cpu0_L1D WRITEBACK ACCESS:          0  HIT:          0  MISS:          0
cpu0_L2C TOTAL     ACCESS:     120745  HIT:     118908  MISS:       1837
cpu0_L2C LOAD      ACCESS:      87500  HIT:      85989  MISS:       1511
cpu0_L2C RFO       ACCESS:      11657  HIT:      11333  MISS:        324
cpu0_L2C PREFETCH  ACCESS:          0  HIT:          0  MISS:          0
cpu0_L2C WRITEBACK ACCESS:      21551  HIT:      21551  MISS:          0
LLC TOTAL     ACCESS:       2056  HIT:        941  MISS:       1115
LLC LOAD      ACCESS:       1511  HIT:        715  MISS:        796
LLC RFO       ACCESS:        324  HIT:          5  MISS:        319
LLC PREFETCH  ACCESS:          0  HIT:          0  MISS:          0
LLC WRITEBACK ACCESS:        219  HIT:        219  MISS:          0
Heartbeat CPU 0 instructions: 90000004 cycles: 51994701 heartbeat IPC: 0.989363 cumulative IPC: 1.0141 (Simulation time: 0 hr 41 min 20 sec) 

Region of Interest Statistics
cpu0_DTLB TOTAL     ACCESS:    7823992  HIT:    7806747  MISS:      17245
cpu0_DTLB LOAD      ACCESS:    5469578  HIT:    5453008  MISS:      16570
cpu0_DTLB RFO       ACCESS:    2354414  HIT:    2353739  MISS:        675
cpu0_DTLB PREFETCH  ACCESS:          0  HIT:          0  MISS:          0
cpu0_DTLB WRITEBACK ACCESS:          0  HIT:          0  MISS:          0
cpu0_ITLB TOTAL     ACCESS:    4434234  HIT:    4434234  MISS:          0
cpu0_ITLB LOAD      ACCESS:    4434234  HIT:    4434234  MISS:          0
cpu0_ITLB RFO       ACCESS:          0  HIT:          0  MISS:          0
cpu0_ITLB PREFETCH  ACCESS:          0  HIT:          0  MISS:          0
cpu0_ITLB WRITEBACK ACCESS:          0  HIT:          0  MISS:          0
cpu0_L1I TOTAL     ACCESS:    2496134  HIT:    2494211  MISS:       1923
cpu0_L1I LOAD      ACCESS:    2496134  HIT:    2494211  MISS:       1923
cpu0_L1I RFO       ACCESS:          0  HIT:          0  MISS:          0
cpu0_L1I PREFETCH  ACCESS:          0  HIT:          0  MISS:          0
cpu0_L1I WRITEBACK ACCESS:          0  HIT:          0  MISS:          0
cpu0_STLB TOTAL     ACCESS:      17245  HIT:      17193  MISS:         52
cpu0_STLB LOAD      ACCESS:      16570  HIT:      16524  MISS:         46
cpu0_STLB RFO       ACCESS:        675  HIT:        669  MISS:          6
cpu0_STLB PREFETCH  ACCESS:          0  HIT:          0  MISS:          0
cpu0_STLB WRITEBACK ACCESS:          0  HIT:          0  MISS:          0
cpu0_L1D TOTAL     ACCESS:   10732449  HIT:   10632374  MISS:     100075
cpu0_L1D LOAD      ACCESS:    6227238  HIT:    6139112  MISS:      88126
cpu0_L1D RFO       ACCESS:    4505160  HIT:    4493248  MISS:      11912
cpu0_L1D PREFETCH  ACCESS:          0  HIT:          0  MISS:          0
cpu0_L1D WRITEBACK ACCESS:          0  HIT:          0  MISS:          0
cpu0_L2C TOTAL     ACCESS:     124000  HIT:     122131  MISS:       1869
cpu0_L2C LOAD      ACCESS:      90049  HIT:      88506  MISS:       1543
cpu0_L2C RFO       ACCESS:      11912  HIT:      11588  MISS:        324
cpu0_L2C PREFETCH  ACCESS:          0  HIT:          0  MISS:          0
cpu0_L2C WRITEBACK ACCESS:      22002  HIT:      22002  MISS:          0
LLC TOTAL     ACCESS:       2094  HIT:        963  MISS:       1131
LLC LOAD      ACCESS:       1543  HIT:        731  MISS:        812
LLC RFO       ACCESS:        324  HIT:          5  MISS:        319
LLC PREFETCH  ACCESS:          0  HIT:          0  MISS:          0
LLC WRITEBACK ACCESS:        225  HIT:        225  MISS:          0
Heartbeat CPU 0 instructions: 92000001 cycles: 54025356 heartbeat IPC: 0.984902 cumulative IPC: 1.01267 (Simulation time: 0 hr 42 min 15 sec) 

Region of Interest Statistics
cpu0_DTLB TOTAL     ACCESS:    8220855  HIT:    8202744  MISS:      18111
cpu0_DTLB LOAD      ACCESS:    5745293  HIT:    5727901  MISS:      17392
cpu0_DTLB RFO       ACCESS:    2475562  HIT:    2474843  MISS:        719
cpu0_DTLB PREFETCH  ACCESS:          0  HIT:          0  MISS:          0
cpu0_DTLB WRITEBACK ACCESS:          0  HIT:          0  MISS:          0
cpu0_ITLB TOTAL     ACCESS:    4656867  HIT:    4656867  MISS:          0
cpu0_ITLB LOAD      ACCESS:    4656867  HIT:    4656867  MISS:          0
cpu0_ITLB RFO       ACCESS:          0  HIT:          0  MISS:          0
cpu0_ITLB PREFETCH  ACCESS:          0  HIT:          0  MISS:          0
cpu0_ITLB WRITEBACK ACCESS:          0  HIT:          0  MISS:          0
cpu0_L1I TOTAL     ACCESS:    2627556  HIT:    2625537  MISS:       2019
cpu0_L1I LOAD      ACCESS:    2627556  HIT:    2625537  MISS:       2019
cpu0_L1I RFO       ACCESS:          0  HIT:          0  MISS:          0
cpu0_L1I PREFETCH  ACCESS:          0  HIT:          0  MISS:          0
cpu0_L1I WRITEBACK ACCESS:          0  HIT:          0  MISS:          0
cpu0_STLB TOTAL     ACCESS:      18111  HIT:      18039  MISS:         72
cpu0_STLB LOAD      ACCESS:      17392  HIT:      17335  MISS:         57
cpu0_STLB RFO       ACCESS:        719  HIT:        704  MISS:         15
cpu0_STLB PREFETCH  ACCESS:          0  HIT:          0  MISS:          0
cpu0_STLB WRITEBACK ACCESS:          0  HIT:          0  MISS:          0
cpu0_L1D TOTAL     ACCESS:   11280738  HIT:   11176891  MISS:     103847
cpu0_L1D LOAD      ACCESS:    6541490  HIT:    6450187  MISS:      91303
cpu0_L1D RFO       ACCESS:    4739179  HIT:    4726678  MISS:      12501
cpu0_L1D PREFETCH  ACCESS:          0  HIT:          0  MISS:          0
cpu0_L1D WRITEBACK ACCESS:          0  HIT:          0  MISS:          0
cpu0_L2C TOTAL     ACCESS:     128832  HIT:     126517  MISS:       2315
cpu0_L2C LOAD      ACCESS:      93322  HIT:      91553  MISS:       1769
cpu0_L2C RFO       ACCESS:      12501  HIT:      11958  MISS:        543
cpu0_L2C PREFETCH  ACCESS:          0  HIT:          0  MISS:          0
cpu0_L2C WRITEBACK ACCESS:      22966  HIT:      22966  MISS:          0
LLC TOTAL     ACCESS:       2607  HIT:       1055  MISS:       1552
LLC LOAD      ACCESS:       1769  HIT:        753  MISS:       1016
LLC RFO       ACCESS:        543  HIT:          7  MISS:        536
LLC PREFETCH  ACCESS:          0  HIT:          0  MISS:          0
LLC WRITEBACK ACCESS:        292  HIT:        292  MISS:          0
Heartbeat CPU 0 instructions: 94000003 cycles: 55998779 heartbeat IPC: 1.01347 cumulative IPC: 1.0127 (Simulation time: 0 hr 43 min 8 sec) 

Region of Interest Statistics
cpu0_DTLB TOTAL     ACCESS:    8617744  HIT:    8598791  MISS:      18953
cpu0_DTLB LOAD      ACCESS:    6021762  HIT:    6003570  MISS:      18192
cpu0_DTLB RFO       ACCESS:    2595982  HIT:    2595221  MISS:        761
cpu0_DTLB PREFETCH  ACCESS:          0  HIT:          0  MISS:          0
cpu0_DTLB WRITEBACK ACCESS:          0  HIT:          0  MISS:          0
cpu0_ITLB TOTAL     ACCESS:    4881053  HIT:    4881053  MISS:          0
cpu0_ITLB LOAD      ACCESS:    4881053  HIT:    4881053  MISS:          0
cpu0_ITLB RFO       ACCESS:          0  HIT:          0  MISS:          0
cpu0_ITLB PREFETCH  ACCESS:          0  HIT:          0  MISS:          0
cpu0_ITLB WRITEBACK ACCESS:          0  HIT:          0  MISS:          0
cpu0_L1I TOTAL     ACCESS:    2756191  HIT:    2754077  MISS:       2114
cpu0_L1I LOAD      ACCESS:    2756191  HIT:    2754077  MISS:       2114
cpu0_L1I RFO       ACCESS:          0  HIT:          0  MISS:          0
cpu0_L1I PREFETCH  ACCESS:          0  HIT:          0  MISS:          0
cpu0_L1I WRITEBACK ACCESS:          0  HIT:          0  MISS:          0
cpu0_STLB TOTAL     ACCESS:      18953  HIT:      18879  MISS:         74
cpu0_STLB LOAD      ACCESS:      18192  HIT:      18133  MISS:         59
cpu0_STLB RFO       ACCESS:        761  HIT:        746  MISS:         15
cpu0_STLB PREFETCH  ACCESS:          0  HIT:          0  MISS:          0
cpu0_STLB WRITEBACK ACCESS:          0  HIT:          0  MISS:          0
cpu0_L1D TOTAL     ACCESS:   11827594  HIT:   11719786  MISS:     107808
cpu0_L1D LOAD      ACCESS:    6857113  HIT:    6762476  MISS:      94637
cpu0_L1D RFO       ACCESS:    4970410  HIT:    4957284  MISS:      13126
cpu0_L1D PREFETCH  ACCESS:          0  HIT:          0  MISS:          0
cpu0_L1D WRITEBACK ACCESS:          0  HIT:          0  MISS:          0
cpu0_L2C TOTAL     ACCESS:     133823  HIT:     131353  MISS:       2470
cpu0_L2C LOAD      ACCESS:      96751  HIT:      94952  MISS:       1799
cpu0_L2C RFO       ACCESS:      13126  HIT:      12458  MISS:        668
cpu0_L2C PREFETCH  ACCESS:          0  HIT:          0  MISS:          0
cpu0_L2C WRITEBACK ACCESS:      23901  HIT:      23901  MISS:          0
LLC TOTAL     ACCESS:       2779  HIT:       1080  MISS:       1699
LLC LOAD      ACCESS:       1799  HIT:        761  MISS:       1038
LLC RFO       ACCESS:        668  HIT:          7  MISS:        661
LLC PREFETCH  ACCESS:          0  HIT:          0  MISS:          0
LLC WRITEBACK ACCESS:        309  HIT:        309  MISS:          0
Heartbeat CPU 0 instructions: 96000003 cycles: 57971736 heartbeat IPC: 1.01371 cumulative IPC: 1.01275 (Simulation time: 0 hr 44 min 3 sec) 

Region of Interest Statistics
cpu0_DTLB TOTAL     ACCESS:    9005793  HIT:    8985916  MISS:      19877
cpu0_DTLB LOAD      ACCESS:    6293818  HIT:    6274744  MISS:      19074
cpu0_DTLB RFO       ACCESS:    2711975  HIT:    2711172  MISS:        803
cpu0_DTLB PREFETCH  ACCESS:          0  HIT:          0  MISS:          0
cpu0_DTLB WRITEBACK ACCESS:          0  HIT:          0  MISS:          0
cpu0_ITLB TOTAL     ACCESS:    5102387  HIT:    5102387  MISS:          0
cpu0_ITLB LOAD      ACCESS:    5102387  HIT:    5102387  MISS:          0
cpu0_ITLB RFO       ACCESS:          0  HIT:          0  MISS:          0
cpu0_ITLB PREFETCH  ACCESS:          0  HIT:          0  MISS:          0
cpu0_ITLB WRITEBACK ACCESS:          0  HIT:          0  MISS:          0
cpu0_L1I TOTAL     ACCESS:    2879387  HIT:    2877180  MISS:       2207
cpu0_L1I LOAD      ACCESS:    2879387  HIT:    2877180  MISS:       2207
cpu0_L1I RFO       ACCESS:          0  HIT:          0  MISS:          0
cpu0_L1I PREFETCH  ACCESS:          0  HIT:          0  MISS:          0
cpu0_L1I WRITEBACK ACCESS:          0  HIT:          0  MISS:          0
cpu0_STLB TOTAL     ACCESS:      19877  HIT:      19799  MISS:         78
cpu0_STLB LOAD      ACCESS:      19074  HIT:      19011  MISS:         63
cpu0_STLB RFO       ACCESS:        803  HIT:        788  MISS:         15
cpu0_STLB PREFETCH  ACCESS:          0  HIT:          0  MISS:          0
cpu0_STLB WRITEBACK ACCESS:          0  HIT:          0  MISS:          0
cpu0_L1D TOTAL     ACCESS:   12359102  HIT:   12245613  MISS:     113489
cpu0_L1D LOAD      ACCESS:    7166751  HIT:    7067038  MISS:      99713
cpu0_L1D RFO       ACCESS:    5192276  HIT:    5178548  MISS:      13728
cpu0_L1D PREFETCH  ACCESS:          0  HIT:          0  MISS:          0
cpu0_L1D WRITEBACK ACCESS:          0  HIT:          0  MISS:          0
cpu0_L2C TOTAL     ACCESS:     140973  HIT:     138453  MISS:       2520
cpu0_L2C LOAD      ACCESS:     101920  HIT:     100072  MISS:       1848
cpu0_L2C RFO       ACCESS:      13728  HIT:      13059  MISS:        669
cpu0_L2C PREFETCH  ACCESS:          0  HIT:          0  MISS:          0
cpu0_L2C WRITEBACK ACCESS:      25277  HIT:      25277  MISS:          0
LLC TOTAL     ACCESS:       2844  HIT:       1129  MISS:       1715
LLC LOAD      ACCESS:       1848  HIT:        795  MISS:       1053
LLC RFO       ACCESS:        669  HIT:          7  MISS:        662
LLC PREFETCH  ACCESS:          0  HIT:          0  MISS:          0
LLC WRITEBACK ACCESS:        324  HIT:        324  MISS:          0
Heartbeat CPU 0 instructions: 98000000 cycles: 59960865 heartbeat IPC: 1.00546 cumulative IPC: 1.01244 (Simulation time: 0 hr 44 min 57 sec) 

Region of Interest Statistics
cpu0_DTLB TOTAL     ACCESS:    9392181  HIT:    9371359  MISS:      20822
cpu0_DTLB LOAD      ACCESS:    6564746  HIT:    6544776  MISS:      19970
cpu0_DTLB RFO       ACCESS:    2827435  HIT:    2826583  MISS:        852
cpu0_DTLB PREFETCH  ACCESS:          0  HIT:          0  MISS:          0
cpu0_DTLB WRITEBACK ACCESS:          0  HIT:          0  MISS:          0
cpu0_ITLB TOTAL     ACCESS:    5322863  HIT:    5322863  MISS:          0
cpu0_ITLB LOAD      ACCESS:    5322863  HIT:    5322863  MISS:          0
cpu0_ITLB RFO       ACCESS:          0  HIT:          0  MISS:          0
cpu0_ITLB PREFETCH  ACCESS:          0  HIT:          0  MISS:          0
cpu0_ITLB WRITEBACK ACCESS:          0  HIT:          0  MISS:          0
cpu0_L1I TOTAL     ACCESS:    3004557  HIT:    3002260  MISS:       2297
cpu0_L1I LOAD      ACCESS:    3004557  HIT:    3002260  MISS:       2297
cpu0_L1I RFO       ACCESS:          0  HIT:          0  MISS:          0
cpu0_L1I PREFETCH  ACCESS:          0  HIT:          0  MISS:          0
cpu0_L1I WRITEBACK ACCESS:          0  HIT:          0  MISS:          0
cpu0_STLB TOTAL     ACCESS:      20822  HIT:      20743  MISS:         79
cpu0_STLB LOAD      ACCESS:      19970  HIT:      19906  MISS:         64
cpu0_STLB RFO       ACCESS:        852  HIT:        837  MISS:         15
cpu0_STLB PREFETCH  ACCESS:          0  HIT:          0  MISS:          0
cpu0_STLB WRITEBACK ACCESS:          0  HIT:          0  MISS:          0
cpu0_L1D TOTAL     ACCESS:   12887891  HIT:   12768446  MISS:     119445
cpu0_L1D LOAD      ACCESS:    7475192  HIT:    7370235  MISS:     104957
cpu0_L1D RFO       ACCESS:    5412623  HIT:    5398184  MISS:      14439
cpu0_L1D PREFETCH  ACCESS:          0  HIT:          0  MISS:          0
cpu0_L1D WRITEBACK ACCESS:          0  HIT:          0  MISS:          0
cpu0_L2C TOTAL     ACCESS:     148355  HIT:     145792  MISS:       2563
cpu0_L2C LOAD      ACCESS:     107254  HIT:     105363  MISS:       1891
cpu0_L2C RFO       ACCESS:      14439  HIT:      13770  MISS:        669
cpu0_L2C PREFETCH  ACCESS:          0  HIT:          0  MISS:          0
cpu0_L2C WRITEBACK ACCESS:      26613  HIT:      26613  MISS:          0
LLC TOTAL     ACCESS:       2897  HIT:       1173  MISS:       1724
LLC LOAD      ACCESS:       1891  HIT:        829  MISS:       1062
LLC RFO       ACCESS:        669  HIT:          7  MISS:        662
LLC PREFETCH  ACCESS:          0  HIT:          0  MISS:          0
LLC WRITEBACK ACCESS:        334  HIT:        334  MISS:          0
Heartbeat CPU 0 instructions: 100000002 cycles: 61934272 heartbeat IPC: 1.01348 cumulative IPC: 1.01248 (Simulation time: 0 hr 45 min 52 sec) 

Region of Interest Statistics
cpu0_DTLB TOTAL     ACCESS:    9778262  HIT:    9756514  MISS:      21748
cpu0_DTLB LOAD      ACCESS:    6834244  HIT:    6813388  MISS:      20856
cpu0_DTLB RFO       ACCESS:    2944018  HIT:    2943126  MISS:        892
cpu0_DTLB PREFETCH  ACCESS:          0  HIT:          0  MISS:          0
cpu0_DTLB WRITEBACK ACCESS:          0  HIT:          0  MISS:          0
cpu0_ITLB TOTAL     ACCESS:    5542674  HIT:    5542674  MISS:          0
cpu0_ITLB LOAD      ACCESS:    5542674  HIT:    5542674  MISS:          0
cpu0_ITLB RFO       ACCESS:          0  HIT:          0  MISS:          0
cpu0_ITLB PREFETCH  ACCESS:          0  HIT:          0  MISS:          0
cpu0_ITLB WRITEBACK ACCESS:          0  HIT:          0  MISS:          0
cpu0_L1I TOTAL     ACCESS:    3128975  HIT:    3126578  MISS:       2397
cpu0_L1I LOAD      ACCESS:    3128975  HIT:    3126578  MISS:       2397
cpu0_L1I RFO       ACCESS:          0  HIT:          0  MISS:          0
cpu0_L1I PREFETCH  ACCESS:          0  HIT:          0  MISS:          0
cpu0_L1I WRITEBACK ACCESS:          0  HIT:          0  MISS:          0
cpu0_STLB TOTAL     ACCESS:      21748  HIT:      21669  MISS:         79
cpu0_STLB LOAD      ACCESS:      20856  HIT:      20792  MISS:         64
cpu0_STLB RFO       ACCESS:        892  HIT:        877  MISS:         15
cpu0_STLB PREFETCH  ACCESS:          0  HIT:          0  MISS:          0
cpu0_STLB WRITEBACK ACCESS:          0  HIT:          0  MISS:          0
cpu0_L1D TOTAL     ACCESS:   13416865  HIT:   13291435  MISS:     125430
cpu0_L1D LOAD      ACCESS:    7781607  HIT:    7671374  MISS:     110233
cpu0_L1D RFO       ACCESS:    5635182  HIT:    5620034  MISS:      15148
cpu0_L1D PREFETCH  ACCESS:          0  HIT:          0  MISS:          0
cpu0_L1D WRITEBACK ACCESS:          0  HIT:          0  MISS:          0
cpu0_L2C TOTAL     ACCESS:     155765  HIT:     153181  MISS:       2584
cpu0_L2C LOAD      ACCESS:     112630  HIT:     110718  MISS:       1912
cpu0_L2C RFO       ACCESS:      15148  HIT:      14479  MISS:        669
cpu0_L2C PREFETCH  ACCESS:          0  HIT:          0  MISS:          0
cpu0_L2C WRITEBACK ACCESS:      27938  HIT:      27938  MISS:          0
LLC TOTAL     ACCESS:       2921  HIT:       1192  MISS:       1729
LLC LOAD      ACCESS:       1912  HIT:        845  MISS:       1067
LLC RFO       ACCESS:        669  HIT:          7  MISS:        662
LLC PREFETCH  ACCESS:          0  HIT:          0  MISS:          0
LLC WRITEBACK ACCESS:        337  HIT:        337  MISS:          0
Heartbeat CPU 0 instructions: 102000000 cycles: 63871982 heartbeat IPC: 1.03215 cumulative IPC: 1.01323 (Simulation time: 0 hr 46 min 47 sec) 

Region of Interest Statistics
cpu0_DTLB TOTAL     ACCESS:   10167312  HIT:   10144677  MISS:      22635
cpu0_DTLB LOAD      ACCESS:    7106589  HIT:    7084889  MISS:      21700
cpu0_DTLB RFO       ACCESS:    3060723  HIT:    3059788  MISS:        935
cpu0_DTLB PREFETCH  ACCESS:          0  HIT:          0  MISS:          0
cpu0_DTLB WRITEBACK ACCESS:          0  HIT:          0  MISS:          0
cpu0_ITLB TOTAL     ACCESS:    5764981  HIT:    5764981  MISS:          0
cpu0_ITLB LOAD      ACCESS:    5764981  HIT:    5764981  MISS:          0
cpu0_ITLB RFO       ACCESS:          0  HIT:          0  MISS:          0
cpu0_ITLB PREFETCH  ACCESS:          0  HIT:          0  MISS:          0
cpu0_ITLB WRITEBACK ACCESS:          0  HIT:          0  MISS:          0
cpu0_L1I TOTAL     ACCESS:    3249439  HIT:    3246945  MISS:       2494
cpu0_L1I LOAD      ACCESS:    3249439  HIT:    3246945  MISS:       2494
cpu0_L1I RFO       ACCESS:          0  HIT:          0  MISS:          0
cpu0_L1I PREFETCH  ACCESS:          0  HIT:          0  MISS:          0
cpu0_L1I WRITEBACK ACCESS:          0  HIT:          0  MISS:          0
cpu0_STLB TOTAL     ACCESS:      22635  HIT:      22553  MISS:         82
cpu0_STLB LOAD      ACCESS:      21700  HIT:      21633  MISS:         67
cpu0_STLB RFO       ACCESS:        935  HIT:        920  MISS:         15
cpu0_STLB PREFETCH  ACCESS:          0  HIT:          0  MISS:          0
cpu0_STLB WRITEBACK ACCESS:          0  HIT:          0  MISS:          0
cpu0_L1D TOTAL     ACCESS:   13946451  HIT:   13815036  MISS:     131415
cpu0_L1D LOAD      ACCESS:    8090930  HIT:    7975417  MISS:     115513
cpu0_L1D RFO       ACCESS:    5855442  HIT:    5839592  MISS:      15850
cpu0_L1D PREFETCH  ACCESS:          0  HIT:          0  MISS:          0
cpu0_L1D WRITEBACK ACCESS:          0  HIT:          0  MISS:          0
cpu0_L2C TOTAL     ACCESS:     163149  HIT:     160548  MISS:       2601
cpu0_L2C LOAD      ACCESS:     118007  HIT:     116079  MISS:       1928
cpu0_L2C RFO       ACCESS:      15850  HIT:      15181  MISS:        669
cpu0_L2C PREFETCH  ACCESS:          0  HIT:          0  MISS:          0
cpu0_L2C WRITEBACK ACCESS:      29240  HIT:      29240  MISS:          0
LLC TOTAL     ACCESS:       2941  HIT:       1207  MISS:       1734
LLC LOAD      ACCESS:       1928  HIT:        856  MISS:       1072
LLC RFO       ACCESS:        669  HIT:          7  MISS:        662
LLC PREFETCH  ACCESS:          0  HIT:          0  MISS:          0
LLC WRITEBACK ACCESS:        340  HIT:        340  MISS:          0
Heartbeat CPU 0 instructions: 104000004 cycles: 65853549 heartbeat IPC: 1.0093 cumulative IPC: 1.01308 (Simulation time: 0 hr 47 min 43 sec) 

Region of Interest Statistics
cpu0_DTLB TOTAL     ACCESS:   10559918  HIT:   10536477  MISS:      23441
cpu0_DTLB LOAD      ACCESS:    7381714  HIT:    7359244  MISS:      22470
cpu0_DTLB RFO       ACCESS:    3178204  HIT:    3177233  MISS:        971
cpu0_DTLB PREFETCH  ACCESS:          0  HIT:          0  MISS:          0
cpu0_DTLB WRITEBACK ACCESS:          0  HIT:          0  MISS:          0
cpu0_ITLB TOTAL     ACCESS:    5988798  HIT:    5988798  MISS:          0
cpu0_ITLB LOAD      ACCESS:    5988798  HIT:    5988798  MISS:          0
cpu0_ITLB RFO       ACCESS:          0  HIT:          0  MISS:          0
cpu0_ITLB PREFETCH  ACCESS:          0  HIT:          0  MISS:          0
cpu0_ITLB WRITEBACK ACCESS:          0  HIT:          0  MISS:          0
cpu0_L1I TOTAL     ACCESS:    3370726  HIT:    3368146  MISS:       2580
cpu0_L1I LOAD      ACCESS:    3370726  HIT:    3368146  MISS:       2580
cpu0_L1I RFO       ACCESS:          0  HIT:          0  MISS:          0
cpu0_L1I PREFETCH  ACCESS:          0  HIT:          0  MISS:          0
cpu0_L1I WRITEBACK ACCESS:          0  HIT:          0  MISS:          0
cpu0_STLB TOTAL     ACCESS:      23441  HIT:      23357  MISS:         84
cpu0_STLB LOAD      ACCESS:      22470  HIT:      22401  MISS:         69
cpu0_STLB RFO       ACCESS:        971  HIT:        956  MISS:         15
cpu0_STLB PREFETCH  ACCESS:          0  HIT:          0  MISS:          0
cpu0_STLB WRITEBACK ACCESS:          0  HIT:          0  MISS:          0
cpu0_L1D TOTAL     ACCESS:   14481736  HIT:   14344942  MISS:     136794
cpu0_L1D LOAD      ACCESS:    8403993  HIT:    8283758  MISS:     120235
cpu0_L1D RFO       ACCESS:    6077662  HIT:    6061157  MISS:      16505
cpu0_L1D PREFETCH  ACCESS:          0  HIT:          0  MISS:          0
cpu0_L1D WRITEBACK ACCESS:          0  HIT:          0  MISS:          0
cpu0_L2C TOTAL     ACCESS:     169758  HIT:     167132  MISS:       2626
cpu0_L2C LOAD      ACCESS:     122815  HIT:     120862  MISS:       1953
cpu0_L2C RFO       ACCESS:      16505  HIT:      15836  MISS:        669
cpu0_L2C PREFETCH  ACCESS:          0  HIT:          0  MISS:          0
cpu0_L2C WRITEBACK ACCESS:      30384  HIT:      30384  MISS:          0
LLC TOTAL     ACCESS:       2968  HIT:       1225  MISS:       1743
LLC LOAD      ACCESS:       1953  HIT:        872  MISS:       1081
LLC RFO       ACCESS:        669  HIT:          7  MISS:        662
LLC PREFETCH  ACCESS:          0  HIT:          0  MISS:          0
LLC WRITEBACK ACCESS:        342  HIT:        342  MISS:          0
Heartbeat CPU 0 instructions: 106000002 cycles: 67787758 heartbeat IPC: 1.03401 cumulative IPC: 1.01381 (Simulation time: 0 hr 48 min 39 sec) 

Region of Interest Statistics
cpu0_DTLB TOTAL     ACCESS:   10944656  HIT:   10920310  MISS:      24346
cpu0_DTLB LOAD      ACCESS:    7650697  HIT:    7627360  MISS:      23337
cpu0_DTLB RFO       ACCESS:    3293959  HIT:    3292950  MISS:       1009
cpu0_DTLB PREFETCH  ACCESS:          0  HIT:          0  MISS:          0
cpu0_DTLB WRITEBACK ACCESS:          0  HIT:          0  MISS:          0
cpu0_ITLB TOTAL     ACCESS:    6209063  HIT:    6209063  MISS:          0
cpu0_ITLB LOAD      ACCESS:    6209063  HIT:    6209063  MISS:          0
cpu0_ITLB RFO       ACCESS:          0  HIT:          0  MISS:          0
cpu0_ITLB PREFETCH  ACCESS:          0  HIT:          0  MISS:          0
cpu0_ITLB WRITEBACK ACCESS:          0  HIT:          0  MISS:          0
cpu0_L1I TOTAL     ACCESS:    3491429  HIT:    3488750  MISS:       2679
cpu0_L1I LOAD      ACCESS:    3491429  HIT:    3488750  MISS:       2679
cpu0_L1I RFO       ACCESS:          0  HIT:          0  MISS:          0
cpu0_L1I PREFETCH  ACCESS:          0  HIT:          0  MISS:          0
cpu0_L1I WRITEBACK ACCESS:          0  HIT:          0  MISS:          0
cpu0_STLB TOTAL     ACCESS:      24346  HIT:      24258  MISS:         88
cpu0_STLB LOAD      ACCESS:      23337  HIT:      23264  MISS:         73
cpu0_STLB RFO       ACCESS:       1009  HIT:        994  MISS:         15
cpu0_STLB PREFETCH  ACCESS:          0  HIT:          0  MISS:          0
cpu0_STLB WRITEBACK ACCESS:          0  HIT:          0  MISS:          0
cpu0_L1D TOTAL     ACCESS:   15007289  HIT:   14864095  MISS:     143194
cpu0_L1D LOAD      ACCESS:    8709889  HIT:    8583989  MISS:     125900
cpu0_L1D RFO       ACCESS:    6297315  HIT:    6280079  MISS:      17236
cpu0_L1D PREFETCH  ACCESS:          0  HIT:          0  MISS:          0
cpu0_L1D WRITEBACK ACCESS:          0  HIT:          0  MISS:          0
cpu0_L2C TOTAL     ACCESS:     177701  HIT:     175056  MISS:       2645
cpu0_L2C LOAD      ACCESS:     128579  HIT:     126607  MISS:       1972
cpu0_L2C RFO       ACCESS:      17236  HIT:      16567  MISS:        669
cpu0_L2C PREFETCH  ACCESS:          0  HIT:          0  MISS:          0
cpu0_L2C WRITEBACK ACCESS:      31828  HIT:      31828  MISS:          0
[...]
cpu0_DTLB LOAD      ACCESS:  209886781  HIT:  209235619  MISS:     651162
cpu0_DTLB RFO       ACCESS:   92402398  HIT:   92363713  MISS:      38685
cpu0_DTLB PREFETCH  ACCESS:          0  HIT:          0  MISS:          0
cpu0_DTLB WRITEBACK ACCESS:          0  HIT:          0  MISS:          0
cpu0_ITLB TOTAL     ACCESS:  167641429  HIT:  167641161  MISS:        268
cpu0_ITLB LOAD      ACCESS:  167641429  HIT:  167641161  MISS:        268
cpu0_ITLB RFO       ACCESS:          0  HIT:          0  MISS:          0
cpu0_ITLB PREFETCH  ACCESS:          0  HIT:          0  MISS:          0
cpu0_ITLB WRITEBACK ACCESS:          0  HIT:          0  MISS:          0
cpu0_L1I TOTAL     ACCESS:   93066699  HIT:   92985906  MISS:      80793
cpu0_L1I LOAD      ACCESS:   93066699  HIT:   92985906  MISS:      80793
cpu0_L1I RFO       ACCESS:          0  HIT:          0  MISS:          0
cpu0_L1I PREFETCH  ACCESS:          0  HIT:          0  MISS:          0
cpu0_L1I WRITEBACK ACCESS:          0  HIT:          0  MISS:          0
cpu0_STLB TOTAL     ACCESS:     690115  HIT:     678952  MISS:      11163
cpu0_STLB LOAD      ACCESS:     651430  HIT:     644832  MISS:       6598
cpu0_STLB RFO       ACCESS:      38685  HIT:      34120  MISS:       4565
cpu0_STLB PREFETCH  ACCESS:          0  HIT:          0  MISS:          0
cpu0_STLB WRITEBACK ACCESS:          0  HIT:          0  MISS:          0
cpu0_L1D TOTAL     ACCESS:  410689899  HIT:  406034499  MISS:    4655400
cpu0_L1D LOAD      ACCESS:  238751430  HIT:  235129704  MISS:    3621726
cpu0_L1D RFO       ACCESS:  171927340  HIT:  170894961  MISS:    1032379
cpu0_L1D PREFETCH  ACCESS:          0  HIT:          0  MISS:          0
cpu0_L1D WRITEBACK ACCESS:          0  HIT:          0  MISS:          0
cpu0_L2C TOTAL     ACCESS:    6160310  HIT:    4874534  MISS:    1285776
cpu0_L2C LOAD      ACCESS:    3702500  HIT:    3028761  MISS:     673739
cpu0_L2C RFO       ACCESS:    1032353  HIT:     420695  MISS:     611658
cpu0_L2C PREFETCH  ACCESS:          0  HIT:          0  MISS:          0
cpu0_L2C WRITEBACK ACCESS:    1424162  HIT:    1423916  MISS:        246
LLC TOTAL     ACCESS:    1934153  HIT:     771521  MISS:    1162632
LLC LOAD      ACCESS:     673739  HIT:      75979  MISS:     597760
LLC RFO       ACCESS:     611658  HIT:      46984  MISS:     564674
LLC PREFETCH  ACCESS:          0  HIT:          0  MISS:          0
LLC WRITEBACK ACCESS:     648623  HIT:     648477  MISS:        146
Heartbeat CPU 0 instructions: 1550000000 cycles: 1649237621 heartbeat IPC: 1.02306 cumulative IPC: 0.916486 (Simulation time: 12 hr 22 min 13 sec) 

Region of Interest Statistics
cpu0_DTLB TOTAL     ACCESS:  302680211  HIT:  301989360  MISS:     690851
cpu0_DTLB LOAD      ACCESS:  210157986  HIT:  209505875  MISS:     652111
cpu0_DTLB RFO       ACCESS:   92522225  HIT:   92483485  MISS:      38740
cpu0_DTLB PREFETCH  ACCESS:          0  HIT:          0  MISS:          0
cpu0_DTLB WRITEBACK ACCESS:          0  HIT:          0  MISS:          0
cpu0_ITLB TOTAL     ACCESS:  167862634  HIT:  167862366  MISS:        268
cpu0_ITLB LOAD      ACCESS:  167862634  HIT:  167862366  MISS:        268
cpu0_ITLB RFO       ACCESS:          0  HIT:          0  MISS:          0
cpu0_ITLB PREFETCH  ACCESS:          0  HIT:          0  MISS:          0
cpu0_ITLB WRITEBACK ACCESS:          0  HIT:          0  MISS:          0
cpu0_L1I TOTAL     ACCESS:   93195432  HIT:   93114504  MISS:      80928
cpu0_L1I LOAD      ACCESS:   93195432  HIT:   93114504  MISS:      80928
cpu0_L1I RFO       ACCESS:          0  HIT:          0  MISS:          0
cpu0_L1I PREFETCH  ACCESS:          0  HIT:          0  MISS:          0
cpu0_L1I WRITEBACK ACCESS:          0  HIT:          0  MISS:          0
cpu0_STLB TOTAL     ACCESS:     691119  HIT:     679952  MISS:      11167
cpu0_STLB LOAD      ACCESS:     652379  HIT:     645779  MISS:       6600
cpu0_STLB RFO       ACCESS:      38740  HIT:      34173  MISS:       4567
cpu0_STLB PREFETCH  ACCESS:          0  HIT:          0  MISS:          0
cpu0_STLB WRITEBACK ACCESS:          0  HIT:          0  MISS:          0
cpu0_L1D TOTAL     ACCESS:  411225688  HIT:  406564880  MISS:    4660808
cpu0_L1D LOAD      ACCESS:  239060127  HIT:  235433849  MISS:    3626278
cpu0_L1D RFO       ACCESS:  172154428  HIT:  171121197  MISS:    1033231
cpu0_L1D PREFETCH  ACCESS:          0  HIT:          0  MISS:          0
cpu0_L1D WRITEBACK ACCESS:          0  HIT:          0  MISS:          0
cpu0_L2C TOTAL     ACCESS:    6167255  HIT:    4881287  MISS:    1285968
cpu0_L2C LOAD      ACCESS:    3707187  HIT:    3033425  MISS:     673762
cpu0_L2C RFO       ACCESS:    1033205  HIT:     421378  MISS:     611827
cpu0_L2C PREFETCH  ACCESS:          0  HIT:          0  MISS:          0
cpu0_L2C WRITEBACK ACCESS:    1425564  HIT:    1425318  MISS:        246
LLC TOTAL     ACCESS:    1934441  HIT:     771737  MISS:    1162704
LLC LOAD      ACCESS:     673762  HIT:      75996  MISS:     597766
LLC RFO       ACCESS:     611827  HIT:      47087  MISS:     564740
LLC PREFETCH  ACCESS:          0  HIT:          0  MISS:          0
LLC WRITEBACK ACCESS:     648719  HIT:     648573  MISS:        146
Finished CPU 0 instructions: 1500000001 cycles: 1636686865 cumulative IPC: 0.916486 (Simulation time: 12 hr 22 min 13 sec) 

ChampSim completed all CPUs

Region of Interest Statistics

CPU 0 cumulative IPC: 0.916486 instructions: 1500000001 cycles: 1636686865
cpu0_DTLB TOTAL     ACCESS:  302680211  HIT:  301989360  MISS:     690851
cpu0_DTLB LOAD      ACCESS:  210157986  HIT:  209505875  MISS:     652111
cpu0_DTLB RFO       ACCESS:   92522225  HIT:   92483485  MISS:      38740
cpu0_DTLB PREFETCH  ACCESS:          0  HIT:          0  MISS:          0
cpu0_DTLB WRITEBACK ACCESS:          0  HIT:          0  MISS:          0
cpu0_DTLB TRANSLATION ACCESS:          0  HIT:          0  MISS:          0
cpu0_DTLB PREFETCH  REQUESTED:          0  ISSUED:          0  USEFUL:          0  USELESS:          0
cpu0_DTLB AVERAGE MISS LATENCY: 9.80655 cycles
cpu0_ITLB TOTAL     ACCESS:  167862634  HIT:  167862366  MISS:        268
cpu0_ITLB LOAD      ACCESS:  167862634  HIT:  167862366  MISS:        268
cpu0_ITLB RFO       ACCESS:          0  HIT:          0  MISS:          0
cpu0_ITLB PREFETCH  ACCESS:          0  HIT:          0  MISS:          0
cpu0_ITLB WRITEBACK ACCESS:          0  HIT:          0  MISS:          0
cpu0_ITLB TRANSLATION ACCESS:          0  HIT:          0  MISS:          0
cpu0_ITLB PREFETCH  REQUESTED:          0  ISSUED:          0  USEFUL:          0  USELESS:          0
cpu0_ITLB AVERAGE MISS LATENCY: 46.2164 cycles
cpu0_L1I TOTAL     ACCESS:   93195432  HIT:   93114504  MISS:      80928
cpu0_L1I LOAD      ACCESS:   93195432  HIT:   93114504  MISS:      80928
cpu0_L1I RFO       ACCESS:          0  HIT:          0  MISS:          0
cpu0_L1I PREFETCH  ACCESS:          0  HIT:          0  MISS:          0
cpu0_L1I WRITEBACK ACCESS:          0  HIT:          0  MISS:          0
cpu0_L1I TRANSLATION ACCESS:          0  HIT:          0  MISS:          0
cpu0_L1I PREFETCH  REQUESTED:          0  ISSUED:          0  USEFUL:          0  USELESS:          0
cpu0_L1I AVERAGE MISS LATENCY: 26.8069 cycles
cpu0_STLB TOTAL     ACCESS:     691119  HIT:     679952  MISS:      11167
cpu0_STLB LOAD      ACCESS:     652379  HIT:     645779  MISS:       6600
cpu0_STLB RFO       ACCESS:      38740  HIT:      34173  MISS:       4567
cpu0_STLB PREFETCH  ACCESS:          0  HIT:          0  MISS:          0
cpu0_STLB WRITEBACK ACCESS:          0  HIT:          0  MISS:          0
cpu0_STLB TRANSLATION ACCESS:          0  HIT:          0  MISS:          0
cpu0_STLB PREFETCH  REQUESTED:          0  ISSUED:          0  USEFUL:          0  USELESS:          0
cpu0_STLB AVERAGE MISS LATENCY: 50.7444 cycles
cpu0_L1D TOTAL     ACCESS:  411225688  HIT:  406564880  MISS:    4660808
cpu0_L1D LOAD      ACCESS:  239060127  HIT:  235433849  MISS:    3626278
cpu0_L1D RFO       ACCESS:  172154428  HIT:  171121197  MISS:    1033231
cpu0_L1D PREFETCH  ACCESS:          0  HIT:          0  MISS:          0
cpu0_L1D WRITEBACK ACCESS:          0  HIT:          0  MISS:          0
cpu0_L1D TRANSLATION ACCESS:      11133  HIT:       9834  MISS:       1299
cpu0_L1D PREFETCH  REQUESTED:          0  ISSUED:          0  USEFUL:          0  USELESS:          0
cpu0_L1D AVERAGE MISS LATENCY: 83.0663 cycles
cpu0_L2C TOTAL     ACCESS:    6167255  HIT:    4881287  MISS:    1285968
cpu0_L2C LOAD      ACCESS:    3707187  HIT:    3033425  MISS:     673762
cpu0_L2C RFO       ACCESS:    1033205  HIT:     421378  MISS:     611827
cpu0_L2C PREFETCH  ACCESS:          0  HIT:          0  MISS:          0
cpu0_L2C WRITEBACK ACCESS:    1425564  HIT:    1425318  MISS:        246
cpu0_L2C TRANSLATION ACCESS:       1299  HIT:       1166  MISS:        133
cpu0_L2C PREFETCH  REQUESTED:          0  ISSUED:          0  USEFUL:          0  USELESS:          0
cpu0_L2C AVERAGE MISS LATENCY: 262.152 cycles
LLC TOTAL     ACCESS:    1934441  HIT:     771737  MISS:    1162704
LLC LOAD      ACCESS:     673762  HIT:      75996  MISS:     597766
LLC RFO       ACCESS:     611827  HIT:      47087  MISS:     564740
LLC PREFETCH  ACCESS:          0  HIT:          0  MISS:          0
LLC WRITEBACK ACCESS:     648719  HIT:     648573  MISS:        146
LLC TRANSLATION ACCESS:        133  HIT:         81  MISS:         52
LLC PREFETCH  REQUESTED:          0  ISSUED:          0  USEFUL:          0  USELESS:          0
LLC AVERAGE MISS LATENCY: 266.722 cycles
~~~~~~~~~~Reuse Distance Profiler output~~~~~~~~~~
0	0	0
1	0	0
2	0	0
3	0	0
4	0	0
5	0	0
6	0	0
7	0	0
8	0	0
9	0	0
10	0	0
11	0	0
12	0	0
13	0	0
14	0	0
15	0	0
16	0	0
17	0	0
18	0	0
19	0	0
20	0	0
21	0	0
22	0	0
23	0	0
24	0	0
25	0	0
26	0	0
27	0	0
28	0	0
29	0	0
30	0	0
31	0	0
32	0	0
33	0	0
34	0	0
35	0	0
36	0	0
37	0	0
38	0	0
39	0	0
40	0	0
41	0	0
42	0	0
43	0	0
44	0	0
45	0	0
46	0	0
47	0	0
48	0	0
49	0	0
50	0	0
51	0	0
52	0	0
53	0	0
54	0	0
55	0	0
56	0	0
57	0	0
58	0	0
59	0	0
60	0	0
61	0	0
62	0	0
63	0	0
64	0	0
66	0	0
68	0	0
70	0	0
72	0	0
74	0	0
76	0	0
78	0	0
80	0	0
82	0	0
84	0	0
86	0	0
88	0	0
90	0	0
92	0	0
94	0	0
96	0	0
98	0	0
100	0	0
102	0	0
104	0	0
106	0	0
108	0	0
110	0	0
112	0	0
114	0	0
116	0	0
118	0	0
120	0	0
122	0	0
124	0	0
126	0	0
128	0	0
132	0	0
136	0	0
140	0	0
144	0	0
148	0	0
152	0	0
156	0	0
160	0	0
164	0	0
168	0	0
172	0	0
176	0	0
180	0	0
184	0	0
188	0	0
192	0	0
196	0	0
200	0	0
204	0	0
208	0	0
212	0	0
216	0	0
220	0	0
224	0	0
228	0	0
232	0	0
236	0	0
240	0	0
244	0	0
248	0	0
252	0	0
256	0	0
264	0	0
272	0	0
280	0	0
288	0	0
296	0	0
304	0	0
312	0	0
320	0	0
328	0	0
336	0	0
344	0	0
352	0	0
360	0	0
368	0	0
376	0	0
384	0	0
392	0	0
400	0	0
408	0	0
416	0	0
424	0	0
432	0	0
440	0	0
448	0	0
456	0	0
464	0	0
472	0	0
480	0	0
488	0	0
496	0	0
504	0	0
512	0	0
528	0	0
544	0	0
560	0	0
576	0	0
592	0	0
608	0	0
624	0	0
640	0	0
656	0	0
672	0	0
688	0	0
704	0	0
720	0	0
736	0	0
752	0	0
768	0	0
784	0	0
800	0	0
816	0	0
832	0	0
848	0	0
864	0	0
880	0	0
896	0	0
912	0	0
928	0	0
944	0	0
960	0	0
976	0	0
992	0	0
1008	0	0
1024	0	0
1056	0	0
1088	0	0
1120	0	0
1152	0	0
1184	0	0
1216	0	0
1248	0	0
1280	0	0
1312	0	0
1344	0	0
1376	0	0
1408	0	0
1440	0	0
1472	0	0
1504	0	0
1536	0	0
1568	0	0
1600	0	0
1632	0	0
1664	0	0
1696	0	0
1728	0	0
1760	0	0
1792	0	0
1824	0	0
1856	0	0
1888	0	0
1920	0	0
1952	0	0
1984	0	0
2016	0	0
2048	0	0
2112	0	0
2176	0	0
2240	0	0
2304	0	0
2368	0	0
2432	0	0
2496	0	0
2560	0	0
2624	0	0
2688	0	0
2752	0	0
2816	0	0
2880	0	0
2944	0	0
3008	0	0
3072	0	0
3136	0	0
3200	0	0
3264	0	0
3328	0	0
3392	0	0
3456	0	0
3520	0	0
3584	0	0
3648	0	0
3712	0	0
3776	0	0
3840	0	0
3904	0	0
3968	0	0
4032	0	0
4096	0	0
4224	0	0
4352	0	0
4480	0	0
4608	0	0
4736	0	0
4864	0	0
4992	0	0
5120	0	0
5248	0	0
5376	0	0
5504	0	0
5632	0	0
5760	0	0
5888	0	0
6016	0	0
6144	0	0
6272	0	0
6400	0	0
6528	0	0
6656	0	0
6784	0	0
6912	0	0
7040	0	0
7168	0	0
7296	0	0
7424	0	0
7552	0	0
7680	0	0
7808	0	0
7936	0	0
8064	0	0
8192	0	0
8448	0	0
8704	0	0
8960	0	0
9216	0	0
9472	0	0
9728	0	0
9984	0	0
10240	0	0
10496	0	0
10752	0	0
11008	0	0
11264	0	0
11520	0	0
11776	0	0
12032	0	0
12288	0	0
12544	0	0
12800	0	0
13056	0	0
13312	0	0
13568	0	0
13824	0	0
14080	0	0
14336	0	0
14592	0	0
14848	0	0
15104	0	0
15360	0	0
15616	0	0
15872	0	0
16128	0	0
16384	0	0
16896	0	0
17408	0	0
17920	0	0
18432	0	0
18944	0	0
19456	0	0
19968	0	0
20480	0	0
20992	0	0
21504	0	0
22016	0	0
22528	0	0
23040	0	0
23552	0	0
24064	0	0
24576	0	0
25088	0	0
25600	0	0
26112	0	0
26624	0	0
27136	0	0
27648	0	0
28160	0	0
28672	0	0
29184	0	0
29696	0	0
30208	0	0
30720	0	0
31232	0	0
31744	0	0
32256	0	0
32768	0	0
33792	0	0
34816	0	0
35840	0	0
36864	0	0
37888	0	0
38912	0	0
39936	0	0
40960	0	0
41984	0	0
43008	0	0
44032	0	0
45056	0	0
46080	0	0
47104	0	0
48128	0	0
49152	0	0
50176	0	0
51200	0	0
52224	0	0
53248	0	0
54272	0	0
55296	0	0
56320	0	0
57344	0	0
58368	0	0
59392	0	0
60416	0	0
61440	0	0
62464	0	0
63488	0	0
64512	0	0
65536	0	0
67584	0	0
69632	0	0
71680	0	0
73728	0	0
75776	0	0
77824	0	0
79872	0	0
81920	0	0
83968	0	0
86016	0	0
88064	0	0
90112	0	0
92160	0	0
94208	0	0
96256	0	0
98304	0	0
100352	0	0
102400	0	0
104448	0	0
106496	0	0
108544	0	0
110592	0	0
112640	0	0
114688	0	0
116736	0	0
118784	0	0
120832	0	0
122880	0	0
124928	0	0
126976	0	0
129024	0	0
131072	0	0
135168	0	0
139264	0	0
143360	0	0
147456	0	0
151552	0	0
155648	0	0
159744	0	0
163840	0	0
167936	0	0
172032	0	0
176128	0	0
180224	0	0
184320	0	0
188416	0	0
192512	0	0
196608	0	0
200704	0	0
204800	0	0
208896	0	0
212992	0	0
217088	0	0
221184	0	0
225280	0	0
229376	0	0
233472	0	0
237568	0	0
241664	0	0
245760	0	0
249856	0	0
253952	0	0
258048	0	0
262144	0	0
270336	0	0
278528	0	0
286720	0	0
294912	0	0
303104	0	0
311296	0	0
319488	0	0
327680	0	0
335872	0	0
344064	0	0
352256	0	0
360448	0	0
368640	0	0
376832	0	0
385024	0	0
393216	0	0
401408	0	0
409600	0	0
417792	0	0
425984	0	0
434176	0	0
442368	0	0
450560	0	0
458752	0	0
466944	0	0
475136	0	0
483328	0	0
491520	0	0
499712	0	0
507904	0	0
516096	0	0
524288	0	0
540672	0	0
557056	0	0
573440	0	0
589824	0	0
606208	0	0
622592	0	0
638976	0	0
655360	0	0
671744	0	0
688128	0	0
704512	0	0
720896	0	0
737280	0	0
753664	0	0
770048	0	0
786432	0	0
802816	0	0
819200	0	0
835584	0	0
851968	0	0
868352	0	0
884736	0	0
901120	0	0
917504	0	0
933888	0	0
950272	0	0
966656	0	0
983040	0	0
999424	0	0
1015808	0	0
1032192	0	0
1048576	0	0
1081344	0	0
1114112	0	0
1146880	0	0
1179648	0	0
1212416	0	0
1245184	0	0
1277952	0	0
1310720	0	0
1343488	0	0
1376256	0	0
1409024	0	0
1441792	0	0
1474560	0	0
1507328	0	0
1540096	0	0
1572864	0	0
1605632	0	0
1638400	0	0
1671168	0	0
1703936	0	0
1736704	0	0
1769472	0	0
1802240	0	0
1835008	0	0
1867776	0	0
1900544	0	0
1933312	0	0
1966080	0	0
1998848	0	0
2031616	0	0
2064384	0	0
2097152	0	0
2162688	0	0
2228224	0	0
2293760	0	0
2359296	0	0
2424832	0	0
2490368	0	0
2555904	0	0
2621440	0	0
2686976	0	0
2752512	0	0
2818048	0	0
2883584	0	0
2949120	0	0
3014656	0	0
3080192	0	0
3145728	0	0
3211264	0	0
3276800	0	0
3342336	0	0
3407872	0	0
3473408	0	0
3538944	0	0
3604480	0	0
3670016	0	0
3735552	0	0
3801088	0	0
3866624	0	0
3932160	0	0
3997696	0	0
4063232	0	0
4128768	0	0
4194304	0	0
4325376	0	0
4456448	0	0
4587520	0	0
4718592	0	0
4849664	0	0
4980736	0	0
5111808	0	0
5242880	0	0
5373952	0	0
5505024	0	0
5636096	0	0
5767168	0	0
5898240	0	0
6029312	0	0
6160384	0	0
6291456	0	0
6422528	0	0
6553600	0	0
6684672	0	0
6815744	0	0
6946816	0	0
7077888	0	0
7208960	0	0
7340032	0	0
7471104	0	0
7602176	0	0
7733248	0	0
7864320	0	0
7995392	0	0
8126464	0	0
8257536	0	0
8388608	0	0
8650752	0	0
8912896	0	0
9175040	0	0
9437184	0	0
9699328	0	0
9961472	0	0
10223616	0	0
10485760	0	0
10747904	0	0
11010048	0	0
11272192	0	0
11534336	0	0
11796480	0	0
12058624	0	0
12320768	0	0
12582912	0	0
12845056	0	0
13107200	0	0
13369344	0	0
13631488	0	0
13893632	0	0
14155776	0	0
14417920	0	0
14680064	0	0
14942208	0	0
15204352	0	0
15466496	0	0
15728640	0	0
15990784	0	0
16252928	0	0
16515072	0	0
16777216	0	0
17301504	0	0
17825792	0	0
18350080	0	0
18874368	0	0
19398656	0	0
19922944	0	0
20447232	0	0
20971520	0	0
21495808	0	0
22020096	0	0
22544384	0	0
23068672	0	0
23592960	0	0
24117248	0	0
24641536	0	0
25165824	0	0
25690112	0	0
26214400	0	0
26738688	0	0
27262976	0	0
27787264	0	0
28311552	0	0
28835840	0	0
29360128	0	0
29884416	0	0
30408704	0	0
30932992	0	0
31457280	0	0
31981568	0	0
32505856	0	0
33030144	0	0
33554432	0	0
34603008	0	0
35651584	0	0
36700160	0	0
37748736	0	0
38797312	0	0
39845888	0	0
40894464	0	0
41943040	0	0
42991616	0	0
44040192	0	0
45088768	0	0
46137344	0	0
47185920	0	0
48234496	0	0
49283072	0	0
50331648	0	0
51380224	0	0
52428800	0	0
53477376	0	0
54525952	0	0
55574528	0	0
56623104	0	0
57671680	0	0
58720256	0	0
59768832	0	0
60817408	0	0
61865984	0	0
62914560	0	0
63963136	0	0
65011712	0	0
66060288	0	0
67108864	0	0
69206016	0	0
71303168	0	0
73400320	0	0
75497472	0	0
77594624	0	0
79691776	0	0
81788928	0	0
83886080	0	0
85983232	0	0
88080384	0	0
90177536	0	0
92274688	0	0
94371840	0	0
96468992	0	0
98566144	0	0
100663296	0	0
102760448	0	0
104857600	0	0
106954752	0	0
109051904	0	0
111149056	0	0
113246208	0	0
115343360	0	0
117440512	0	0
119537664	0	0
121634816	0	0
123731968	0	0
125829120	0	0
127926272	0	0
130023424	0	0
132120576	0	0
134217728	0	0
138412032	0	0
142606336	0	0
146800640	0	0
150994944	0	0
155189248	0	0
159383552	0	0
163577856	0	0
167772160	0	0
171966464	0	0
176160768	0	0
180355072	0	0
184549376	0	0
188743680	0	0
192937984	0	0
197132288	0	0
201326592	0	0
205520896	0	0
209715200	0	0
213909504	0	0
218103808	0	0
222298112	0	0
226492416	0	0
230686720	0	0
234881024	0	0
239075328	0	0
243269632	0	0
247463936	0	0
251658240	0	0
255852544	0	0
260046848	0	0
264241152	0	0
268435456	0	0
276824064	0	0
285212672	0	0
293601280	0	0
301989888	0	0
310378496	0	0
318767104	0	0
327155712	0	0
335544320	0	0
343932928	0	0
352321536	0	0
360710144	0	0
369098752	0	0
377487360	0	0
385875968	0	0
394264576	0	0
402653184	0	0
411041792	0	0
419430400	0	0
427819008	0	0
436207616	0	0
444596224	0	0
452984832	0	0
461373440	0	0
469762048	0	0
478150656	0	0
486539264	0	0
494927872	0	0
503316480	0	0
511705088	0	0
520093696	0	0
528482304	0	0
536870912	0	0
553648128	0	0
570425344	0	0
587202560	0	0
603979776	0	0
620756992	0	0
637534208	0	0
654311424	0	0
671088640	0	0
687865856	0	0
704643072	0	0
721420288	0	0
738197504	0	0
754974720	0	0
771751936	0	0
788529152	0	0
805306368	0	0
822083584	0	0
838860800	0	0
855638016	0	0
872415232	0	0
889192448	0	0
905969664	0	0
922746880	0	0
939524096	0	0
956301312	0	0
973078528	0	0
989855744	0	0
1006632960	0	0
1023410176	0	0
1040187392	0	0
1056964608	0	0
1073741824	0	0
1107296256	0	0
1140850688	0	0
1174405120	0	0
1207959552	0	0
1241513984	0	0
1275068416	0	0
1308622848	0	0
1342177280	0	0
1375731712	0	0
1409286144	0	0
1442840576	0	0
1476395008	0	0
1509949440	0	0
1543503872	0	0
1577058304	0	0
1610612736	0	0
1644167168	0	0
1677721600	0	0
1711276032	0	0
1744830464	0	0
1778384896	0	0
1811939328	0	0
1845493760	0	0
1879048192	0	0
1912602624	0	0
1946157056	0	0
1979711488	0	0
2013265920	0	0
2046820352	0	0
2080374784	0	0
2113929216	0	0
2147483648	0	0
2214592512	0	0
2281701376	0	0
2348810240	0	0
2415919104	0	0
2483027968	0	0
2550136832	0	0
2617245696	0	0
2684354560	0	0
2751463424	0	0
2818572288	0	0
2885681152	0	0
2952790016	0	0
3019898880	0	0
3087007744	0	0
3154116608	0	0
3221225472	0	0
3288334336	0	0
3355443200	0	0
3422552064	0	0
3489660928	0	0
3556769792	0	0
3623878656	0	0
3690987520	0	0
3758096384	0	0
3825205248	0	0
3892314112	0	0
3959422976	0	0
4026531840	0	0
4093640704	0	0
4160749568	0	0
4227858432	0	0
~~~~~~~~~~Reuse Distance Profiler output end~~~~~~~~~~

Sampler size:0

DRAM Statistics
 CHANNEL 0
 RQ ROW_BUFFER_HIT:      59247  ROW_BUFFER_MISS:    1102979
 DBUS AVG_CONGESTED_CYCLE:    3.98581
 WQ ROW_BUFFER_HIT:      85886  ROW_BUFFER_MISS:     499715  FULL:          0


CPU 0 Branch Prediction Accuracy: 85.0513% MPKI: 25.1011 Average ROB Occupancy at Mispredict: 18.6315
Branch type MPKI
BRANCH_DIRECT_JUMP: 9.33333e-05
BRANCH_INDIRECT: 0.002658
BRANCH_CONDITIONAL: 25.0979
BRANCH_DIRECT_CALL: 0.000195333
BRANCH_INDIRECT_CALL: 7.86667e-05
BRANCH_RETURN: 0.00021

