
*** ChampSim Multicore Out-of-Order Simulator ***

Warmup Instructions: 50000000
Simulation Instructions: 1500000000
Number of CPUs: 1
Off-chip DRAM Size: 4 GiB Channels: 1 Width: 64-bit Data Rate: 3200 MT/s

VirtualMemory physical capacity: 8588881920 num_ppages: 2096895
VirtualMemory page size: 4096 log2_page_size: 12

CPU 0 runs /s/traces/champsim_traces/654.roms_s-294B.champsimtrace.xz
CPU 0 Bimodal branch predictor
Basic BTB sets: 1024 ways: 8 indirect buffer size: 4096 RAS size: 64
Initializing LRU.
Initializing LRU.
Initializing LRU.
Initializing LRU.
Initializing rdLRU.
Initializing LRU.
Initializing LRU.
Heartbeat CPU 0 instructions: 2000004 cycles: 766182 heartbeat IPC: 2.61035 cumulative IPC: 2.61035 (Simulation time: 0 hr 1 min 39 sec) 
Heartbeat CPU 0 instructions: 4000003 cycles: 1531494 heartbeat IPC: 2.61331 cumulative IPC: 2.61183 (Simulation time: 0 hr 3 min 10 sec) 
Heartbeat CPU 0 instructions: 6000003 cycles: 2297536 heartbeat IPC: 2.61082 cumulative IPC: 2.61149 (Simulation time: 0 hr 4 min 37 sec) 
Heartbeat CPU 0 instructions: 8000001 cycles: 3062847 heartbeat IPC: 2.61331 cumulative IPC: 2.61195 (Simulation time: 0 hr 6 min 4 sec) 
Heartbeat CPU 0 instructions: 10000000 cycles: 3828158 heartbeat IPC: 2.61332 cumulative IPC: 2.61222 (Simulation time: 0 hr 7 min 30 sec) 
Heartbeat CPU 0 instructions: 12000003 cycles: 4594206 heartbeat IPC: 2.61081 cumulative IPC: 2.61199 (Simulation time: 0 hr 9 min 1 sec) 
Heartbeat CPU 0 instructions: 14000002 cycles: 5359522 heartbeat IPC: 2.6133 cumulative IPC: 2.61217 (Simulation time: 0 hr 10 min 33 sec) 
Heartbeat CPU 0 instructions: 16000000 cycles: 6125563 heartbeat IPC: 2.61082 cumulative IPC: 2.612 (Simulation time: 0 hr 12 min 0 sec) 
Heartbeat CPU 0 instructions: 18000000 cycles: 6890875 heartbeat IPC: 2.61331 cumulative IPC: 2.61215 (Simulation time: 0 hr 13 min 26 sec) 
Heartbeat CPU 0 instructions: 20000001 cycles: 7656187 heartbeat IPC: 2.61331 cumulative IPC: 2.61227 (Simulation time: 0 hr 14 min 56 sec) 
Heartbeat CPU 0 instructions: 22000004 cycles: 8422236 heartbeat IPC: 2.6108 cumulative IPC: 2.61213 (Simulation time: 0 hr 16 min 27 sec) 
Heartbeat CPU 0 instructions: 24000000 cycles: 9187545 heartbeat IPC: 2.61332 cumulative IPC: 2.61223 (Simulation time: 0 hr 17 min 47 sec) 
Heartbeat CPU 0 instructions: 26000004 cycles: 9952858 heartbeat IPC: 2.61332 cumulative IPC: 2.61232 (Simulation time: 0 hr 19 min 17 sec) 
Heartbeat CPU 0 instructions: 28000002 cycles: 10718906 heartbeat IPC: 2.6108 cumulative IPC: 2.61221 (Simulation time: 0 hr 20 min 41 sec) 
Heartbeat CPU 0 instructions: 30000001 cycles: 11484217 heartbeat IPC: 2.61332 cumulative IPC: 2.61228 (Simulation time: 0 hr 22 min 9 sec) 
Heartbeat CPU 0 instructions: 32000001 cycles: 12250261 heartbeat IPC: 2.61082 cumulative IPC: 2.61219 (Simulation time: 0 hr 23 min 37 sec) 
Heartbeat CPU 0 instructions: 34000001 cycles: 13015574 heartbeat IPC: 2.61331 cumulative IPC: 2.61226 (Simulation time: 0 hr 25 min 7 sec) 
Heartbeat CPU 0 instructions: 36000002 cycles: 13780888 heartbeat IPC: 2.61331 cumulative IPC: 2.61231 (Simulation time: 0 hr 26 min 38 sec) 
Heartbeat CPU 0 instructions: 38000001 cycles: 14546933 heartbeat IPC: 2.61081 cumulative IPC: 2.61223 (Simulation time: 0 hr 28 min 10 sec) 
Heartbeat CPU 0 instructions: 40000003 cycles: 15312250 heartbeat IPC: 2.6133 cumulative IPC: 2.61229 (Simulation time: 0 hr 29 min 38 sec) 
Heartbeat CPU 0 instructions: 42000000 cycles: 16077559 heartbeat IPC: 2.61332 cumulative IPC: 2.61234 (Simulation time: 0 hr 31 min 10 sec) 
Heartbeat CPU 0 instructions: 44000001 cycles: 16843605 heartbeat IPC: 2.61081 cumulative IPC: 2.61227 (Simulation time: 0 hr 32 min 41 sec) 
Heartbeat CPU 0 instructions: 46000001 cycles: 17608916 heartbeat IPC: 2.61332 cumulative IPC: 2.61231 (Simulation time: 0 hr 34 min 13 sec) 
Heartbeat CPU 0 instructions: 48000001 cycles: 18374964 heartbeat IPC: 2.6108 cumulative IPC: 2.61225 (Simulation time: 0 hr 35 min 45 sec) 
Heartbeat CPU 0 instructions: 50000004 cycles: 19140281 heartbeat IPC: 2.6133 cumulative IPC: 2.61229 (Simulation time: 0 hr 37 min 18 sec) 

Warmup complete CPU 0 instructions: 50000004 cycles: 19140281 (Simulation time: 0 hr 37 min 18 sec) 

Heartbeat CPU 0 instructions: 52000004 cycles: 22136858 heartbeat IPC: 0.667428 cumulative IPC: 0.667428 (Simulation time: 0 hr 40 min 48 sec) 

Region of Interest Statistics
cpu0_DTLB TOTAL     ACCESS:     550056  HIT:     549270  MISS:        786
cpu0_DTLB LOAD      ACCESS:     486543  HIT:     485761  MISS:        782
cpu0_DTLB RFO       ACCESS:      63513  HIT:      63509  MISS:          4
cpu0_DTLB PREFETCH  ACCESS:          0  HIT:          0  MISS:          0
cpu0_DTLB WRITEBACK ACCESS:          0  HIT:          0  MISS:          0
cpu0_ITLB TOTAL     ACCESS:       3087  HIT:       3087  MISS:          0
cpu0_ITLB LOAD      ACCESS:       3087  HIT:       3087  MISS:          0
cpu0_ITLB RFO       ACCESS:          0  HIT:          0  MISS:          0
cpu0_ITLB PREFETCH  ACCESS:          0  HIT:          0  MISS:          0
cpu0_ITLB WRITEBACK ACCESS:          0  HIT:          0  MISS:          0
cpu0_STLB TOTAL     ACCESS:        786  HIT:        131  MISS:        655
cpu0_STLB LOAD      ACCESS:        782  HIT:        131  MISS:        651
cpu0_STLB RFO       ACCESS:          4  HIT:          0  MISS:          4
cpu0_STLB PREFETCH  ACCESS:          0  HIT:          0  MISS:          0
cpu0_STLB WRITEBACK ACCESS:          0  HIT:          0  MISS:          0
cpu0_L1D TOTAL     ACCESS:     462352  HIT:     436174  MISS:      26178
cpu0_L1D LOAD      ACCESS:     394735  HIT:     368991  MISS:      25744
cpu0_L1D RFO       ACCESS:      66963  HIT:      66702  MISS:        261
cpu0_L1D PREFETCH  ACCESS:          0  HIT:          0  MISS:          0
cpu0_L1D WRITEBACK ACCESS:          0  HIT:          0  MISS:          0
cpu0_L2C TOTAL     ACCESS:      26601  HIT:        469  MISS:      26132
cpu0_L2C LOAD      ACCESS:      25743  HIT:        286  MISS:      25457
cpu0_L2C RFO       ACCESS:        261  HIT:          0  MISS:        261
cpu0_L2C PREFETCH  ACCESS:          0  HIT:          0  MISS:          0
cpu0_L2C WRITEBACK ACCESS:        424  HIT:        173  MISS:        251
LLC TOTAL     ACCESS:      26168  HIT:        499  MISS:      25669
LLC LOAD      ACCESS:      25457  HIT:        447  MISS:      25010
LLC RFO       ACCESS:        261  HIT:          0  MISS:        261
LLC PREFETCH  ACCESS:          0  HIT:          0  MISS:          0
LLC WRITEBACK ACCESS:        287  HIT:         30  MISS:        257
Heartbeat CPU 0 instructions: 54000003 cycles: 25144932 heartbeat IPC: 0.664877 cumulative IPC: 0.66615 (Simulation time: 0 hr 44 min 10 sec) 

Region of Interest Statistics
cpu0_DTLB TOTAL     ACCESS:    1101025  HIT:    1099452  MISS:       1573
cpu0_DTLB LOAD      ACCESS:     974043  HIT:     972476  MISS:       1567
cpu0_DTLB RFO       ACCESS:     126982  HIT:     126976  MISS:          6
cpu0_DTLB PREFETCH  ACCESS:          0  HIT:          0  MISS:          0
cpu0_DTLB WRITEBACK ACCESS:          0  HIT:          0  MISS:          0
cpu0_ITLB TOTAL     ACCESS:       6110  HIT:       6110  MISS:          0
cpu0_ITLB LOAD      ACCESS:       6110  HIT:       6110  MISS:          0
cpu0_ITLB RFO       ACCESS:          0  HIT:          0  MISS:          0
cpu0_ITLB PREFETCH  ACCESS:          0  HIT:          0  MISS:          0
cpu0_ITLB WRITEBACK ACCESS:          0  HIT:          0  MISS:          0
cpu0_STLB TOTAL     ACCESS:       1573  HIT:        265  MISS:       1308
cpu0_STLB LOAD      ACCESS:       1567  HIT:        265  MISS:       1302
cpu0_STLB RFO       ACCESS:          6  HIT:          0  MISS:          6
cpu0_STLB PREFETCH  ACCESS:          0  HIT:          0  MISS:          0
cpu0_STLB WRITEBACK ACCESS:          0  HIT:          0  MISS:          0
cpu0_L1D TOTAL     ACCESS:     924818  HIT:     872650  MISS:      52168
cpu0_L1D LOAD      ACCESS:     789551  HIT:     738118  MISS:      51433
cpu0_L1D RFO       ACCESS:     133960  HIT:     133568  MISS:        392
cpu0_L1D PREFETCH  ACCESS:          0  HIT:          0  MISS:          0
cpu0_L1D WRITEBACK ACCESS:          0  HIT:          0  MISS:          0
cpu0_L2C TOTAL     ACCESS:      52894  HIT:        925  MISS:      51969
cpu0_L2C LOAD      ACCESS:      51431  HIT:        568  MISS:      50863
cpu0_L2C RFO       ACCESS:        392  HIT:          0  MISS:        392
cpu0_L2C PREFETCH  ACCESS:          0  HIT:          0  MISS:          0
cpu0_L2C WRITEBACK ACCESS:        728  HIT:        347  MISS:        381
LLC TOTAL     ACCESS:      52165  HIT:        866  MISS:      51299
LLC LOAD      ACCESS:      50863  HIT:        743  MISS:      50120
LLC RFO       ACCESS:        392  HIT:          0  MISS:        392
LLC PREFETCH  ACCESS:          0  HIT:          0  MISS:          0
LLC WRITEBACK ACCESS:        577  HIT:         80  MISS:        497
Heartbeat CPU 0 instructions: 56000000 cycles: 28133761 heartbeat IPC: 0.669157 cumulative IPC: 0.66715 (Simulation time: 0 hr 47 min 37 sec) 

Region of Interest Statistics
cpu0_DTLB TOTAL     ACCESS:    1651041  HIT:    1648671  MISS:       2370
cpu0_DTLB LOAD      ACCESS:    1460572  HIT:    1458212  MISS:       2360
cpu0_DTLB RFO       ACCESS:     190469  HIT:     190459  MISS:         10
cpu0_DTLB PREFETCH  ACCESS:          0  HIT:          0  MISS:          0
cpu0_DTLB WRITEBACK ACCESS:          0  HIT:          0  MISS:          0
cpu0_ITLB TOTAL     ACCESS:       9237  HIT:       9237  MISS:          0
cpu0_ITLB LOAD      ACCESS:       9237  HIT:       9237  MISS:          0
cpu0_ITLB RFO       ACCESS:          0  HIT:          0  MISS:          0
cpu0_ITLB PREFETCH  ACCESS:          0  HIT:          0  MISS:          0
cpu0_ITLB WRITEBACK ACCESS:          0  HIT:          0  MISS:          0
cpu0_STLB TOTAL     ACCESS:       2370  HIT:        397  MISS:       1973
cpu0_STLB LOAD      ACCESS:       2360  HIT:        397  MISS:       1963
cpu0_STLB RFO       ACCESS:         10  HIT:          0  MISS:         10
cpu0_STLB PREFETCH  ACCESS:          0  HIT:          0  MISS:          0
cpu0_STLB WRITEBACK ACCESS:          0  HIT:          0  MISS:          0
cpu0_L1D TOTAL     ACCESS:    1387296  HIT:    1308941  MISS:      78355
cpu0_L1D LOAD      ACCESS:    1184395  HIT:    1107211  MISS:      77184
cpu0_L1D RFO       ACCESS:     200930  HIT:     200279  MISS:        651
cpu0_L1D PREFETCH  ACCESS:          0  HIT:          0  MISS:          0
cpu0_L1D WRITEBACK ACCESS:          0  HIT:          0  MISS:          0
cpu0_L2C TOTAL     ACCESS:      79499  HIT:       1361  MISS:      78138
cpu0_L2C LOAD      ACCESS:      77182  HIT:        814  MISS:      76368
cpu0_L2C RFO       ACCESS:        651  HIT:          0  MISS:        651
cpu0_L2C PREFETCH  ACCESS:          0  HIT:          0  MISS:          0
cpu0_L2C WRITEBACK ACCESS:       1146  HIT:        537  MISS:        609
LLC TOTAL     ACCESS:      78329  HIT:       1411  MISS:      76918
LLC LOAD      ACCESS:      76368  HIT:       1255  MISS:      75113
LLC RFO       ACCESS:        651  HIT:          1  MISS:        650
LLC PREFETCH  ACCESS:          0  HIT:          0  MISS:          0
LLC WRITEBACK ACCESS:        800  HIT:        102  MISS:        698
Heartbeat CPU 0 instructions: 58000003 cycles: 31131754 heartbeat IPC: 0.667114 cumulative IPC: 0.667141 (Simulation time: 0 hr 50 min 59 sec) 

Region of Interest Statistics
cpu0_DTLB TOTAL     ACCESS:    2201805  HIT:    2198649  MISS:       3156
cpu0_DTLB LOAD      ACCESS:    1947922  HIT:    1944778  MISS:       3144
cpu0_DTLB RFO       ACCESS:     253883  HIT:     253871  MISS:         12
cpu0_DTLB PREFETCH  ACCESS:          0  HIT:          0  MISS:          0
cpu0_DTLB WRITEBACK ACCESS:          0  HIT:          0  MISS:          0
cpu0_ITLB TOTAL     ACCESS:      12240  HIT:      12240  MISS:          0
cpu0_ITLB LOAD      ACCESS:      12240  HIT:      12240  MISS:          0
cpu0_ITLB RFO       ACCESS:          0  HIT:          0  MISS:          0
cpu0_ITLB PREFETCH  ACCESS:          0  HIT:          0  MISS:          0
cpu0_ITLB WRITEBACK ACCESS:          0  HIT:          0  MISS:          0
cpu0_STLB TOTAL     ACCESS:       3156  HIT:        529  MISS:       2627
cpu0_STLB LOAD      ACCESS:       3144  HIT:        529  MISS:       2615
cpu0_STLB RFO       ACCESS:         12  HIT:          0  MISS:         12
cpu0_STLB PREFETCH  ACCESS:          0  HIT:          0  MISS:          0
cpu0_STLB WRITEBACK ACCESS:          0  HIT:          0  MISS:          0
cpu0_L1D TOTAL     ACCESS:    1850074  HIT:    1745740  MISS:     104334
cpu0_L1D LOAD      ACCESS:    1579522  HIT:    1476659  MISS:     102863
cpu0_L1D RFO       ACCESS:     267927  HIT:     267145  MISS:        782
cpu0_L1D PREFETCH  ACCESS:          0  HIT:          0  MISS:          0
cpu0_L1D WRITEBACK ACCESS:          0  HIT:          0  MISS:          0
cpu0_L2C TOTAL     ACCESS:     105767  HIT:       1782  MISS:     103985
cpu0_L2C LOAD      ACCESS:     102861  HIT:       1083  MISS:     101778
cpu0_L2C RFO       ACCESS:        782  HIT:          0  MISS:        782
cpu0_L2C PREFETCH  ACCESS:          0  HIT:          0  MISS:          0
cpu0_L2C WRITEBACK ACCESS:       1435  HIT:        683  MISS:        752
LLC TOTAL     ACCESS:     104286  HIT:       1836  MISS:     102450
LLC LOAD      ACCESS:     101778  HIT:       1628  MISS:     100150
LLC RFO       ACCESS:        782  HIT:          1  MISS:        781
LLC PREFETCH  ACCESS:          0  HIT:          0  MISS:          0
LLC WRITEBACK ACCESS:       1053  HIT:        131  MISS:        922
Heartbeat CPU 0 instructions: 60000004 cycles: 34130702 heartbeat IPC: 0.666901 cumulative IPC: 0.667093 (Simulation time: 0 hr 54 min 21 sec) 

Region of Interest Statistics
cpu0_DTLB TOTAL     ACCESS:    2751795  HIT:    2747848  MISS:       3947
cpu0_DTLB LOAD      ACCESS:    2434389  HIT:    2430458  MISS:       3931
cpu0_DTLB RFO       ACCESS:     317406  HIT:     317390  MISS:         16
cpu0_DTLB PREFETCH  ACCESS:          0  HIT:          0  MISS:          0
cpu0_DTLB WRITEBACK ACCESS:          0  HIT:          0  MISS:          0
cpu0_ITLB TOTAL     ACCESS:      15359  HIT:      15359  MISS:          0
cpu0_ITLB LOAD      ACCESS:      15359  HIT:      15359  MISS:          0
cpu0_ITLB RFO       ACCESS:          0  HIT:          0  MISS:          0
cpu0_ITLB PREFETCH  ACCESS:          0  HIT:          0  MISS:          0
cpu0_ITLB WRITEBACK ACCESS:          0  HIT:          0  MISS:          0
cpu0_STLB TOTAL     ACCESS:       3947  HIT:        661  MISS:       3286
cpu0_STLB LOAD      ACCESS:       3931  HIT:        661  MISS:       3270
cpu0_STLB RFO       ACCESS:         16  HIT:          0  MISS:         16
cpu0_STLB PREFETCH  ACCESS:          0  HIT:          0  MISS:          0
cpu0_STLB WRITEBACK ACCESS:          0  HIT:          0  MISS:          0
cpu0_L1D TOTAL     ACCESS:    2312097  HIT:    2181588  MISS:     130509
cpu0_L1D LOAD      ACCESS:    1973916  HIT:    1845316  MISS:     128600
cpu0_L1D RFO       ACCESS:     334898  HIT:     333856  MISS:       1042
cpu0_L1D PREFETCH  ACCESS:          0  HIT:          0  MISS:          0
cpu0_L1D WRITEBACK ACCESS:          0  HIT:          0  MISS:          0
cpu0_L2C TOTAL     ACCESS:     132360  HIT:       2234  MISS:     130126
cpu0_L2C LOAD      ACCESS:     128598  HIT:       1333  MISS:     127265
cpu0_L2C RFO       ACCESS:       1042  HIT:          0  MISS:       1042
cpu0_L2C PREFETCH  ACCESS:          0  HIT:          0  MISS:          0
cpu0_L2C WRITEBACK ACCESS:       1853  HIT:        884  MISS:        969
LLC TOTAL     ACCESS:     130493  HIT:       2315  MISS:     128178
LLC LOAD      ACCESS:     127265  HIT:       2046  MISS:     125219
LLC RFO       ACCESS:       1042  HIT:          1  MISS:       1041
LLC PREFETCH  ACCESS:          0  HIT:          0  MISS:          0
LLC WRITEBACK ACCESS:       1336  HIT:        172  MISS:       1164
Heartbeat CPU 0 instructions: 62000001 cycles: 37127573 heartbeat IPC: 0.667362 cumulative IPC: 0.667138 (Simulation time: 0 hr 57 min 48 sec) 

Region of Interest Statistics
cpu0_DTLB TOTAL     ACCESS:    3301771  HIT:    3297040  MISS:       4731
cpu0_DTLB LOAD      ACCESS:    2920852  HIT:    2916141  MISS:       4711
cpu0_DTLB RFO       ACCESS:     380919  HIT:     380899  MISS:         20
cpu0_DTLB PREFETCH  ACCESS:          0  HIT:          0  MISS:          0
cpu0_DTLB WRITEBACK ACCESS:          0  HIT:          0  MISS:          0
cpu0_ITLB TOTAL     ACCESS:      18437  HIT:      18437  MISS:          0
cpu0_ITLB LOAD      ACCESS:      18437  HIT:      18437  MISS:          0
cpu0_ITLB RFO       ACCESS:          0  HIT:          0  MISS:          0
cpu0_ITLB PREFETCH  ACCESS:          0  HIT:          0  MISS:          0
cpu0_ITLB WRITEBACK ACCESS:          0  HIT:          0  MISS:          0
cpu0_STLB TOTAL     ACCESS:       4731  HIT:        790  MISS:       3941
cpu0_STLB LOAD      ACCESS:       4711  HIT:        790  MISS:       3921
cpu0_STLB RFO       ACCESS:         20  HIT:          0  MISS:         20
cpu0_STLB PREFETCH  ACCESS:          0  HIT:          0  MISS:          0
cpu0_STLB WRITEBACK ACCESS:          0  HIT:          0  MISS:          0
cpu0_L1D TOTAL     ACCESS:    2774035  HIT:    2617350  MISS:     156685
cpu0_L1D LOAD      ACCESS:    2368236  HIT:    2213894  MISS:     154342
cpu0_L1D RFO       ACCESS:     401861  HIT:     400558  MISS:       1303
cpu0_L1D PREFETCH  ACCESS:          0  HIT:          0  MISS:          0
cpu0_L1D WRITEBACK ACCESS:          0  HIT:          0  MISS:          0
cpu0_L2C TOTAL     ACCESS:     158953  HIT:       2671  MISS:     156282
cpu0_L2C LOAD      ACCESS:     154339  HIT:       1576  MISS:     152763
cpu0_L2C RFO       ACCESS:       1303  HIT:          0  MISS:       1303
cpu0_L2C PREFETCH  ACCESS:          0  HIT:          0  MISS:          0
cpu0_L2C WRITEBACK ACCESS:       2271  HIT:       1073  MISS:       1198
LLC TOTAL     ACCESS:     156616  HIT:       2829  MISS:     153787
LLC LOAD      ACCESS:     152763  HIT:       2520  MISS:     150243
LLC RFO       ACCESS:       1303  HIT:          1  MISS:       1302
LLC PREFETCH  ACCESS:          0  HIT:          0  MISS:          0
LLC WRITEBACK ACCESS:       1532  HIT:        203  MISS:       1329
Heartbeat CPU 0 instructions: 64000004 cycles: 40109732 heartbeat IPC: 0.670656 cumulative IPC: 0.667638 (Simulation time: 1 hr 1 min 9 sec) 

Region of Interest Statistics
cpu0_DTLB TOTAL     ACCESS:    3852616  HIT:    3847097  MISS:       5519
cpu0_DTLB LOAD      ACCESS:    3408240  HIT:    3402743  MISS:       5497
cpu0_DTLB RFO       ACCESS:     444376  HIT:     444354  MISS:         22
cpu0_DTLB PREFETCH  ACCESS:          0  HIT:          0  MISS:          0
cpu0_DTLB WRITEBACK ACCESS:          0  HIT:          0  MISS:          0
cpu0_ITLB TOTAL     ACCESS:      21483  HIT:      21483  MISS:          0
cpu0_ITLB LOAD      ACCESS:      21483  HIT:      21483  MISS:          0
cpu0_ITLB RFO       ACCESS:          0  HIT:          0  MISS:          0
cpu0_ITLB PREFETCH  ACCESS:          0  HIT:          0  MISS:          0
cpu0_ITLB WRITEBACK ACCESS:          0  HIT:          0  MISS:          0
cpu0_STLB TOTAL     ACCESS:       5519  HIT:        922  MISS:       4597
cpu0_STLB LOAD      ACCESS:       5497  HIT:        922  MISS:       4575
cpu0_STLB RFO       ACCESS:         22  HIT:          0  MISS:         22
cpu0_STLB PREFETCH  ACCESS:          0  HIT:          0  MISS:          0
cpu0_STLB WRITEBACK ACCESS:          0  HIT:          0  MISS:          0
cpu0_L1D TOTAL     ACCESS:    3237745  HIT:    3055071  MISS:     182674
cpu0_L1D LOAD      ACCESS:    2764294  HIT:    2584264  MISS:     180030
cpu0_L1D RFO       ACCESS:     468858  HIT:     467424  MISS:       1434
cpu0_L1D PREFETCH  ACCESS:          0  HIT:          0  MISS:          0
cpu0_L1D WRITEBACK ACCESS:          0  HIT:          0  MISS:          0
cpu0_L2C TOTAL     ACCESS:     185242  HIT:       3120  MISS:     182122
cpu0_L2C LOAD      ACCESS:     180026  HIT:       1867  MISS:     178159
cpu0_L2C RFO       ACCESS:       1434  HIT:          0  MISS:       1434
cpu0_L2C PREFETCH  ACCESS:          0  HIT:          0  MISS:          0
cpu0_L2C WRITEBACK ACCESS:       2572  HIT:       1228  MISS:       1344
LLC TOTAL     ACCESS:     182618  HIT:       3466  MISS:     179152
LLC LOAD      ACCESS:     178159  HIT:       3101  MISS:     175058
LLC RFO       ACCESS:       1434  HIT:          1  MISS:       1433
LLC PREFETCH  ACCESS:          0  HIT:          0  MISS:          0
LLC WRITEBACK ACCESS:       1840  HIT:        246  MISS:       1594
Heartbeat CPU 0 instructions: 66000004 cycles: 43099653 heartbeat IPC: 0.668914 cumulative IPC: 0.667797 (Simulation time: 1 hr 4 min 35 sec) 

Region of Interest Statistics
cpu0_DTLB TOTAL     ACCESS:    4402558  HIT:    4396244  MISS:       6314
cpu0_DTLB LOAD      ACCESS:    3894663  HIT:    3888375  MISS:       6288
cpu0_DTLB RFO       ACCESS:     507895  HIT:     507869  MISS:         26
cpu0_DTLB PREFETCH  ACCESS:          0  HIT:          0  MISS:          0
cpu0_DTLB WRITEBACK ACCESS:          0  HIT:          0  MISS:          0
cpu0_ITLB TOTAL     ACCESS:      24607  HIT:      24607  MISS:          0
cpu0_ITLB LOAD      ACCESS:      24607  HIT:      24607  MISS:          0
cpu0_ITLB RFO       ACCESS:          0  HIT:          0  MISS:          0
cpu0_ITLB PREFETCH  ACCESS:          0  HIT:          0  MISS:          0
cpu0_ITLB WRITEBACK ACCESS:          0  HIT:          0  MISS:          0
cpu0_STLB TOTAL     ACCESS:       6314  HIT:       1055  MISS:       5259
cpu0_STLB LOAD      ACCESS:       6288  HIT:       1055  MISS:       5233
cpu0_STLB RFO       ACCESS:         26  HIT:          0  MISS:         26
cpu0_STLB PREFETCH  ACCESS:          0  HIT:          0  MISS:          0
cpu0_STLB WRITEBACK ACCESS:          0  HIT:          0  MISS:          0
cpu0_L1D TOTAL     ACCESS:    3699930  HIT:    3491065  MISS:     208865
cpu0_L1D LOAD      ACCESS:    3158848  HIT:    2953064  MISS:     205784
cpu0_L1D RFO       ACCESS:     535828  HIT:     534135  MISS:       1693
cpu0_L1D PREFETCH  ACCESS:          0  HIT:          0  MISS:          0
cpu0_L1D WRITEBACK ACCESS:          0  HIT:          0  MISS:          0
cpu0_L2C TOTAL     ACCESS:     211860  HIT:       3636  MISS:     208224
cpu0_L2C LOAD      ACCESS:     205780  HIT:       2194  MISS:     203586
cpu0_L2C RFO       ACCESS:       1693  HIT:          0  MISS:       1693
cpu0_L2C PREFETCH  ACCESS:          0  HIT:          0  MISS:          0
cpu0_L2C WRITEBACK ACCESS:       2999  HIT:       1415  MISS:       1584
LLC TOTAL     ACCESS:     208668  HIT:       3982  MISS:     204686
LLC LOAD      ACCESS:     203586  HIT:       3569  MISS:     200017
LLC RFO       ACCESS:       1693  HIT:          1  MISS:       1692
LLC PREFETCH  ACCESS:          0  HIT:          0  MISS:          0
LLC WRITEBACK ACCESS:       2028  HIT:        265  MISS:       1763
Heartbeat CPU 0 instructions: 68000000 cycles: 46089193 heartbeat IPC: 0.668998 cumulative IPC: 0.66793 (Simulation time: 1 hr 8 min 2 sec) 

Region of Interest Statistics
cpu0_DTLB TOTAL     ACCESS:    4952392  HIT:    4945296  MISS:       7096
cpu0_DTLB LOAD      ACCESS:    4381009  HIT:    4373943  MISS:       7066
cpu0_DTLB RFO       ACCESS:     571383  HIT:     571353  MISS:         30
cpu0_DTLB PREFETCH  ACCESS:          0  HIT:          0  MISS:          0
cpu0_DTLB WRITEBACK ACCESS:          0  HIT:          0  MISS:          0
cpu0_ITLB TOTAL     ACCESS:      27693  HIT:      27693  MISS:          0
cpu0_ITLB LOAD      ACCESS:      27693  HIT:      27693  MISS:          0
cpu0_ITLB RFO       ACCESS:          0  HIT:          0  MISS:          0
cpu0_ITLB PREFETCH  ACCESS:          0  HIT:          0  MISS:          0
cpu0_ITLB WRITEBACK ACCESS:          0  HIT:          0  MISS:          0
cpu0_STLB TOTAL     ACCESS:       7096  HIT:       1185  MISS:       5911
cpu0_STLB LOAD      ACCESS:       7066  HIT:       1185  MISS:       5881
cpu0_STLB RFO       ACCESS:         30  HIT:          0  MISS:         30
cpu0_STLB PREFETCH  ACCESS:          0  HIT:          0  MISS:          0
cpu0_STLB WRITEBACK ACCESS:          0  HIT:          0  MISS:          0
cpu0_L1D TOTAL     ACCESS:    4162162  HIT:    3927107  MISS:     235055
cpu0_L1D LOAD      ACCESS:    3553463  HIT:    3321924  MISS:     231539
cpu0_L1D RFO       ACCESS:     602793  HIT:     600838  MISS:       1955
cpu0_L1D PREFETCH  ACCESS:          0  HIT:          0  MISS:          0
cpu0_L1D WRITEBACK ACCESS:          0  HIT:          0  MISS:          0
cpu0_L2C TOTAL     ACCESS:     238480  HIT:       4117  MISS:     234363
cpu0_L2C LOAD      ACCESS:     231534  HIT:       2471  MISS:     229063
cpu0_L2C RFO       ACCESS:       1955  HIT:          0  MISS:       1955
cpu0_L2C PREFETCH  ACCESS:          0  HIT:          0  MISS:          0
cpu0_L2C WRITEBACK ACCESS:       3430  HIT:       1615  MISS:       1815
LLC TOTAL     ACCESS:     234848  HIT:       4530  MISS:     230318
LLC LOAD      ACCESS:     229063  HIT:       4070  MISS:     224993
LLC RFO       ACCESS:       1955  HIT:          1  MISS:       1954
LLC PREFETCH  ACCESS:          0  HIT:          0  MISS:          0
LLC WRITEBACK ACCESS:       2300  HIT:        296  MISS:       2004
Heartbeat CPU 0 instructions: 70000003 cycles: 49080246 heartbeat IPC: 0.668662 cumulative IPC: 0.668003 (Simulation time: 1 hr 11 min 27 sec) 

Region of Interest Statistics
cpu0_DTLB TOTAL     ACCESS:    5503340  HIT:    5495450  MISS:       7890
cpu0_DTLB LOAD      ACCESS:    4868502  HIT:    4860644  MISS:       7858
cpu0_DTLB RFO       ACCESS:     634838  HIT:     634806  MISS:         32
cpu0_DTLB PREFETCH  ACCESS:          0  HIT:          0  MISS:          0
cpu0_DTLB WRITEBACK ACCESS:          0  HIT:          0  MISS:          0
cpu0_ITLB TOTAL     ACCESS:      30741  HIT:      30741  MISS:          0
cpu0_ITLB LOAD      ACCESS:      30741  HIT:      30741  MISS:          0
cpu0_ITLB RFO       ACCESS:          0  HIT:          0  MISS:          0
cpu0_ITLB PREFETCH  ACCESS:          0  HIT:          0  MISS:          0
cpu0_ITLB WRITEBACK ACCESS:          0  HIT:          0  MISS:          0
cpu0_STLB TOTAL     ACCESS:       7890  HIT:       1321  MISS:       6569
cpu0_STLB LOAD      ACCESS:       7858  HIT:       1321  MISS:       6537
cpu0_STLB RFO       ACCESS:         32  HIT:          0  MISS:         32
cpu0_STLB PREFETCH  ACCESS:          0  HIT:          0  MISS:          0
cpu0_STLB WRITEBACK ACCESS:          0  HIT:          0  MISS:          0
cpu0_L1D TOTAL     ACCESS:    4625605  HIT:    4364590  MISS:     261015
cpu0_L1D LOAD      ACCESS:    3949251  HIT:    3692053  MISS:     257198
cpu0_L1D RFO       ACCESS:     669791  HIT:     667707  MISS:       2084
cpu0_L1D PREFETCH  ACCESS:          0  HIT:          0  MISS:          0
cpu0_L1D WRITEBACK ACCESS:          0  HIT:          0  MISS:          0
cpu0_L2C TOTAL     ACCESS:     264726  HIT:       4546  MISS:     260180
cpu0_L2C LOAD      ACCESS:     257193  HIT:       2749  MISS:     254444
cpu0_L2C RFO       ACCESS:       2084  HIT:          0  MISS:       2084
cpu0_L2C PREFETCH  ACCESS:          0  HIT:          0  MISS:          0
cpu0_L2C WRITEBACK ACCESS:       3716  HIT:       1766  MISS:       1950
LLC TOTAL     ACCESS:     260806  HIT:       5047  MISS:     255759
LLC LOAD      ACCESS:     254444  HIT:       4558  MISS:     249886
LLC RFO       ACCESS:       2084  HIT:          1  MISS:       2083
LLC PREFETCH  ACCESS:          0  HIT:          0  MISS:          0
LLC WRITEBACK ACCESS:       2576  HIT:        321  MISS:       2255
Heartbeat CPU 0 instructions: 72000000 cycles: 52060076 heartbeat IPC: 0.671178 cumulative IPC: 0.668291 (Simulation time: 1 hr 14 min 49 sec) 

Region of Interest Statistics
cpu0_DTLB TOTAL     ACCESS:    6053125  HIT:    6044438  MISS:       8687
cpu0_DTLB LOAD      ACCESS:    5354823  HIT:    5346172  MISS:       8651
cpu0_DTLB RFO       ACCESS:     698302  HIT:     698266  MISS:         36
cpu0_DTLB PREFETCH  ACCESS:          0  HIT:          0  MISS:          0
cpu0_DTLB WRITEBACK ACCESS:          0  HIT:          0  MISS:          0
cpu0_ITLB TOTAL     ACCESS:      33855  HIT:      33855  MISS:          0
cpu0_ITLB LOAD      ACCESS:      33855  HIT:      33855  MISS:          0
cpu0_ITLB RFO       ACCESS:          0  HIT:          0  MISS:          0
cpu0_ITLB PREFETCH  ACCESS:          0  HIT:          0  MISS:          0
cpu0_ITLB WRITEBACK ACCESS:          0  HIT:          0  MISS:          0
cpu0_STLB TOTAL     ACCESS:       8687  HIT:       1455  MISS:       7232
cpu0_STLB LOAD      ACCESS:       8651  HIT:       1455  MISS:       7196
cpu0_STLB RFO       ACCESS:         36  HIT:          0  MISS:         36
cpu0_STLB PREFETCH  ACCESS:          0  HIT:          0  MISS:          0
cpu0_STLB WRITEBACK ACCESS:          0  HIT:          0  MISS:          0
cpu0_L1D TOTAL     ACCESS:    5088373  HIT:    4801164  MISS:     287209
cpu0_L1D LOAD      ACCESS:    4344388  HIT:    4061434  MISS:     282954
cpu0_L1D RFO       ACCESS:     736759  HIT:     734414  MISS:       2345
cpu0_L1D PREFETCH  ACCESS:          0  HIT:          0  MISS:          0
cpu0_L1D WRITEBACK ACCESS:          0  HIT:          0  MISS:          0
cpu0_L2C TOTAL     ACCESS:     291347  HIT:       5064  MISS:     286283
cpu0_L2C LOAD      ACCESS:     282948  HIT:       3066  MISS:     279882
cpu0_L2C RFO       ACCESS:       2345  HIT:          0  MISS:       2345
cpu0_L2C PREFETCH  ACCESS:          0  HIT:          0  MISS:          0
cpu0_L2C WRITEBACK ACCESS:       4144  HIT:       1967  MISS:       2177
LLC TOTAL     ACCESS:     286870  HIT:       5623  MISS:     281247
LLC LOAD      ACCESS:     279882  HIT:       5103  MISS:     274779
LLC RFO       ACCESS:       2345  HIT:          1  MISS:       2344
LLC PREFETCH  ACCESS:          0  HIT:          0  MISS:          0
LLC WRITEBACK ACCESS:       2764  HIT:        343  MISS:       2421
Heartbeat CPU 0 instructions: 74000003 cycles: 55024635 heartbeat IPC: 0.674638 cumulative IPC: 0.668815 (Simulation time: 1 hr 18 min 5 sec) 

Region of Interest Statistics
cpu0_DTLB TOTAL     ACCESS:    6603760  HIT:    6594280  MISS:       9480
cpu0_DTLB LOAD      ACCESS:    5842058  HIT:    5832616  MISS:       9442
cpu0_DTLB RFO       ACCESS:     761702  HIT:     761664  MISS:         38
cpu0_DTLB PREFETCH  ACCESS:          0  HIT:          0  MISS:          0
cpu0_DTLB WRITEBACK ACCESS:          0  HIT:          0  MISS:          0
cpu0_ITLB TOTAL     ACCESS:      36869  HIT:      36869  MISS:          0
cpu0_ITLB LOAD      ACCESS:      36869  HIT:      36869  MISS:          0
cpu0_ITLB RFO       ACCESS:          0  HIT:          0  MISS:          0
cpu0_ITLB PREFETCH  ACCESS:          0  HIT:          0  MISS:          0
cpu0_ITLB WRITEBACK ACCESS:          0  HIT:          0  MISS:          0
cpu0_STLB TOTAL     ACCESS:       9480  HIT:       1592  MISS:       7888
cpu0_STLB LOAD      ACCESS:       9442  HIT:       1592  MISS:       7850
cpu0_STLB RFO       ACCESS:         38  HIT:          0  MISS:         38
cpu0_STLB PREFETCH  ACCESS:          0  HIT:          0  MISS:          0
cpu0_STLB WRITEBACK ACCESS:          0  HIT:          0  MISS:          0
cpu0_L1D TOTAL     ACCESS:    5551976  HIT:    5238799  MISS:     313177
cpu0_L1D LOAD      ACCESS:    4740339  HIT:    4431717  MISS:     308622
cpu0_L1D RFO       ACCESS:     803756  HIT:     801280  MISS:       2476
cpu0_L1D PREFETCH  ACCESS:          0  HIT:          0  MISS:          0
cpu0_L1D WRITEBACK ACCESS:          0  HIT:          0  MISS:          0
cpu0_L2C TOTAL     ACCESS:     317611  HIT:       5507  MISS:     312104
cpu0_L2C LOAD      ACCESS:     308616  HIT:       3338  MISS:     305278
cpu0_L2C RFO       ACCESS:       2476  HIT:          0  MISS:       2476
cpu0_L2C PREFETCH  ACCESS:          0  HIT:          0  MISS:          0
cpu0_L2C WRITEBACK ACCESS:       4440  HIT:       2138  MISS:       2302
LLC TOTAL     ACCESS:     312849  HIT:       6409  MISS:     306440
LLC LOAD      ACCESS:     305278  HIT:       5826  MISS:     299452
LLC RFO       ACCESS:       2476  HIT:          2  MISS:       2474
LLC PREFETCH  ACCESS:          0  HIT:          0  MISS:          0
LLC WRITEBACK ACCESS:       3047  HIT:        385  MISS:       2662
Heartbeat CPU 0 instructions: 76000000 cycles: 58020860 heartbeat IPC: 0.667506 cumulative IPC: 0.668714 (Simulation time: 1 hr 21 min 22 sec) 

Region of Interest Statistics
cpu0_DTLB TOTAL     ACCESS:    7153797  HIT:    7143528  MISS:      10269
cpu0_DTLB LOAD      ACCESS:    6328577  HIT:    6318350  MISS:      10227
cpu0_DTLB RFO       ACCESS:     825220  HIT:     825178  MISS:         42
cpu0_DTLB PREFETCH  ACCESS:          0  HIT:          0  MISS:          0
cpu0_DTLB WRITEBACK ACCESS:          0  HIT:          0  MISS:          0
cpu0_ITLB TOTAL     ACCESS:      39958  HIT:      39958  MISS:          0
cpu0_ITLB LOAD      ACCESS:      39958  HIT:      39958  MISS:          0
cpu0_ITLB RFO       ACCESS:          0  HIT:          0  MISS:          0
cpu0_ITLB PREFETCH  ACCESS:          0  HIT:          0  MISS:          0
cpu0_ITLB WRITEBACK ACCESS:          0  HIT:          0  MISS:          0
cpu0_STLB TOTAL     ACCESS:      10269  HIT:       1727  MISS:       8542
cpu0_STLB LOAD      ACCESS:      10227  HIT:       1727  MISS:       8500
cpu0_STLB RFO       ACCESS:         42  HIT:          0  MISS:         42
cpu0_STLB PREFETCH  ACCESS:          0  HIT:          0  MISS:          0
cpu0_STLB WRITEBACK ACCESS:          0  HIT:          0  MISS:          0
cpu0_L1D TOTAL     ACCESS:    6014076  HIT:    5674708  MISS:     339368
cpu0_L1D LOAD      ACCESS:    5134821  HIT:    4800441  MISS:     334380
cpu0_L1D RFO       ACCESS:     870720  HIT:     867985  MISS:       2735
cpu0_L1D PREFETCH  ACCESS:          0  HIT:          0  MISS:          0
cpu0_L1D WRITEBACK ACCESS:          0  HIT:          0  MISS:          0
cpu0_L2C TOTAL     ACCESS:     344232  HIT:       5973  MISS:     338259
cpu0_L2C LOAD      ACCESS:     334374  HIT:       3604  MISS:     330770
cpu0_L2C RFO       ACCESS:       2735  HIT:          0  MISS:       2735
cpu0_L2C PREFETCH  ACCESS:          0  HIT:          0  MISS:          0
cpu0_L2C WRITEBACK ACCESS:       4870  HIT:       2338  MISS:       2532
LLC TOTAL     ACCESS:     339021  HIT:       6886  MISS:     332135
LLC LOAD      ACCESS:     330771  HIT:       6276  MISS:     324495
LLC RFO       ACCESS:       2735  HIT:          2  MISS:       2733
LLC PREFETCH  ACCESS:          0  HIT:          0  MISS:          0
LLC WRITEBACK ACCESS:       3293  HIT:        404  MISS:       2889
Heartbeat CPU 0 instructions: 78000004 cycles: 61007905 heartbeat IPC: 0.669559 cumulative IPC: 0.668775 (Simulation time: 1 hr 24 min 43 sec) 

Region of Interest Statistics
cpu0_DTLB TOTAL     ACCESS:    7703499  HIT:    7692435  MISS:      11064
cpu0_DTLB LOAD      ACCESS:    6814832  HIT:    6803815  MISS:      11017
cpu0_DTLB RFO       ACCESS:     888667  HIT:     888620  MISS:         47
cpu0_DTLB PREFETCH  ACCESS:          0  HIT:          0  MISS:          0
cpu0_DTLB WRITEBACK ACCESS:          0  HIT:          0  MISS:          0
cpu0_ITLB TOTAL     ACCESS:      43070  HIT:      43070  MISS:          0
cpu0_ITLB LOAD      ACCESS:      43070  HIT:      43070  MISS:          0
cpu0_ITLB RFO       ACCESS:          0  HIT:          0  MISS:          0
cpu0_ITLB PREFETCH  ACCESS:          0  HIT:          0  MISS:          0
cpu0_ITLB WRITEBACK ACCESS:          0  HIT:          0  MISS:          0
cpu0_STLB TOTAL     ACCESS:      11064  HIT:       1862  MISS:       9202
cpu0_STLB LOAD      ACCESS:      11017  HIT:       1862  MISS:       9155
cpu0_STLB RFO       ACCESS:         47  HIT:          0  MISS:         47
cpu0_STLB PREFETCH  ACCESS:          0  HIT:          0  MISS:          0
cpu0_STLB WRITEBACK ACCESS:          0  HIT:          0  MISS:          0
cpu0_L1D TOTAL     ACCESS:    6476333  HIT:    6110789  MISS:     365544
cpu0_L1D LOAD      ACCESS:    5529449  HIT:    5169331  MISS:     360118
cpu0_L1D RFO       ACCESS:     937690  HIT:     934693  MISS:       2997
cpu0_L1D PREFETCH  ACCESS:          0  HIT:          0  MISS:          0
cpu0_L1D WRITEBACK ACCESS:          0  HIT:          0  MISS:          0
cpu0_L2C TOTAL     ACCESS:     370824  HIT:       6374  MISS:     364450
cpu0_L2C LOAD      ACCESS:     360112  HIT:       3822  MISS:     356290
cpu0_L2C RFO       ACCESS:       2997  HIT:          0  MISS:       2997
cpu0_L2C PREFETCH  ACCESS:          0  HIT:          0  MISS:          0
cpu0_L2C WRITEBACK ACCESS:       5286  HIT:       2518  MISS:       2768
LLC TOTAL     ACCESS:     365213  HIT:       7489  MISS:     357724
LLC LOAD      ACCESS:     356290  HIT:       6829  MISS:     349461
LLC RFO       ACCESS:       2997  HIT:          2  MISS:       2995
LLC PREFETCH  ACCESS:          0  HIT:          0  MISS:          0
LLC WRITEBACK ACCESS:       3531  HIT:        437  MISS:       3094
Heartbeat CPU 0 instructions: 80000002 cycles: 63994805 heartbeat IPC: 0.66959 cumulative IPC: 0.668829 (Simulation time: 1 hr 27 min 59 sec) 

Region of Interest Statistics
cpu0_DTLB TOTAL     ACCESS:    8254370  HIT:    8242519  MISS:      11851
cpu0_DTLB LOAD      ACCESS:    7302211  HIT:    7290409  MISS:      11802
cpu0_DTLB RFO       ACCESS:     952159  HIT:     952110  MISS:         49
cpu0_DTLB PREFETCH  ACCESS:          0  HIT:          0  MISS:          0
cpu0_DTLB WRITEBACK ACCESS:          0  HIT:          0  MISS:          0
cpu0_ITLB TOTAL     ACCESS:      46094  HIT:      46094  MISS:          0
cpu0_ITLB LOAD      ACCESS:      46094  HIT:      46094  MISS:          0
cpu0_ITLB RFO       ACCESS:          0  HIT:          0  MISS:          0
cpu0_ITLB PREFETCH  ACCESS:          0  HIT:          0  MISS:          0
cpu0_ITLB WRITEBACK ACCESS:          0  HIT:          0  MISS:          0
cpu0_STLB TOTAL     ACCESS:      11851  HIT:       1992  MISS:       9859
cpu0_STLB LOAD      ACCESS:      11802  HIT:       1992  MISS:       9810
cpu0_STLB RFO       ACCESS:         49  HIT:          0  MISS:         49
cpu0_STLB PREFETCH  ACCESS:          0  HIT:          0  MISS:          0
cpu0_STLB WRITEBACK ACCESS:          0  HIT:          0  MISS:          0
cpu0_L1D TOTAL     ACCESS:    6939478  HIT:    6547945  MISS:     391533
cpu0_L1D LOAD      ACCESS:    5924939  HIT:    5539132  MISS:     385807
cpu0_L1D RFO       ACCESS:    1004688  HIT:    1001562  MISS:       3126
cpu0_L1D PREFETCH  ACCESS:          0  HIT:          0  MISS:          0
cpu0_L1D WRITEBACK ACCESS:          0  HIT:          0  MISS:          0
cpu0_L2C TOTAL     ACCESS:     397115  HIT:       6926  MISS:     390189
cpu0_L2C LOAD      ACCESS:     385801  HIT:       4199  MISS:     381602
cpu0_L2C RFO       ACCESS:       3126  HIT:          0  MISS:       3126
cpu0_L2C PREFETCH  ACCESS:          0  HIT:          0  MISS:          0
cpu0_L2C WRITEBACK ACCESS:       5588  HIT:       2692  MISS:       2896
LLC TOTAL     ACCESS:     391113  HIT:       8027  MISS:     383086
LLC LOAD      ACCESS:     381602  HIT:       7307  MISS:     374295
LLC RFO       ACCESS:       3126  HIT:          2  MISS:       3124
LLC PREFETCH  ACCESS:          0  HIT:          0  MISS:          0
LLC WRITEBACK ACCESS:       3820  HIT:        471  MISS:       3349
Heartbeat CPU 0 instructions: 82000000 cycles: 66998498 heartbeat IPC: 0.665846 cumulative IPC: 0.668642 (Simulation time: 1 hr 31 min 13 sec) 

Region of Interest Statistics
cpu0_DTLB TOTAL     ACCESS:    8804294  HIT:    8791654  MISS:      12640
cpu0_DTLB LOAD      ACCESS:    7788657  HIT:    7776070  MISS:      12587
cpu0_DTLB RFO       ACCESS:    1015637  HIT:    1015584  MISS:         53
cpu0_DTLB PREFETCH  ACCESS:          0  HIT:          0  MISS:          0
cpu0_DTLB WRITEBACK ACCESS:          0  HIT:          0  MISS:          0
cpu0_ITLB TOTAL     ACCESS:      49185  HIT:      49185  MISS:          0
cpu0_ITLB LOAD      ACCESS:      49185  HIT:      49185  MISS:          0
cpu0_ITLB RFO       ACCESS:          0  HIT:          0  MISS:          0
cpu0_ITLB PREFETCH  ACCESS:          0  HIT:          0  MISS:          0
cpu0_ITLB WRITEBACK ACCESS:          0  HIT:          0  MISS:          0
cpu0_STLB TOTAL     ACCESS:      12640  HIT:       2121  MISS:      10519
cpu0_STLB LOAD      ACCESS:      12587  HIT:       2121  MISS:      10466
cpu0_STLB RFO       ACCESS:         53  HIT:          0  MISS:         53
cpu0_STLB PREFETCH  ACCESS:          0  HIT:          0  MISS:          0
cpu0_STLB WRITEBACK ACCESS:          0  HIT:          0  MISS:          0
cpu0_L1D TOTAL     ACCESS:    7401436  HIT:    6983694  MISS:     417742
cpu0_L1D LOAD      ACCESS:    6319269  HIT:    5907691  MISS:     411578
cpu0_L1D RFO       ACCESS:    1071657  HIT:    1068270  MISS:       3387
cpu0_L1D PREFETCH  ACCESS:          0  HIT:          0  MISS:          0
cpu0_L1D WRITEBACK ACCESS:          0  HIT:          0  MISS:          0
cpu0_L2C TOTAL     ACCESS:     423763  HIT:       7384  MISS:     416379
cpu0_L2C LOAD      ACCESS:     411572  HIT:       4458  MISS:     407114
cpu0_L2C RFO       ACCESS:       3387  HIT:          0  MISS:       3387
cpu0_L2C PREFETCH  ACCESS:          0  HIT:          0  MISS:          0
cpu0_L2C WRITEBACK ACCESS:       6027  HIT:       2889  MISS:       3138
LLC TOTAL     ACCESS:     417267  HIT:       8441  MISS:     408826
LLC LOAD      ACCESS:     407114  HIT:       7674  MISS:     399440
LLC RFO       ACCESS:       3387  HIT:          2  MISS:       3385
LLC PREFETCH  ACCESS:          0  HIT:          0  MISS:          0
LLC WRITEBACK ACCESS:       4026  HIT:        503  MISS:       3523
Heartbeat CPU 0 instructions: 84000004 cycles: 69970723 heartbeat IPC: 0.672898 cumulative IPC: 0.66889 (Simulation time: 1 hr 34 min 32 sec) 

Region of Interest Statistics
cpu0_DTLB TOTAL     ACCESS:    9354917  HIT:    9341492  MISS:      13425
cpu0_DTLB LOAD      ACCESS:    8275883  HIT:    8262513  MISS:      13370
cpu0_DTLB RFO       ACCESS:    1079034  HIT:    1078979  MISS:         55
cpu0_DTLB PREFETCH  ACCESS:          0  HIT:          0  MISS:          0
cpu0_DTLB WRITEBACK ACCESS:          0  HIT:          0  MISS:          0
cpu0_ITLB TOTAL     ACCESS:      52161  HIT:      52161  MISS:          0
cpu0_ITLB LOAD      ACCESS:      52161  HIT:      52161  MISS:          0
cpu0_ITLB RFO       ACCESS:          0  HIT:          0  MISS:          0
cpu0_ITLB PREFETCH  ACCESS:          0  HIT:          0  MISS:          0
cpu0_ITLB WRITEBACK ACCESS:          0  HIT:          0  MISS:          0
cpu0_STLB TOTAL     ACCESS:      13425  HIT:       2255  MISS:      11170
cpu0_STLB LOAD      ACCESS:      13370  HIT:       2255  MISS:      11115
cpu0_STLB RFO       ACCESS:         55  HIT:          0  MISS:         55
cpu0_STLB PREFETCH  ACCESS:          0  HIT:          0  MISS:          0
cpu0_STLB WRITEBACK ACCESS:          0  HIT:          0  MISS:          0
cpu0_L1D TOTAL     ACCESS:    7865039  HIT:    7421329  MISS:     443710
cpu0_L1D LOAD      ACCESS:    6715229  HIT:    6277981  MISS:     437248
cpu0_L1D RFO       ACCESS:    1138649  HIT:    1135131  MISS:       3518
cpu0_L1D PREFETCH  ACCESS:          0  HIT:          0  MISS:          0
cpu0_L1D WRITEBACK ACCESS:          0  HIT:          0  MISS:          0
cpu0_L2C TOTAL     ACCESS:     450022  HIT:       7800  MISS:     442222
cpu0_L2C LOAD      ACCESS:     437242  HIT:       4725  MISS:     432517
cpu0_L2C RFO       ACCESS:       3518  HIT:          0  MISS:       3518
cpu0_L2C PREFETCH  ACCESS:          0  HIT:          0  MISS:          0
cpu0_L2C WRITEBACK ACCESS:       6318  HIT:       3037  MISS:       3281
LLC TOTAL     ACCESS:     443255  HIT:       9146  MISS:     434109
LLC LOAD      ACCESS:     432517  HIT:       8298  MISS:     424219
LLC RFO       ACCESS:       3518  HIT:          3  MISS:       3515
LLC PREFETCH  ACCESS:          0  HIT:          0  MISS:          0
LLC WRITEBACK ACCESS:       4314  HIT:        559  MISS:       3755
Heartbeat CPU 0 instructions: 86000003 cycles: 72945926 heartbeat IPC: 0.672223 cumulative IPC: 0.669075 (Simulation time: 1 hr 37 min 49 sec) 

Region of Interest Statistics
cpu0_DTLB TOTAL     ACCESS:    9904779  HIT:    9890545  MISS:      14234
cpu0_DTLB LOAD      ACCESS:    8762239  HIT:    8748064  MISS:      14175
cpu0_DTLB RFO       ACCESS:    1142540  HIT:    1142481  MISS:         59
cpu0_DTLB PREFETCH  ACCESS:          0  HIT:          0  MISS:          0
cpu0_DTLB WRITEBACK ACCESS:          0  HIT:          0  MISS:          0
cpu0_ITLB TOTAL     ACCESS:      55284  HIT:      55284  MISS:          0
cpu0_ITLB LOAD      ACCESS:      55284  HIT:      55284  MISS:          0
cpu0_ITLB RFO       ACCESS:          0  HIT:          0  MISS:          0
cpu0_ITLB PREFETCH  ACCESS:          0  HIT:          0  MISS:          0
cpu0_ITLB WRITEBACK ACCESS:          0  HIT:          0  MISS:          0
cpu0_STLB TOTAL     ACCESS:      14234  HIT:       2400  MISS:      11834
cpu0_STLB LOAD      ACCESS:      14175  HIT:       2400  MISS:      11775
cpu0_STLB RFO       ACCESS:         59  HIT:          0  MISS:         59
cpu0_STLB PREFETCH  ACCESS:          0  HIT:          0  MISS:          0
cpu0_STLB WRITEBACK ACCESS:          0  HIT:          0  MISS:          0
cpu0_L1D TOTAL     ACCESS:    8327961  HIT:    7858047  MISS:     469914
cpu0_L1D LOAD      ACCESS:    7110522  HIT:    6647506  MISS:     463016
cpu0_L1D RFO       ACCESS:    1205615  HIT:    1201838  MISS:       3777
cpu0_L1D PREFETCH  ACCESS:          0  HIT:          0  MISS:          0
cpu0_L1D WRITEBACK ACCESS:          0  HIT:          0  MISS:          0
cpu0_L2C TOTAL     ACCESS:     476666  HIT:       8291  MISS:     468375
cpu0_L2C LOAD      ACCESS:     463009  HIT:       4999  MISS:     458010
cpu0_L2C RFO       ACCESS:       3777  HIT:          0  MISS:       3777
cpu0_L2C PREFETCH  ACCESS:          0  HIT:          0  MISS:          0
cpu0_L2C WRITEBACK ACCESS:       6759  HIT:       3249  MISS:       3510
LLC TOTAL     ACCESS:     469456  HIT:       9858  MISS:     459598
LLC LOAD      ACCESS:     458010  HIT:       8944  MISS:     449066
LLC RFO       ACCESS:       3777  HIT:          4  MISS:       3773
LLC PREFETCH  ACCESS:          0  HIT:          0  MISS:          0
LLC WRITEBACK ACCESS:       4591  HIT:        610  MISS:       3981
Heartbeat CPU 0 instructions: 88000004 cycles: 75939452 heartbeat IPC: 0.668109 cumulative IPC: 0.669024 (Simulation time: 1 hr 41 min 13 sec) 

Region of Interest Statistics
cpu0_DTLB TOTAL     ACCESS:   10454661  HIT:   10439633  MISS:      15028
cpu0_DTLB LOAD      ACCESS:    9248617  HIT:    9233652  MISS:      14965
cpu0_DTLB RFO       ACCESS:    1206044  HIT:    1205981  MISS:         63
cpu0_DTLB PREFETCH  ACCESS:          0  HIT:          0  MISS:          0
cpu0_DTLB WRITEBACK ACCESS:          0  HIT:          0  MISS:          0
cpu0_ITLB TOTAL     ACCESS:      58415  HIT:      58415  MISS:          0
cpu0_ITLB LOAD      ACCESS:      58415  HIT:      58415  MISS:          0
cpu0_ITLB RFO       ACCESS:          0  HIT:          0  MISS:          0
cpu0_ITLB PREFETCH  ACCESS:          0  HIT:          0  MISS:          0
cpu0_ITLB WRITEBACK ACCESS:          0  HIT:          0  MISS:          0
cpu0_STLB TOTAL     ACCESS:      15028  HIT:       2536  MISS:      12492
cpu0_STLB LOAD      ACCESS:      14965  HIT:       2536  MISS:      12429
cpu0_STLB RFO       ACCESS:         63  HIT:          0  MISS:         63
cpu0_STLB PREFETCH  ACCESS:          0  HIT:          0  MISS:          0
cpu0_STLB WRITEBACK ACCESS:          0  HIT:          0  MISS:          0
cpu0_L1D TOTAL     ACCESS:    8789914  HIT:    8293793  MISS:     496121
cpu0_L1D LOAD      ACCESS:    7504847  HIT:    7016065  MISS:     488782
cpu0_L1D RFO       ACCESS:    1272585  HIT:    1268546  MISS:       4039
cpu0_L1D PREFETCH  ACCESS:          0  HIT:          0  MISS:          0
cpu0_L1D WRITEBACK ACCESS:          0  HIT:          0  MISS:          0
cpu0_L2C TOTAL     ACCESS:     503309  HIT:       8779  MISS:     494530
cpu0_L2C LOAD      ACCESS:     488775  HIT:       5277  MISS:     483498
cpu0_L2C RFO       ACCESS:       4039  HIT:          0  MISS:       4039
cpu0_L2C PREFETCH  ACCESS:          0  HIT:          0  MISS:          0
cpu0_L2C WRITEBACK ACCESS:       7195  HIT:       3459  MISS:       3736
LLC TOTAL     ACCESS:     495633  HIT:      10417  MISS:     485216
LLC LOAD      ACCESS:     483498  HIT:       9462  MISS:     474036
LLC RFO       ACCESS:       4039  HIT:          4  MISS:       4035
LLC PREFETCH  ACCESS:          0  HIT:          0  MISS:          0
LLC WRITEBACK ACCESS:       4839  HIT:        638  MISS:       4201
Heartbeat CPU 0 instructions: 90000004 cycles: 78910173 heartbeat IPC: 0.673237 cumulative IPC: 0.669233 (Simulation time: 1 hr 44 min 28 sec) 

Region of Interest Statistics
cpu0_DTLB TOTAL     ACCESS:   11005390  HIT:   10989560  MISS:      15830
cpu0_DTLB LOAD      ACCESS:    9735924  HIT:    9720159  MISS:      15765
cpu0_DTLB RFO       ACCESS:    1269466  HIT:    1269401  MISS:         65
cpu0_DTLB PREFETCH  ACCESS:          0  HIT:          0  MISS:          0
cpu0_DTLB WRITEBACK ACCESS:          0  HIT:          0  MISS:          0
cpu0_ITLB TOTAL     ACCESS:      61456  HIT:      61456  MISS:          0
cpu0_ITLB LOAD      ACCESS:      61456  HIT:      61456  MISS:          0
cpu0_ITLB RFO       ACCESS:          0  HIT:          0  MISS:          0
cpu0_ITLB PREFETCH  ACCESS:          0  HIT:          0  MISS:          0
cpu0_ITLB WRITEBACK ACCESS:          0  HIT:          0  MISS:          0
cpu0_STLB TOTAL     ACCESS:      15830  HIT:       2681  MISS:      13149
cpu0_STLB LOAD      ACCESS:      15765  HIT:       2681  MISS:      13084
cpu0_STLB RFO       ACCESS:         65  HIT:          0  MISS:         65
cpu0_STLB PREFETCH  ACCESS:          0  HIT:          0  MISS:          0
cpu0_STLB WRITEBACK ACCESS:          0  HIT:          0  MISS:          0
cpu0_L1D TOTAL     ACCESS:    9253575  HIT:    8731470  MISS:     522105
cpu0_L1D LOAD      ACCESS:    7900855  HIT:    7386390  MISS:     514465
cpu0_L1D RFO       ACCESS:    1339582  HIT:    1335414  MISS:       4168
cpu0_L1D PREFETCH  ACCESS:          0  HIT:          0  MISS:          0
cpu0_L1D WRITEBACK ACCESS:          0  HIT:          0  MISS:          0
cpu0_L2C TOTAL     ACCESS:     529595  HIT:       9292  MISS:     520303
cpu0_L2C LOAD      ACCESS:     514458  HIT:       5614  MISS:     508844
cpu0_L2C RFO       ACCESS:       4168  HIT:          0  MISS:       4168
cpu0_L2C PREFETCH  ACCESS:          0  HIT:          0  MISS:          0
cpu0_L2C WRITEBACK ACCESS:       7497  HIT:       3634  MISS:       3863
LLC TOTAL     ACCESS:     521543  HIT:      11180  MISS:     510363
LLC LOAD      ACCESS:     508844  HIT:      10145  MISS:     498699
LLC RFO       ACCESS:       4168  HIT:          4  MISS:       4164
LLC PREFETCH  ACCESS:          0  HIT:          0  MISS:          0
LLC WRITEBACK ACCESS:       5103  HIT:        685  MISS:       4418
Heartbeat CPU 0 instructions: 92000003 cycles: 81864356 heartbeat IPC: 0.677006 cumulative IPC: 0.669599 (Simulation time: 1 hr 47 min 48 sec) 

Region of Interest Statistics
cpu0_DTLB TOTAL     ACCESS:   11555123  HIT:   11538497  MISS:      16626
cpu0_DTLB LOAD      ACCESS:   10222148  HIT:   10205591  MISS:      16557
cpu0_DTLB RFO       ACCESS:    1332975  HIT:    1332906  MISS:         69
cpu0_DTLB PREFETCH  ACCESS:          0  HIT:          0  MISS:          0
cpu0_DTLB WRITEBACK ACCESS:          0  HIT:          0  MISS:          0
cpu0_ITLB TOTAL     ACCESS:      64496  HIT:      64496  MISS:          0
cpu0_ITLB LOAD      ACCESS:      64496  HIT:      64496  MISS:          0
cpu0_ITLB RFO       ACCESS:          0  HIT:          0  MISS:          0
cpu0_ITLB PREFETCH  ACCESS:          0  HIT:          0  MISS:          0
cpu0_ITLB WRITEBACK ACCESS:          0  HIT:          0  MISS:          0
cpu0_STLB TOTAL     ACCESS:      16626  HIT:       2822  MISS:      13804
cpu0_STLB LOAD      ACCESS:      16557  HIT:       2822  MISS:      13735
cpu0_STLB RFO       ACCESS:         69  HIT:          0  MISS:         69
cpu0_STLB PREFETCH  ACCESS:          0  HIT:          0  MISS:          0
cpu0_STLB WRITEBACK ACCESS:          0  HIT:          0  MISS:          0
cpu0_L1D TOTAL     ACCESS:    9717092  HIT:    9168797  MISS:     548295
cpu0_L1D LOAD      ACCESS:    8296754  HIT:    7756536  MISS:     540218
cpu0_L1D RFO       ACCESS:    1406545  HIT:    1402116  MISS:       4429
cpu0_L1D PREFETCH  ACCESS:          0  HIT:          0  MISS:          0
cpu0_L1D WRITEBACK ACCESS:          0  HIT:          0  MISS:          0
cpu0_L2C TOTAL     ACCESS:     556216  HIT:       9784  MISS:     546432
cpu0_L2C LOAD      ACCESS:     540211  HIT:       5909  MISS:     534302
cpu0_L2C RFO       ACCESS:       4429  HIT:          0  MISS:       4429
cpu0_L2C PREFETCH  ACCESS:          0  HIT:          0  MISS:          0
cpu0_L2C WRITEBACK ACCESS:       7928  HIT:       3829  MISS:       4099
LLC TOTAL     ACCESS:     547710  HIT:      12078  MISS:     535632
LLC LOAD      ACCESS:     534302  HIT:      10957  MISS:     523345
LLC RFO       ACCESS:       4429  HIT:          5  MISS:       4424
LLC PREFETCH  ACCESS:          0  HIT:          0  MISS:          0
LLC WRITEBACK ACCESS:       5377  HIT:        718  MISS:       4659
Heartbeat CPU 0 instructions: 94000000 cycles: 84848412 heartbeat IPC: 0.670228 cumulative IPC: 0.669628 (Simulation time: 1 hr 51 min 10 sec) 

Region of Interest Statistics
cpu0_DTLB TOTAL     ACCESS:   12104929  HIT:   12087507  MISS:      17422
cpu0_DTLB LOAD      ACCESS:   10708446  HIT:   10691097  MISS:      17349
cpu0_DTLB RFO       ACCESS:    1396483  HIT:    1396410  MISS:         73
cpu0_DTLB PREFETCH  ACCESS:          0  HIT:          0  MISS:          0
cpu0_DTLB WRITEBACK ACCESS:          0  HIT:          0  MISS:          0
cpu0_ITLB TOTAL     ACCESS:      67573  HIT:      67573  MISS:          0
cpu0_ITLB LOAD      ACCESS:      67573  HIT:      67573  MISS:          0
cpu0_ITLB RFO       ACCESS:          0  HIT:          0  MISS:          0
cpu0_ITLB PREFETCH  ACCESS:          0  HIT:          0  MISS:          0
cpu0_ITLB WRITEBACK ACCESS:          0  HIT:          0  MISS:          0
cpu0_STLB TOTAL     ACCESS:      17422  HIT:       2957  MISS:      14465
cpu0_STLB LOAD      ACCESS:      17349  HIT:       2957  MISS:      14392
cpu0_STLB RFO       ACCESS:         73  HIT:          0  MISS:         73
cpu0_STLB PREFETCH  ACCESS:          0  HIT:          0  MISS:          0
cpu0_STLB WRITEBACK ACCESS:          0  HIT:          0  MISS:          0
cpu0_L1D TOTAL     ACCESS:   10179521  HIT:    9605045  MISS:     574476
cpu0_L1D LOAD      ACCESS:    8691551  HIT:    8125590  MISS:     565961
cpu0_L1D RFO       ACCESS:    1473517  HIT:    1468828  MISS:       4689
cpu0_L1D PREFETCH  ACCESS:          0  HIT:          0  MISS:          0
cpu0_L1D WRITEBACK ACCESS:          0  HIT:          0  MISS:          0
cpu0_L2C TOTAL     ACCESS:     582814  HIT:      10229  MISS:     572585
cpu0_L2C LOAD      ACCESS:     565954  HIT:       6179  MISS:     559775
cpu0_L2C RFO       ACCESS:       4689  HIT:          0  MISS:       4689
cpu0_L2C PREFETCH  ACCESS:          0  HIT:          0  MISS:          0
cpu0_L2C WRITEBACK ACCESS:       8345  HIT:       4003  MISS:       4342
LLC TOTAL     ACCESS:     573840  HIT:      12715  MISS:     561125
LLC LOAD      ACCESS:     559775  HIT:      11521  MISS:     548254
LLC RFO       ACCESS:       4689  HIT:          5  MISS:       4684
LLC PREFETCH  ACCESS:          0  HIT:          0  MISS:          0
LLC WRITEBACK ACCESS:       5597  HIT:        763  MISS:       4834
Heartbeat CPU 0 instructions: 96000004 cycles: 87849315 heartbeat IPC: 0.666467 cumulative IPC: 0.66949 (Simulation time: 1 hr 54 min 25 sec) 

Region of Interest Statistics
cpu0_DTLB TOTAL     ACCESS:   12655967  HIT:   12637737  MISS:      18230
cpu0_DTLB LOAD      ACCESS:   11195983  HIT:   11177829  MISS:      18154
cpu0_DTLB RFO       ACCESS:    1459984  HIT:    1459908  MISS:         76
cpu0_DTLB PREFETCH  ACCESS:          0  HIT:          0  MISS:          0
cpu0_DTLB WRITEBACK ACCESS:          0  HIT:          0  MISS:          0
cpu0_ITLB TOTAL     ACCESS:      70620  HIT:      70620  MISS:          0
cpu0_ITLB LOAD      ACCESS:      70620  HIT:      70620  MISS:          0
cpu0_ITLB RFO       ACCESS:          0  HIT:          0  MISS:          0
cpu0_ITLB PREFETCH  ACCESS:          0  HIT:          0  MISS:          0
cpu0_ITLB WRITEBACK ACCESS:          0  HIT:          0  MISS:          0
cpu0_STLB TOTAL     ACCESS:      18230  HIT:       3108  MISS:      15122
cpu0_STLB LOAD      ACCESS:      18154  HIT:       3107  MISS:      15047
cpu0_STLB RFO       ACCESS:         76  HIT:          1  MISS:         75
cpu0_STLB PREFETCH  ACCESS:          0  HIT:          0  MISS:          0
cpu0_STLB WRITEBACK ACCESS:          0  HIT:          0  MISS:          0
cpu0_L1D TOTAL     ACCESS:   10642505  HIT:   10042034  MISS:     600471
cpu0_L1D LOAD      ACCESS:    9086883  HIT:    8495229  MISS:     591654
cpu0_L1D RFO       ACCESS:    1540513  HIT:    1535694  MISS:       4819
cpu0_L1D PREFETCH  ACCESS:          0  HIT:          0  MISS:          0
cpu0_L1D WRITEBACK ACCESS:          0  HIT:          0  MISS:          0
cpu0_L2C TOTAL     ACCESS:     609110  HIT:      10692  MISS:     598418
cpu0_L2C LOAD      ACCESS:     591647  HIT:       6481  MISS:     585166
cpu0_L2C RFO       ACCESS:       4819  HIT:          0  MISS:       4819
cpu0_L2C PREFETCH  ACCESS:          0  HIT:          0  MISS:          0
cpu0_L2C WRITEBACK ACCESS:       8646  HIT:       4164  MISS:       4482
LLC TOTAL     ACCESS:     599827  HIT:      13112  MISS:     586715
LLC LOAD      ACCESS:     585166  HIT:      11861  MISS:     573305
LLC RFO       ACCESS:       4819  HIT:          5  MISS:       4814
LLC PREFETCH  ACCESS:          0  HIT:          0  MISS:          0
LLC WRITEBACK ACCESS:       5891  HIT:        813  MISS:       5078
Heartbeat CPU 0 instructions: 98000003 cycles: 90824727 heartbeat IPC: 0.672175 cumulative IPC: 0.669601 (Simulation time: 1 hr 57 min 36 sec) 

Region of Interest Statistics
cpu0_DTLB TOTAL     ACCESS:   13205812  HIT:   13186780  MISS:      19032
cpu0_DTLB LOAD      ACCESS:   11682293  HIT:   11663342  MISS:      18951
cpu0_DTLB RFO       ACCESS:    1523519  HIT:    1523438  MISS:         81
cpu0_DTLB PREFETCH  ACCESS:          0  HIT:          0  MISS:          0
cpu0_DTLB WRITEBACK ACCESS:          0  HIT:          0  MISS:          0
cpu0_ITLB TOTAL     ACCESS:      73634  HIT:      73634  MISS:          0
cpu0_ITLB LOAD      ACCESS:      73634  HIT:      73634  MISS:          0
cpu0_ITLB RFO       ACCESS:          0  HIT:          0  MISS:          0
cpu0_ITLB PREFETCH  ACCESS:          0  HIT:          0  MISS:          0
cpu0_ITLB WRITEBACK ACCESS:          0  HIT:          0  MISS:          0
cpu0_STLB TOTAL     ACCESS:      19032  HIT:       3258  MISS:      15774
cpu0_STLB LOAD      ACCESS:      18951  HIT:       3256  MISS:      15695
cpu0_STLB RFO       ACCESS:         81  HIT:          2  MISS:         79
cpu0_STLB PREFETCH  ACCESS:          0  HIT:          0  MISS:          0
cpu0_STLB WRITEBACK ACCESS:          0  HIT:          0  MISS:          0
cpu0_L1D TOTAL     ACCESS:   11105330  HIT:   10478673  MISS:     626657
cpu0_L1D LOAD      ACCESS:    9482091  HIT:    8864689  MISS:     617402
cpu0_L1D RFO       ACCESS:    1607478  HIT:    1602397  MISS:       5081
cpu0_L1D PREFETCH  ACCESS:          0  HIT:          0  MISS:          0
cpu0_L1D WRITEBACK ACCESS:          0  HIT:          0  MISS:          0
cpu0_L2C TOTAL     ACCESS:     635722  HIT:      11228  MISS:     624494
cpu0_L2C LOAD      ACCESS:     617395  HIT:       6810  MISS:     610585
cpu0_L2C RFO       ACCESS:       5081  HIT:          0  MISS:       5081
cpu0_L2C PREFETCH  ACCESS:          0  HIT:          0  MISS:          0
cpu0_L2C WRITEBACK ACCESS:       9072  HIT:       4371  MISS:       4701
LLC TOTAL     ACCESS:     625885  HIT:      13747  MISS:     612138
LLC LOAD      ACCESS:     610585  HIT:      12417  MISS:     598168
LLC RFO       ACCESS:       5081  HIT:          5  MISS:       5076
LLC PREFETCH  ACCESS:          0  HIT:          0  MISS:          0
LLC WRITEBACK ACCESS:       6092  HIT:        850  MISS:       5242
Heartbeat CPU 0 instructions: 100000001 cycles: 93823473 heartbeat IPC: 0.666945 cumulative IPC: 0.669495 (Simulation time: 2 hr 0 min 53 sec) 

Region of Interest Statistics
cpu0_DTLB TOTAL     ACCESS:   13756665  HIT:   13736843  MISS:      19822
cpu0_DTLB LOAD      ACCESS:   12169701  HIT:   12149962  MISS:      19739
cpu0_DTLB RFO       ACCESS:    1586964  HIT:    1586881  MISS:         83
cpu0_DTLB PREFETCH  ACCESS:          0  HIT:          0  MISS:          0
cpu0_DTLB WRITEBACK ACCESS:          0  HIT:          0  MISS:          0
cpu0_ITLB TOTAL     ACCESS:      76627  HIT:      76627  MISS:          0
cpu0_ITLB LOAD      ACCESS:      76627  HIT:      76627  MISS:          0
cpu0_ITLB RFO       ACCESS:          0  HIT:          0  MISS:          0
cpu0_ITLB PREFETCH  ACCESS:          0  HIT:          0  MISS:          0
cpu0_ITLB WRITEBACK ACCESS:          0  HIT:          0  MISS:          0
cpu0_STLB TOTAL     ACCESS:      19822  HIT:       3391  MISS:      16431
cpu0_STLB LOAD      ACCESS:      19739  HIT:       3389  MISS:      16350
cpu0_STLB RFO       ACCESS:         83  HIT:          2  MISS:         81
cpu0_STLB PREFETCH  ACCESS:          0  HIT:          0  MISS:          0
cpu0_STLB WRITEBACK ACCESS:          0  HIT:          0  MISS:          0
cpu0_L1D TOTAL     ACCESS:   11568071  HIT:   10915430  MISS:     652641
cpu0_L1D LOAD      ACCESS:    9877179  HIT:    9234094  MISS:     643085
cpu0_L1D RFO       ACCESS:    1674475  HIT:    1669265  MISS:       5210
cpu0_L1D PREFETCH  ACCESS:          0  HIT:          0  MISS:          0
cpu0_L1D WRITEBACK ACCESS:          0  HIT:          0  MISS:          0
cpu0_L2C TOTAL     ACCESS:     661994  HIT:      11601  MISS:     650393
cpu0_L2C LOAD      ACCESS:     643078  HIT:       7042  MISS:     636036
cpu0_L2C RFO       ACCESS:       5210  HIT:          0  MISS:       5210
cpu0_L2C PREFETCH  ACCESS:          0  HIT:          0  MISS:          0
cpu0_L2C WRITEBACK ACCESS:       9360  HIT:       4512  MISS:       4848
LLC TOTAL     ACCESS:     651927  HIT:      14251  MISS:     637676
LLC LOAD      ACCESS:     636036  HIT:      12847  MISS:     623189
LLC RFO       ACCESS:       5210  HIT:          5  MISS:       5205
LLC PREFETCH  ACCESS:          0  HIT:          0  MISS:          0
LLC WRITEBACK ACCESS:       6382  HIT:        899  MISS:       5483
Heartbeat CPU 0 instructions: 102000004 cycles: 96803276 heartbeat IPC: 0.671186 cumulative IPC: 0.66956 (Simulation time: 2 hr 4 min 17 sec) 

Region of Interest Statistics
cpu0_DTLB TOTAL     ACCESS:   14306529  HIT:   14285911  MISS:      20618
cpu0_DTLB LOAD      ACCESS:   12656051  HIT:   12635520  MISS:      20531
cpu0_DTLB RFO       ACCESS:    1650478  HIT:    1650391  MISS:         87
cpu0_DTLB PREFETCH  ACCESS:          0  HIT:          0  MISS:          0
cpu0_DTLB WRITEBACK ACCESS:          0  HIT:          0  MISS:          0
cpu0_ITLB TOTAL     ACCESS:      79755  HIT:      79755  MISS:          0
cpu0_ITLB LOAD      ACCESS:      79755  HIT:      79755  MISS:          0
cpu0_ITLB RFO       ACCESS:          0  HIT:          0  MISS:          0
cpu0_ITLB PREFETCH  ACCESS:          0  HIT:          0  MISS:          0
cpu0_ITLB WRITEBACK ACCESS:          0  HIT:          0  MISS:          0
cpu0_STLB TOTAL     ACCESS:      20618  HIT:       3524  MISS:      17094
cpu0_STLB LOAD      ACCESS:      20531  HIT:       3522  MISS:      17009
cpu0_STLB RFO       ACCESS:         87  HIT:          2  MISS:         85
cpu0_STLB PREFETCH  ACCESS:          0  HIT:          0  MISS:          0
cpu0_STLB WRITEBACK ACCESS:          0  HIT:          0  MISS:          0
cpu0_L1D TOTAL     ACCESS:   12030945  HIT:   11352103  MISS:     678842
cpu0_L1D LOAD      ACCESS:   10272422  HIT:    9603575  MISS:     668847
cpu0_L1D RFO       ACCESS:    1741443  HIT:    1735972  MISS:       5471
cpu0_L1D PREFETCH  ACCESS:          0  HIT:          0  MISS:          0
cpu0_L1D WRITEBACK ACCESS:          0  HIT:          0  MISS:          0
cpu0_L2C TOTAL     ACCESS:     688620  HIT:      12179  MISS:     676441
cpu0_L2C LOAD      ACCESS:     668839  HIT:       7405  MISS:     661434
cpu0_L2C RFO       ACCESS:       5471  HIT:          0  MISS:       5471
cpu0_L2C PREFETCH  ACCESS:          0  HIT:          0  MISS:          0
cpu0_L2C WRITEBACK ACCESS:       9786  HIT:       4727  MISS:       5059
LLC TOTAL     ACCESS:     678026  HIT:      14841  MISS:     663185
LLC LOAD      ACCESS:     661434  HIT:      13367  MISS:     648067
LLC RFO       ACCESS:       5471  HIT:          5  MISS:       5466
LLC PREFETCH  ACCESS:          0  HIT:          0  MISS:          0
LLC WRITEBACK ACCESS:       6644  HIT:        954  MISS:       5690
Heartbeat CPU 0 instructions: 104000003 cycles: 99784631 heartbeat IPC: 0.670836 cumulative IPC: 0.669607 (Simulation time: 2 hr 7 min 34 sec) 

Region of Interest Statistics
cpu0_DTLB TOTAL     ACCESS:   14856279  HIT:   14834866  MISS:      21413
cpu0_DTLB LOAD      ACCESS:   13142318  HIT:   13120996  MISS:      21322
cpu0_DTLB RFO       ACCESS:    1713961  HIT:    1713870  MISS:         91
cpu0_DTLB PREFETCH  ACCESS:          0  HIT:          0  MISS:          0
cpu0_DTLB WRITEBACK ACCESS:          0  HIT:          0  MISS:          0
cpu0_ITLB TOTAL     ACCESS:      82846  HIT:      82846  MISS:          0
cpu0_ITLB LOAD      ACCESS:      82846  HIT:      82846  MISS:          0
cpu0_ITLB RFO       ACCESS:          0  HIT:          0  MISS:          0
cpu0_ITLB PREFETCH  ACCESS:          0  HIT:          0  MISS:          0
cpu0_ITLB WRITEBACK ACCESS:          0  HIT:          0  MISS:          0
cpu0_STLB TOTAL     ACCESS:      21413  HIT:       3659  MISS:      17754
cpu0_STLB LOAD      ACCESS:      21322  HIT:       3657  MISS:      17665
cpu0_STLB RFO       ACCESS:         91  HIT:          2  MISS:         89
cpu0_STLB PREFETCH  ACCESS:          0  HIT:          0  MISS:          0
cpu0_STLB WRITEBACK ACCESS:          0  HIT:          0  MISS:          0
cpu0_L1D TOTAL     ACCESS:   12493320  HIT:   11788303  MISS:     705017
cpu0_L1D LOAD      ACCESS:   10667167  HIT:    9972584  MISS:     694583
cpu0_L1D RFO       ACCESS:    1808414  HIT:    1802683  MISS:       5731
cpu0_L1D PREFETCH  ACCESS:          0  HIT:          0  MISS:          0
cpu0_L1D WRITEBACK ACCESS:          0  HIT:          0  MISS:          0
cpu0_L2C TOTAL     ACCESS:     715212  HIT:      12628  MISS:     702584
cpu0_L2C LOAD      ACCESS:     694575  HIT:       7680  MISS:     686895
cpu0_L2C RFO       ACCESS:       5731  HIT:          0  MISS:       5731
cpu0_L2C PREFETCH  ACCESS:          0  HIT:          0  MISS:          0
cpu0_L2C WRITEBACK ACCESS:      10203  HIT:       4901  MISS:       5302
LLC TOTAL     ACCESS:     704156  HIT:      15541  MISS:     688615
LLC LOAD      ACCESS:     686895  HIT:      14008  MISS:     672887
LLC RFO       ACCESS:       5731  HIT:          6  MISS:       5725
LLC PREFETCH  ACCESS:          0  HIT:          0  MISS:          0
LLC WRITEBACK ACCESS:       6874  HIT:        986  MISS:       5888
Heartbeat CPU 0 instructions: 106000001 cycles: 102764165 heartbeat IPC: 0.671245 cumulative IPC: 0.669665 (Simulation time: 2 hr 10 min 49 sec) 

Region of Interest Statistics
cpu0_DTLB TOTAL     ACCESS:   15407073  HIT:   15384866  MISS:      22207
cpu0_DTLB LOAD      ACCESS:   13629646  HIT:   13607532  MISS:      22114
cpu0_DTLB RFO       ACCESS:    1777427  HIT:    1777334  MISS:         93
cpu0_DTLB PREFETCH  ACCESS:          0  HIT:          0  MISS:          0
cpu0_DTLB WRITEBACK ACCESS:          0  HIT:          0  MISS:          0
cpu0_ITLB TOTAL     ACCESS:      85783  HIT:      85783  MISS:          0
cpu0_ITLB LOAD      ACCESS:      85783  HIT:      85783  MISS:          0
cpu0_ITLB RFO       ACCESS:          0  HIT:          0  MISS:          0
cpu0_ITLB PREFETCH  ACCESS:          0  HIT:          0  MISS:          0
cpu0_ITLB WRITEBACK ACCESS:          0  HIT:          0  MISS:          0
cpu0_STLB TOTAL     ACCESS:      22207  HIT:       3802  MISS:      18405
cpu0_STLB LOAD      ACCESS:      22114  HIT:       3800  MISS:      18314
cpu0_STLB RFO       ACCESS:         93  HIT:          2  MISS:         91
cpu0_STLB PREFETCH  ACCESS:          0  HIT:          0  MISS:          0
cpu0_STLB WRITEBACK ACCESS:          0  HIT:          0  MISS:          0
cpu0_L1D TOTAL     ACCESS:   12956741  HIT:   12225746  MISS:     730995
cpu0_L1D LOAD      ACCESS:   11062947  HIT:   10342685  MISS:     720262
cpu0_L1D RFO       ACCESS:    1875404  HIT:    1869543  MISS:       5861
cpu0_L1D PREFETCH  ACCESS:          0  HIT:          0  MISS:          0
cpu0_L1D WRITEBACK ACCESS:          0  HIT:          0  MISS:          0
cpu0_L2C TOTAL     ACCESS:     741485  HIT:      13014  MISS:     728471
cpu0_L2C LOAD      ACCESS:     720253  HIT:       7913  MISS:     712340
cpu0_L2C RFO       ACCESS:       5861  HIT:          0  MISS:       5861
cpu0_L2C PREFETCH  ACCESS:          0  HIT:          0  MISS:          0
cpu0_L2C WRITEBACK ACCESS:      10499  HIT:       5053  MISS:       5446
LLC TOTAL     ACCESS:     730193  HIT:      16198  MISS:     713995
LLC LOAD      ACCESS:     712340  HIT:      14593  MISS:     697747
LLC RFO       ACCESS:       5861  HIT:          6  MISS:       5855
LLC PREFETCH  ACCESS:          0  HIT:          0  MISS:          0
LLC WRITEBACK ACCESS:       7168  HIT:       1024  MISS:       6144
Heartbeat CPU 0 instructions: 108000004 cycles: 105756564 heartbeat IPC: 0.668361 cumulative IPC: 0.66962 (Simulation time: 2 hr 14 min 6 sec) 

Region of Interest Statistics
cpu0_DTLB TOTAL     ACCESS:   15957021  HIT:   15934013  MISS:      23008
cpu0_DTLB LOAD      ACCESS:   14116058  HIT:   14093147  MISS:      22911
cpu0_DTLB RFO       ACCESS:    1840963  HIT:    1840866  MISS:         97
cpu0_DTLB PREFETCH  ACCESS:          0  HIT:          0  MISS:          0
cpu0_DTLB WRITEBACK ACCESS:          0  HIT:          0  MISS:          0
cpu0_ITLB TOTAL     ACCESS:      88886  HIT:      88886  MISS:          0
cpu0_ITLB LOAD      ACCESS:      88886  HIT:      88886  MISS:          0
cpu0_ITLB RFO       ACCESS:          0  HIT:          0  MISS:          0
cpu0_ITLB PREFETCH  ACCESS:          0  HIT:          0  MISS:          0
cpu0_ITLB WRITEBACK ACCESS:          0  HIT:          0  MISS:          0
cpu0_STLB TOTAL     ACCESS:      23008  HIT:       3940  MISS:      19068
cpu0_STLB LOAD      ACCESS:      22911  HIT:       3938  MISS:      18973
cpu0_STLB RFO       ACCESS:         97  HIT:          2  MISS:         95
cpu0_STLB PREFETCH  ACCESS:          0  HIT:          0  MISS:          0
cpu0_STLB WRITEBACK ACCESS:          0  HIT:          0  MISS:          0
cpu0_L1D TOTAL     ACCESS:   13418887  HIT:   12661693  MISS:     757194
cpu0_L1D LOAD      ACCESS:   11457460  HIT:   10711440  MISS:     746020
cpu0_L1D RFO       ACCESS:    1942375  HIT:    1936252  MISS:       6123
cpu0_L1D PREFETCH  ACCESS:          0  HIT:          0  MISS:          0
cpu0_L1D WRITEBACK ACCESS:          0  HIT:          0  MISS:          0
cpu0_L2C TOTAL     ACCESS:     768119  HIT:      13507  MISS:     754612
cpu0_L2C LOAD      ACCESS:     746011  HIT:       8195  MISS:     737816
cpu0_L2C RFO       ACCESS:       6123  HIT:          0  MISS:       6123
cpu0_L2C PREFETCH  ACCESS:          0  HIT:          0  MISS:          0
cpu0_L2C WRITEBACK ACCESS:      10934  HIT:       5264  MISS:       5670
LLC TOTAL     ACCESS:     756345  HIT:      16705  MISS:     739640
LLC LOAD      ACCESS:     737816  HIT:      15044  MISS:     722772
LLC RFO       ACCESS:       6123  HIT:          6  MISS:       6117
LLC PREFETCH  ACCESS:          0  HIT:          0  MISS:          0
LLC WRITEBACK ACCESS:       7403  HIT:       1057  MISS:       6346
Heartbeat CPU 0 instructions: 110000003 cycles: 108739213 heartbeat IPC: 0.670545 cumulative IPC: 0.669651 (Simulation time: 2 hr 17 min 28 sec) 

Region of Interest Statistics
cpu0_DTLB TOTAL     ACCESS:   16506912  HIT:   16483097  MISS:      23815
cpu0_DTLB LOAD      ACCESS:   14602406  HIT:   14578692  MISS:      23714
cpu0_DTLB RFO       ACCESS:    1904506  HIT:    1904405  MISS:        101
cpu0_DTLB PREFETCH  ACCESS:          0  HIT:          0  MISS:          0
cpu0_DTLB WRITEBACK ACCESS:          0  HIT:          0  MISS:          0
cpu0_ITLB TOTAL     ACCESS:      91976  HIT:      91976  MISS:          0
cpu0_ITLB LOAD      ACCESS:      91976  HIT:      91976  MISS:          0
cpu0_ITLB RFO       ACCESS:          0  HIT:          0  MISS:          0
cpu0_ITLB PREFETCH  ACCESS:          0  HIT:          0  MISS:          0
cpu0_ITLB WRITEBACK ACCESS:          0  HIT:          0  MISS:          0
cpu0_STLB TOTAL     ACCESS:      23815  HIT:       4088  MISS:      19727
cpu0_STLB LOAD      ACCESS:      23714  HIT:       4086  MISS:      19628
cpu0_STLB RFO       ACCESS:        101  HIT:          2  MISS:         99
cpu0_STLB PREFETCH  ACCESS:          0  HIT:          0  MISS:          0
cpu0_STLB WRITEBACK ACCESS:          0  HIT:          0  MISS:          0
cpu0_L1D TOTAL     ACCESS:   13881491  HIT:   13098102  MISS:     783389
cpu0_L1D LOAD      ACCESS:   11852436  HIT:   11080658  MISS:     771778
cpu0_L1D RFO       ACCESS:    2009344  HIT:    2002962  MISS:       6382
cpu0_L1D PREFETCH  ACCESS:          0  HIT:          0  MISS:          0
cpu0_L1D WRITEBACK ACCESS:          0  HIT:          0  MISS:          0
cpu0_L2C TOTAL     ACCESS:     794740  HIT:      13923  MISS:     780817
cpu0_L2C LOAD      ACCESS:     771769  HIT:       8430  MISS:     763339
cpu0_L2C RFO       ACCESS:       6382  HIT:          0  MISS:       6382
cpu0_L2C PREFETCH  ACCESS:          0  HIT:          0  MISS:          0
cpu0_L2C WRITEBACK ACCESS:      11360  HIT:       5442  MISS:       5918
LLC TOTAL     ACCESS:     782563  HIT:      17363  MISS:     765200
LLC LOAD      ACCESS:     763339  HIT:      15649  MISS:     747690
LLC RFO       ACCESS:       6382  HIT:          6  MISS:       6376
LLC PREFETCH  ACCESS:          0  HIT:          0  MISS:          0
LLC WRITEBACK ACCESS:       7664  HIT:       1089  MISS:       6575
Heartbeat CPU 0 instructions: 112000001 cycles: 111715004 heartbeat IPC: 0.67209 cumulative IPC: 0.669729 (Simulation time: 2 hr 20 min 50 sec) 

Region of Interest Statistics
cpu0_DTLB TOTAL     ACCESS:   17057647  HIT:   17032883  MISS:      24764
cpu0_DTLB LOAD      ACCESS:   15089688  HIT:   15065043  MISS:      24645
cpu0_DTLB RFO       ACCESS:    1967959  HIT:    1967840  MISS:        119
cpu0_DTLB PREFETCH  ACCESS:          0  HIT:          0  MISS:          0
cpu0_DTLB WRITEBACK ACCESS:          0  HIT:          0  MISS:          0
cpu0_ITLB TOTAL     ACCESS:      94974  HIT:      94974  MISS:          0
cpu0_ITLB LOAD      ACCESS:      94974  HIT:      94974  MISS:          0
cpu0_ITLB RFO       ACCESS:          0  HIT:          0  MISS:          0
cpu0_ITLB PREFETCH  ACCESS:          0  HIT:          0  MISS:          0
cpu0_ITLB WRITEBACK ACCESS:          0  HIT:          0  MISS:          0
cpu0_STLB TOTAL     ACCESS:      24764  HIT:       4382  MISS:      20382
cpu0_STLB LOAD      ACCESS:      24645  HIT:       4364  MISS:      20281
cpu0_STLB RFO       ACCESS:        119  HIT:         18  MISS:        101
cpu0_STLB PREFETCH  ACCESS:          0  HIT:          0  MISS:          0
cpu0_STLB WRITEBACK ACCESS:          0  HIT:          0  MISS:          0
cpu0_L1D TOTAL     ACCESS:   14344932  HIT:   13535547  MISS:     809385
cpu0_L1D LOAD      ACCESS:   12248226  HIT:   11450755  MISS:     797471
cpu0_L1D RFO       ACCESS:    2076341  HIT:    2069828  MISS:       6513
cpu0_L1D PREFETCH  ACCESS:          0  HIT:          0  MISS:          0
cpu0_L1D WRITEBACK ACCESS:          0  HIT:          0  MISS:          0
cpu0_L2C TOTAL     ACCESS:     821044  HIT:      14385  MISS:     806659
cpu0_L2C LOAD      ACCESS:     797461  HIT:       8708  MISS:     788753
cpu0_L2C RFO       ACCESS:       6513  HIT:          0  MISS:       6513
cpu0_L2C PREFETCH  ACCESS:          0  HIT:          0  MISS:          0
cpu0_L2C WRITEBACK ACCESS:      11669  HIT:       5626  MISS:       6043
LLC TOTAL     ACCESS:     808508  HIT:      18013  MISS:     790495
LLC LOAD      ACCESS:     788753  HIT:      16254  MISS:     772499
LLC RFO       ACCESS:       6513  HIT:          6  MISS:       6507
LLC PREFETCH  ACCESS:          0  HIT:          0  MISS:          0
LLC WRITEBACK ACCESS:       7892  HIT:       1122  MISS:       6770
Heartbeat CPU 0 instructions: 114000004 cycles: 114704527 heartbeat IPC: 0.669004 cumulative IPC: 0.669707 (Simulation time: 2 hr 24 min 14 sec) 

Region of Interest Statistics
cpu0_DTLB TOTAL     ACCESS:   17607470  HIT:   17581915  MISS:      25555
cpu0_DTLB LOAD      ACCESS:   15576030  HIT:   15550598  MISS:      25432
cpu0_DTLB RFO       ACCESS:    2031440  HIT:    2031317  MISS:        123
cpu0_DTLB PREFETCH  ACCESS:          0  HIT:          0  MISS:          0
cpu0_DTLB WRITEBACK ACCESS:          0  HIT:          0  MISS:          0
cpu0_ITLB TOTAL     ACCESS:      98032  HIT:      98032  MISS:          0
cpu0_ITLB LOAD      ACCESS:      98032  HIT:      98032  MISS:          0
cpu0_ITLB RFO       ACCESS:          0  HIT:          0  MISS:          0
cpu0_ITLB PREFETCH  ACCESS:          0  HIT:          0  MISS:          0
cpu0_ITLB WRITEBACK ACCESS:          0  HIT:          0  MISS:          0
cpu0_STLB TOTAL     ACCESS:      25555  HIT:       4516  MISS:      21039
cpu0_STLB LOAD      ACCESS:      25432  HIT:       4498  MISS:      20934
cpu0_STLB RFO       ACCESS:        123  HIT:         18  MISS:        105
cpu0_STLB PREFETCH  ACCESS:          0  HIT:          0  MISS:          0
cpu0_STLB WRITEBACK ACCESS:          0  HIT:          0  MISS:          0
cpu0_L1D TOTAL     ACCESS:   14807424  HIT:   13971868  MISS:     835556
cpu0_L1D LOAD      ACCESS:   12643095  HIT:   11819888  MISS:     823207
cpu0_L1D RFO       ACCESS:    2143307  HIT:    2136534  MISS:       6773
cpu0_L1D PREFETCH  ACCESS:          0  HIT:          0  MISS:          0
cpu0_L1D WRITEBACK ACCESS:          0  HIT:          0  MISS:          0
cpu0_L2C TOTAL     ACCESS:     847642  HIT:      14874  MISS:     832768
cpu0_L2C LOAD      ACCESS:     823197  HIT:       9012  MISS:     814185
cpu0_L2C RFO       ACCESS:       6773  HIT:          0  MISS:       6773
cpu0_L2C PREFETCH  ACCESS:          0  HIT:          0  MISS:          0
cpu0_L2C WRITEBACK ACCESS:      12096  HIT:       5811  MISS:       6285
LLC TOTAL     ACCESS:     834643  HIT:      18494  MISS:     816149
LLC LOAD      ACCESS:     814185  HIT:      16684  MISS:     797501
LLC RFO       ACCESS:       6773  HIT:          6  MISS:       6767
LLC PREFETCH  ACCESS:          0  HIT:          0  MISS:          0
LLC WRITEBACK ACCESS:       8160  HIT:       1160  MISS:       7000
Heartbeat CPU 0 instructions: 116000004 cycles: 117687030 heartbeat IPC: 0.670578 cumulative IPC: 0.669733 (Simulation time: 2 hr 27 min 37 sec) 

Region of Interest Statistics
cpu0_DTLB TOTAL     ACCESS:   18158170  HIT:   18131665  MISS:      26505
cpu0_DTLB LOAD      ACCESS:   16063337  HIT:   16036971  MISS:      26366
cpu0_DTLB RFO       ACCESS:    2094833  HIT:    2094694  MISS:        139
[...]
cpu0_DTLB LOAD      ACCESS:  279072963  HIT:  278110548  MISS:     962415
cpu0_DTLB RFO       ACCESS:   70142579  HIT:   69572817  MISS:     569762
cpu0_DTLB PREFETCH  ACCESS:          0  HIT:          0  MISS:          0
cpu0_DTLB WRITEBACK ACCESS:          0  HIT:          0  MISS:          0
cpu0_ITLB TOTAL     ACCESS:   58927582  HIT:   58927496  MISS:         86
cpu0_ITLB LOAD      ACCESS:   58927582  HIT:   58927496  MISS:         86
cpu0_ITLB RFO       ACCESS:          0  HIT:          0  MISS:          0
cpu0_ITLB PREFETCH  ACCESS:          0  HIT:          0  MISS:          0
cpu0_ITLB WRITEBACK ACCESS:          0  HIT:          0  MISS:          0
cpu0_L1I TOTAL     ACCESS:  126359046  HIT:  126357603  MISS:       1443
cpu0_L1I LOAD      ACCESS:  126359046  HIT:  126357603  MISS:       1443
cpu0_L1I RFO       ACCESS:          0  HIT:          0  MISS:          0
cpu0_L1I PREFETCH  ACCESS:          0  HIT:          0  MISS:          0
cpu0_L1I WRITEBACK ACCESS:          0  HIT:          0  MISS:          0
cpu0_STLB TOTAL     ACCESS:    1532263  HIT:    1334261  MISS:     198002
cpu0_STLB LOAD      ACCESS:     962501  HIT:     766830  MISS:     195671
cpu0_STLB RFO       ACCESS:     569762  HIT:     567431  MISS:       2331
cpu0_STLB PREFETCH  ACCESS:          0  HIT:          0  MISS:          0
cpu0_STLB WRITEBACK ACCESS:          0  HIT:          0  MISS:          0
cpu0_L1D TOTAL     ACCESS:  373984963  HIT:  364882178  MISS:    9102785
cpu0_L1D LOAD      ACCESS:  257885612  HIT:  249404799  MISS:    8480813
cpu0_L1D RFO       ACCESS:  115901709  HIT:  115332233  MISS:     569476
cpu0_L1D PREFETCH  ACCESS:          0  HIT:          0  MISS:          0
cpu0_L1D WRITEBACK ACCESS:          0  HIT:          0  MISS:          0
cpu0_L2C TOTAL     ACCESS:    9896836  HIT:    2052426  MISS:    7844410
cpu0_L2C LOAD      ACCESS:    8482188  HIT:     890997  MISS:    7591191
cpu0_L2C RFO       ACCESS:     569476  HIT:     420757  MISS:     148719
cpu0_L2C PREFETCH  ACCESS:          0  HIT:          0  MISS:          0
cpu0_L2C WRITEBACK ACCESS:     792676  HIT:     736961  MISS:      55715
LLC TOTAL     ACCESS:    7945851  HIT:     257425  MISS:    7688426
LLC LOAD      ACCESS:    7591191  HIT:     156645  MISS:    7434546
LLC RFO       ACCESS:     148719  HIT:        332  MISS:     148387
LLC PREFETCH  ACCESS:          0  HIT:          0  MISS:          0
LLC WRITEBACK ACCESS:     157156  HIT:      94549  MISS:      62607
Heartbeat CPU 0 instructions: 1550000004 cycles: 1670475489 heartbeat IPC: 1.17627 cumulative IPC: 0.908356 (Simulation time: 20 hr 22 min 24 sec) 

Region of Interest Statistics
cpu0_DTLB TOTAL     ACCESS:  349619334  HIT:  348086741  MISS:    1532593
cpu0_DTLB LOAD      ACCESS:  279365820  HIT:  278403197  MISS:     962623
cpu0_DTLB RFO       ACCESS:   70253514  HIT:   69683544  MISS:     569970
cpu0_DTLB PREFETCH  ACCESS:          0  HIT:          0  MISS:          0
cpu0_DTLB WRITEBACK ACCESS:          0  HIT:          0  MISS:          0
cpu0_ITLB TOTAL     ACCESS:   59057820  HIT:   59057734  MISS:         86
cpu0_ITLB LOAD      ACCESS:   59057820  HIT:   59057734  MISS:         86
cpu0_ITLB RFO       ACCESS:          0  HIT:          0  MISS:          0
cpu0_ITLB PREFETCH  ACCESS:          0  HIT:          0  MISS:          0
cpu0_ITLB WRITEBACK ACCESS:          0  HIT:          0  MISS:          0
cpu0_L1I TOTAL     ACCESS:  126637339  HIT:  126635896  MISS:       1443
cpu0_L1I LOAD      ACCESS:  126637339  HIT:  126635896  MISS:       1443
cpu0_L1I RFO       ACCESS:          0  HIT:          0  MISS:          0
cpu0_L1I PREFETCH  ACCESS:          0  HIT:          0  MISS:          0
cpu0_L1I WRITEBACK ACCESS:          0  HIT:          0  MISS:          0
cpu0_STLB TOTAL     ACCESS:    1532679  HIT:    1334677  MISS:     198002
cpu0_STLB LOAD      ACCESS:     962709  HIT:     767038  MISS:     195671
cpu0_STLB RFO       ACCESS:     569970  HIT:     567639  MISS:       2331
cpu0_STLB PREFETCH  ACCESS:          0  HIT:          0  MISS:          0
cpu0_STLB WRITEBACK ACCESS:          0  HIT:          0  MISS:          0
cpu0_L1D TOTAL     ACCESS:  374490738  HIT:  365385633  MISS:    9105105
cpu0_L1D LOAD      ACCESS:  258185568  HIT:  249702860  MISS:    8482708
cpu0_L1D RFO       ACCESS:  116107528  HIT:  115537627  MISS:     569901
cpu0_L1D PREFETCH  ACCESS:          0  HIT:          0  MISS:          0
cpu0_L1D WRITEBACK ACCESS:          0  HIT:          0  MISS:          0
cpu0_L2C TOTAL     ACCESS:    9900430  HIT:    2055907  MISS:    7844523
cpu0_L2C LOAD      ACCESS:    8484083  HIT:     892805  MISS:    7591278
cpu0_L2C RFO       ACCESS:     569901  HIT:     421156  MISS:     148745
cpu0_L2C PREFETCH  ACCESS:          0  HIT:          0  MISS:          0
cpu0_L2C WRITEBACK ACCESS:     793950  HIT:     738235  MISS:      55715
LLC TOTAL     ACCESS:    7946002  HIT:     257470  MISS:    7688532
LLC LOAD      ACCESS:    7591278  HIT:     156652  MISS:    7434626
LLC RFO       ACCESS:     148745  HIT:        332  MISS:     148413
LLC PREFETCH  ACCESS:          0  HIT:          0  MISS:          0
LLC WRITEBACK ACCESS:     157194  HIT:      94587  MISS:      62607
Finished CPU 0 instructions: 1500000000 cycles: 1651335208 cumulative IPC: 0.908356 (Simulation time: 20 hr 22 min 24 sec) 

ChampSim completed all CPUs

Region of Interest Statistics

CPU 0 cumulative IPC: 0.908356 instructions: 1500000000 cycles: 1651335208
cpu0_DTLB TOTAL     ACCESS:  349619334  HIT:  348086741  MISS:    1532593
cpu0_DTLB LOAD      ACCESS:  279365820  HIT:  278403197  MISS:     962623
cpu0_DTLB RFO       ACCESS:   70253514  HIT:   69683544  MISS:     569970
cpu0_DTLB PREFETCH  ACCESS:          0  HIT:          0  MISS:          0
cpu0_DTLB WRITEBACK ACCESS:          0  HIT:          0  MISS:          0
cpu0_DTLB TRANSLATION ACCESS:          0  HIT:          0  MISS:          0
cpu0_DTLB PREFETCH  REQUESTED:          0  ISSUED:          0  USEFUL:          0  USELESS:          0
cpu0_DTLB AVERAGE MISS LATENCY: 42.4734 cycles
cpu0_ITLB TOTAL     ACCESS:   59057820  HIT:   59057734  MISS:         86
cpu0_ITLB LOAD      ACCESS:   59057820  HIT:   59057734  MISS:         86
cpu0_ITLB RFO       ACCESS:          0  HIT:          0  MISS:          0
cpu0_ITLB PREFETCH  ACCESS:          0  HIT:          0  MISS:          0
cpu0_ITLB WRITEBACK ACCESS:          0  HIT:          0  MISS:          0
cpu0_ITLB TRANSLATION ACCESS:          0  HIT:          0  MISS:          0
cpu0_ITLB PREFETCH  REQUESTED:          0  ISSUED:          0  USEFUL:          0  USELESS:          0
cpu0_ITLB AVERAGE MISS LATENCY: 191.372 cycles
cpu0_L1I TOTAL     ACCESS:  126637339  HIT:  126635896  MISS:       1443
cpu0_L1I LOAD      ACCESS:  126637339  HIT:  126635896  MISS:       1443
cpu0_L1I RFO       ACCESS:          0  HIT:          0  MISS:          0
cpu0_L1I PREFETCH  ACCESS:          0  HIT:          0  MISS:          0
cpu0_L1I WRITEBACK ACCESS:          0  HIT:          0  MISS:          0
cpu0_L1I TRANSLATION ACCESS:          0  HIT:          0  MISS:          0
cpu0_L1I PREFETCH  REQUESTED:          0  ISSUED:          0  USEFUL:          0  USELESS:          0
cpu0_L1I AVERAGE MISS LATENCY: 146.769 cycles
cpu0_STLB TOTAL     ACCESS:    1532679  HIT:    1334677  MISS:     198002
cpu0_STLB LOAD      ACCESS:     962709  HIT:     767038  MISS:     195671
cpu0_STLB RFO       ACCESS:     569970  HIT:     567639  MISS:       2331
cpu0_STLB PREFETCH  ACCESS:          0  HIT:          0  MISS:          0
cpu0_STLB WRITEBACK ACCESS:          0  HIT:          0  MISS:          0
cpu0_STLB TRANSLATION ACCESS:          0  HIT:          0  MISS:          0
cpu0_STLB PREFETCH  REQUESTED:          0  ISSUED:          0  USEFUL:          0  USELESS:          0
cpu0_STLB AVERAGE MISS LATENCY: 258.864 cycles
cpu0_L1D TOTAL     ACCESS:  374490738  HIT:  365385633  MISS:    9105105
cpu0_L1D LOAD      ACCESS:  258185568  HIT:  249702860  MISS:    8482708
cpu0_L1D RFO       ACCESS:  116107528  HIT:  115537627  MISS:     569901
cpu0_L1D PREFETCH  ACCESS:          0  HIT:          0  MISS:          0
cpu0_L1D WRITEBACK ACCESS:          0  HIT:          0  MISS:          0
cpu0_L1D TRANSLATION ACCESS:     197642  HIT:     145146  MISS:      52496
cpu0_L1D PREFETCH  REQUESTED:          0  ISSUED:          0  USEFUL:          0  USELESS:          0
cpu0_L1D AVERAGE MISS LATENCY: 343.418 cycles
cpu0_L2C TOTAL     ACCESS:    9900430  HIT:    2055907  MISS:    7844523
cpu0_L2C LOAD      ACCESS:    8484083  HIT:     892805  MISS:    7591278
cpu0_L2C RFO       ACCESS:     569901  HIT:     421156  MISS:     148745
cpu0_L2C PREFETCH  ACCESS:          0  HIT:          0  MISS:          0
cpu0_L2C WRITEBACK ACCESS:     793950  HIT:     738235  MISS:      55715
cpu0_L2C TRANSLATION ACCESS:      52496  HIT:       3711  MISS:      48785
cpu0_L2C PREFETCH  REQUESTED:          0  ISSUED:          0  USEFUL:          0  USELESS:          0
cpu0_L2C AVERAGE MISS LATENCY: 385.681 cycles
LLC TOTAL     ACCESS:    7946002  HIT:     257470  MISS:    7688532
LLC LOAD      ACCESS:    7591278  HIT:     156652  MISS:    7434626
LLC RFO       ACCESS:     148745  HIT:        332  MISS:     148413
LLC PREFETCH  ACCESS:          0  HIT:          0  MISS:          0
LLC WRITEBACK ACCESS:     157194  HIT:      94587  MISS:      62607
LLC TRANSLATION ACCESS:      48785  HIT:       5899  MISS:      42886
LLC PREFETCH  REQUESTED:          0  ISSUED:          0  USEFUL:          0  USELESS:          0
LLC AVERAGE MISS LATENCY: 372.232 cycles
~~~~~~~~~~Reuse Distance Profiler output~~~~~~~~~~
0	0	0
1	0	0
2	0	0
3	0	0
4	0	0
5	0	0
6	0	0
7	0	0
8	0	0
9	0	0
10	0	0
11	0	0
12	0	0
13	0	0
14	0	0
15	0	0
16	0	0
17	0	0
18	0	0
19	0	0
20	0	0
21	0	0
22	0	0
23	0	0
24	0	0
25	0	0
26	0	0
27	0	0
28	0	0
29	0	0
30	0	0
31	0	0
32	0	0
33	0	0
34	0	0
35	0	0
36	0	0
37	0	0
38	0	0
39	0	0
40	0	0
41	0	0
42	0	0
43	0	0
44	0	0
45	0	0
46	0	0
47	0	0
48	0	0
49	0	0
50	0	0
51	0	0
52	0	0
53	0	0
54	0	0
55	0	0
56	0	0
57	0	0
58	0	0
59	0	0
60	0	0
61	0	0
62	0	0
63	0	0
64	0	0
66	0	0
68	0	0
70	0	0
72	0	0
74	0	0
76	0	0
78	0	0
80	0	0
82	0	0
84	0	0
86	0	0
88	0	0
90	0	0
92	0	0
94	0	0
96	0	0
98	0	0
100	0	0
102	0	0
104	0	0
106	0	0
108	0	0
110	0	0
112	0	0
114	0	0
116	0	0
118	0	0
120	0	0
122	0	0
124	0	0
126	0	0
128	0	0
132	0	0
136	0	0
140	0	0
144	0	0
148	0	0
152	0	0
156	0	0
160	0	0
164	0	0
168	0	0
172	0	0
176	0	0
180	0	0
184	0	0
188	0	0
192	0	0
196	0	0
200	0	0
204	0	0
208	0	0
212	0	0
216	0	0
220	0	0
224	0	0
228	0	0
232	0	0
236	0	0
240	0	0
244	0	0
248	0	0
252	0	0
256	0	0
264	0	0
272	0	0
280	0	0
288	0	0
296	0	0
304	0	0
312	0	0
320	0	0
328	0	0
336	0	0
344	0	0
352	0	0
360	0	0
368	0	0
376	0	0
384	0	0
392	0	0
400	0	0
408	0	0
416	0	0
424	0	0
432	0	0
440	0	0
448	0	0
456	0	0
464	0	0
472	0	0
480	0	0
488	0	0
496	0	0
504	0	0
512	0	0
528	0	0
544	0	0
560	0	0
576	0	0
592	0	0
608	0	0
624	0	0
640	0	0
656	0	0
672	0	0
688	0	0
704	0	0
720	0	0
736	0	0
752	0	0
768	0	0
784	0	0
800	0	0
816	0	0
832	0	0
848	0	0
864	0	0
880	0	0
896	0	0
912	0	0
928	0	0
944	0	0
960	0	0
976	0	0
992	0	0
1008	0	0
1024	0	0
1056	0	0
1088	0	0
1120	0	0
1152	0	0
1184	0	0
1216	0	0
1248	0	0
1280	0	0
1312	0	0
1344	0	0
1376	0	0
1408	0	0
1440	0	0
1472	0	0
1504	0	0
1536	0	0
1568	0	0
1600	0	0
1632	0	0
1664	0	0
1696	0	0
1728	0	0
1760	0	0
1792	0	0
1824	0	0
1856	0	0
1888	0	0
1920	0	0
1952	0	0
1984	0	0
2016	0	0
2048	0	0
2112	0	0
2176	0	0
2240	0	0
2304	0	0
2368	0	0
2432	0	0
2496	0	0
2560	0	0
2624	0	0
2688	0	0
2752	0	0
2816	0	0
2880	0	0
2944	0	0
3008	0	0
3072	0	0
3136	0	0
3200	0	0
3264	0	0
3328	0	0
3392	0	0
3456	0	0
3520	0	0
3584	0	0
3648	0	0
3712	0	0
3776	0	0
3840	0	0
3904	0	0
3968	0	0
4032	0	0
4096	0	0
4224	0	0
4352	0	0
4480	0	0
4608	0	0
4736	0	0
4864	0	0
4992	0	0
5120	0	0
5248	0	0
5376	0	0
5504	0	0
5632	0	0
5760	0	0
5888	0	0
6016	0	0
6144	0	0
6272	0	0
6400	0	0
6528	0	0
6656	0	0
6784	0	0
6912	0	0
7040	0	0
7168	0	0
7296	0	0
7424	0	0
7552	0	0
7680	0	0
7808	0	0
7936	0	0
8064	0	0
8192	0	0
8448	0	0
8704	0	0
8960	0	0
9216	0	0
9472	0	0
9728	0	0
9984	0	0
10240	0	0
10496	0	0
10752	0	0
11008	0	0
11264	0	0
11520	0	0
11776	0	0
12032	0	0
12288	0	0
12544	0	0
12800	0	0
13056	0	0
13312	0	0
13568	0	0
13824	0	0
14080	0	0
14336	0	0
14592	0	0
14848	0	0
15104	0	0
15360	0	0
15616	0	0
15872	0	0
16128	0	0
16384	0	0
16896	0	0
17408	0	0
17920	0	0
18432	0	0
18944	0	0
19456	0	0
19968	0	0
20480	0	0
20992	0	0
21504	0	0
22016	0	0
22528	0	0
23040	0	0
23552	0	0
24064	0	0
24576	0	0
25088	0	0
25600	0	0
26112	0	0
26624	0	0
27136	0	0
27648	0	0
28160	0	0
28672	0	0
29184	0	0
29696	0	0
30208	0	0
30720	0	0
31232	0	0
31744	0	0
32256	0	0
32768	0	0
33792	0	0
34816	0	0
35840	0	0
36864	0	0
37888	0	0
38912	0	0
39936	0	0
40960	0	0
41984	0	0
43008	0	0
44032	0	0
45056	0	0
46080	0	0
47104	0	0
48128	0	0
49152	0	0
50176	0	0
51200	0	0
52224	0	0
53248	0	0
54272	0	0
55296	0	0
56320	0	0
57344	0	0
58368	0	0
59392	0	0
60416	0	0
61440	0	0
62464	0	0
63488	0	0
64512	0	0
65536	0	0
67584	0	0
69632	0	0
71680	0	0
73728	0	0
75776	0	0
77824	0	0
79872	0	0
81920	0	0
83968	0	0
86016	0	0
88064	0	0
90112	0	0
92160	0	0
94208	0	0
96256	0	0
98304	0	0
100352	0	0
102400	0	0
104448	0	0
106496	0	0
108544	0	0
110592	0	0
112640	0	0
114688	0	0
116736	0	0
118784	0	0
120832	0	0
122880	0	0
124928	0	0
126976	0	0
129024	0	0
131072	0	0
135168	0	0
139264	0	0
143360	0	0
147456	0	0
151552	0	0
155648	0	0
159744	0	0
163840	0	0
167936	0	0
172032	0	0
176128	0	0
180224	0	0
184320	0	0
188416	0	0
192512	0	0
196608	0	0
200704	0	0
204800	0	0
208896	0	0
212992	0	0
217088	0	0
221184	0	0
225280	0	0
229376	0	0
233472	0	0
237568	0	0
241664	0	0
245760	0	0
249856	0	0
253952	0	0
258048	0	0
262144	0	0
270336	0	0
278528	0	0
286720	0	0
294912	0	0
303104	0	0
311296	0	0
319488	0	0
327680	0	0
335872	0	0
344064	0	0
352256	0	0
360448	0	0
368640	0	0
376832	0	0
385024	0	0
393216	0	0
401408	0	0
409600	0	0
417792	0	0
425984	0	0
434176	0	0
442368	0	0
450560	0	0
458752	0	0
466944	0	0
475136	0	0
483328	0	0
491520	0	0
499712	0	0
507904	0	0
516096	0	0
524288	0	0
540672	0	0
557056	0	0
573440	0	0
589824	0	0
606208	0	0
622592	0	0
638976	0	0
655360	0	0
671744	0	0
688128	0	0
704512	0	0
720896	0	0
737280	0	0
753664	0	0
770048	0	0
786432	0	0
802816	0	0
819200	0	0
835584	0	0
851968	0	0
868352	0	0
884736	0	0
901120	0	0
917504	0	0
933888	0	0
950272	0	0
966656	0	0
983040	0	0
999424	0	0
1015808	0	0
1032192	0	0
1048576	0	0
1081344	0	0
1114112	0	0
1146880	0	0
1179648	0	0
1212416	0	0
1245184	0	0
1277952	0	0
1310720	0	0
1343488	0	0
1376256	0	0
1409024	0	0
1441792	0	0
1474560	0	0
1507328	0	0
1540096	0	0
1572864	0	0
1605632	0	0
1638400	0	0
1671168	0	0
1703936	0	0
1736704	0	0
1769472	0	0
1802240	0	0
1835008	0	0
1867776	0	0
1900544	0	0
1933312	0	0
1966080	0	0
1998848	0	0
2031616	0	0
2064384	0	0
2097152	0	0
2162688	0	0
2228224	0	0
2293760	0	0
2359296	0	0
2424832	0	0
2490368	0	0
2555904	0	0
2621440	0	0
2686976	0	0
2752512	0	0
2818048	0	0
2883584	0	0
2949120	0	0
3014656	0	0
3080192	0	0
3145728	0	0
3211264	0	0
3276800	0	0
3342336	0	0
3407872	0	0
3473408	0	0
3538944	0	0
3604480	0	0
3670016	0	0
3735552	0	0
3801088	0	0
3866624	0	0
3932160	0	0
3997696	0	0
4063232	0	0
4128768	0	0
4194304	0	0
4325376	0	0
4456448	0	0
4587520	0	0
4718592	0	0
4849664	0	0
4980736	0	0
5111808	0	0
5242880	0	0
5373952	0	0
5505024	0	0
5636096	0	0
5767168	0	0
5898240	0	0
6029312	0	0
6160384	0	0
6291456	0	0
6422528	0	0
6553600	0	0
6684672	0	0
6815744	0	0
6946816	0	0
7077888	0	0
7208960	0	0
7340032	0	0
7471104	0	0
7602176	0	0
7733248	0	0
7864320	0	0
7995392	0	0
8126464	0	0
8257536	0	0
8388608	0	0
8650752	0	0
8912896	0	0
9175040	0	0
9437184	0	0
9699328	0	0
9961472	0	0
10223616	0	0
10485760	0	0
10747904	0	0
11010048	0	0
11272192	0	0
11534336	0	0
11796480	0	0
12058624	0	0
12320768	0	0
12582912	0	0
12845056	0	0
13107200	0	0
13369344	0	0
13631488	0	0
13893632	0	0
14155776	0	0
14417920	0	0
14680064	0	0
14942208	0	0
15204352	0	0
15466496	0	0
15728640	0	0
15990784	0	0
16252928	0	0
16515072	0	0
16777216	0	0
17301504	0	0
17825792	0	0
18350080	0	0
18874368	0	0
19398656	0	0
19922944	0	0
20447232	0	0
20971520	0	0
21495808	0	0
22020096	0	0
22544384	0	0
23068672	0	0
23592960	0	0
24117248	0	0
24641536	0	0
25165824	0	0
25690112	0	0
26214400	0	0
26738688	0	0
27262976	0	0
27787264	0	0
28311552	0	0
28835840	0	0
29360128	0	0
29884416	0	0
30408704	0	0
30932992	0	0
31457280	0	0
31981568	0	0
32505856	0	0
33030144	0	0
33554432	0	0
34603008	0	0
35651584	0	0
36700160	0	0
37748736	0	0
38797312	0	0
39845888	0	0
40894464	0	0
41943040	0	0
42991616	0	0
44040192	0	0
45088768	0	0
46137344	0	0
47185920	0	0
48234496	0	0
49283072	0	0
50331648	0	0
51380224	0	0
52428800	0	0
53477376	0	0
54525952	0	0
55574528	0	0
56623104	0	0
57671680	0	0
58720256	0	0
59768832	0	0
60817408	0	0
61865984	0	0
62914560	0	0
63963136	0	0
65011712	0	0
66060288	0	0
67108864	0	0
69206016	0	0
71303168	0	0
73400320	0	0
75497472	0	0
77594624	0	0
79691776	0	0
81788928	0	0
83886080	0	0
85983232	0	0
88080384	0	0
90177536	0	0
92274688	0	0
94371840	0	0
96468992	0	0
98566144	0	0
100663296	0	0
102760448	0	0
104857600	0	0
106954752	0	0
109051904	0	0
111149056	0	0
113246208	0	0
115343360	0	0
117440512	0	0
119537664	0	0
121634816	0	0
123731968	0	0
125829120	0	0
127926272	0	0
130023424	0	0
132120576	0	0
134217728	0	0
138412032	0	0
142606336	0	0
146800640	0	0
150994944	0	0
155189248	0	0
159383552	0	0
163577856	0	0
167772160	0	0
171966464	0	0
176160768	0	0
180355072	0	0
184549376	0	0
188743680	0	0
192937984	0	0
197132288	0	0
201326592	0	0
205520896	0	0
209715200	0	0
213909504	0	0
218103808	0	0
222298112	0	0
226492416	0	0
230686720	0	0
234881024	0	0
239075328	0	0
243269632	0	0
247463936	0	0
251658240	0	0
255852544	0	0
260046848	0	0
264241152	0	0
268435456	0	0
276824064	0	0
285212672	0	0
293601280	0	0
301989888	0	0
310378496	0	0
318767104	0	0
327155712	0	0
335544320	0	0
343932928	0	0
352321536	0	0
360710144	0	0
369098752	0	0
377487360	0	0
385875968	0	0
394264576	0	0
402653184	0	0
411041792	0	0
419430400	0	0
427819008	0	0
436207616	0	0
444596224	0	0
452984832	0	0
461373440	0	0
469762048	0	0
478150656	0	0
486539264	0	0
494927872	0	0
503316480	0	0
511705088	0	0
520093696	0	0
528482304	0	0
536870912	0	0
553648128	0	0
570425344	0	0
587202560	0	0
603979776	0	0
620756992	0	0
637534208	0	0
654311424	0	0
671088640	0	0
687865856	0	0
704643072	0	0
721420288	0	0
738197504	0	0
754974720	0	0
771751936	0	0
788529152	0	0
805306368	0	0
822083584	0	0
838860800	0	0
855638016	0	0
872415232	0	0
889192448	0	0
905969664	0	0
922746880	0	0
939524096	0	0
956301312	0	0
973078528	0	0
989855744	0	0
1006632960	0	0
1023410176	0	0
1040187392	0	0
1056964608	0	0
1073741824	0	0
1107296256	0	0
1140850688	0	0
1174405120	0	0
1207959552	0	0
1241513984	0	0
1275068416	0	0
1308622848	0	0
1342177280	0	0
1375731712	0	0
1409286144	0	0
1442840576	0	0
1476395008	0	0
1509949440	0	0
1543503872	0	0
1577058304	0	0
1610612736	0	0
1644167168	0	0
1677721600	0	0
1711276032	0	0
1744830464	0	0
1778384896	0	0
1811939328	0	0
1845493760	0	0
1879048192	0	0
1912602624	0	0
1946157056	0	0
1979711488	0	0
2013265920	0	0
2046820352	0	0
2080374784	0	0
2113929216	0	0
2147483648	0	0
2214592512	0	0
2281701376	0	0
2348810240	0	0
2415919104	0	0
2483027968	0	0
2550136832	0	0
2617245696	0	0
2684354560	0	0
2751463424	0	0
2818572288	0	0
2885681152	0	0
2952790016	0	0
3019898880	0	0
3087007744	0	0
3154116608	0	0
3221225472	0	0
3288334336	0	0
3355443200	0	0
3422552064	0	0
3489660928	0	0
3556769792	0	0
3623878656	0	0
3690987520	0	0
3758096384	0	0
3825205248	0	0
3892314112	0	0
3959422976	0	0
4026531840	0	0
4093640704	0	0
4160749568	0	0
4227858432	0	0
~~~~~~~~~~Reuse Distance Profiler output end~~~~~~~~~~

Sampler size:0

DRAM Statistics
 CHANNEL 0
 RQ ROW_BUFFER_HIT:      60221  ROW_BUFFER_MISS:    7565585
 DBUS AVG_CONGESTED_CYCLE:     3.9401
 WQ ROW_BUFFER_HIT:      50363  ROW_BUFFER_MISS:     100232  FULL:          0


CPU 0 Branch Prediction Accuracy: 97.7465% MPKI: 2.09555 Average ROB Occupancy at Mispredict: 133.886
Branch type MPKI
BRANCH_DIRECT_JUMP: 0.000136667
BRANCH_INDIRECT: 4.26667e-05
BRANCH_CONDITIONAL: 2.09503
BRANCH_DIRECT_CALL: 0.000174667
BRANCH_INDIRECT_CALL: 6.66667e-06
BRANCH_RETURN: 0.000156

