
*** ChampSim Multicore Out-of-Order Simulator ***

Warmup Instructions: 50000000
Simulation Instructions: 1500000000
Number of CPUs: 1
Off-chip DRAM Size: 4 GiB Channels: 1 Width: 64-bit Data Rate: 3200 MT/s

VirtualMemory physical capacity: 8588881920 num_ppages: 2096895
VirtualMemory page size: 4096 log2_page_size: 12

CPU 0 runs /s/traces/champsim_traces/657.xz_s-2302B.champsimtrace.xz
CPU 0 Bimodal branch predictor
Basic BTB sets: 1024 ways: 8 indirect buffer size: 4096 RAS size: 64
Initializing LRU.
Initializing LRU.
Initializing LRU.
Initializing LRU.
Initializing rdLRU.
Initializing LRU.
Initializing LRU.
Heartbeat CPU 0 instructions: 2000001 cycles: 500100 heartbeat IPC: 3.9992 cumulative IPC: 3.9992 (Simulation time: 0 hr 0 min 59 sec) 
Heartbeat CPU 0 instructions: 4000001 cycles: 1000100 heartbeat IPC: 4 cumulative IPC: 3.9996 (Simulation time: 0 hr 1 min 57 sec) 
Heartbeat CPU 0 instructions: 6000001 cycles: 1500100 heartbeat IPC: 4 cumulative IPC: 3.99973 (Simulation time: 0 hr 2 min 56 sec) 
Heartbeat CPU 0 instructions: 8000002 cycles: 2003093 heartbeat IPC: 3.9762 cumulative IPC: 3.99382 (Simulation time: 0 hr 3 min 54 sec) 
Heartbeat CPU 0 instructions: 10000002 cycles: 2503093 heartbeat IPC: 4 cumulative IPC: 3.99506 (Simulation time: 0 hr 4 min 51 sec) 
Heartbeat CPU 0 instructions: 12000001 cycles: 3003110 heartbeat IPC: 3.99986 cumulative IPC: 3.99586 (Simulation time: 0 hr 5 min 46 sec) 
Heartbeat CPU 0 instructions: 14000001 cycles: 3503110 heartbeat IPC: 4 cumulative IPC: 3.99645 (Simulation time: 0 hr 6 min 39 sec) 
Heartbeat CPU 0 instructions: 16000002 cycles: 4006101 heartbeat IPC: 3.97622 cumulative IPC: 3.99391 (Simulation time: 0 hr 7 min 38 sec) 
Heartbeat CPU 0 instructions: 18000002 cycles: 4506101 heartbeat IPC: 4 cumulative IPC: 3.99458 (Simulation time: 0 hr 8 min 30 sec) 
Heartbeat CPU 0 instructions: 20000002 cycles: 5006101 heartbeat IPC: 4 cumulative IPC: 3.99513 (Simulation time: 0 hr 9 min 20 sec) 
Heartbeat CPU 0 instructions: 22000000 cycles: 5519406 heartbeat IPC: 3.89632 cumulative IPC: 3.98594 (Simulation time: 0 hr 10 min 14 sec) 
Heartbeat CPU 0 instructions: 24000000 cycles: 6019406 heartbeat IPC: 4 cumulative IPC: 3.9871 (Simulation time: 0 hr 11 min 7 sec) 
Heartbeat CPU 0 instructions: 26000002 cycles: 6520089 heartbeat IPC: 3.99455 cumulative IPC: 3.98768 (Simulation time: 0 hr 11 min 59 sec) 
Heartbeat CPU 0 instructions: 28000002 cycles: 7020089 heartbeat IPC: 4 cumulative IPC: 3.98855 (Simulation time: 0 hr 12 min 51 sec) 
Heartbeat CPU 0 instructions: 30000002 cycles: 7520089 heartbeat IPC: 4 cumulative IPC: 3.98931 (Simulation time: 0 hr 13 min 43 sec) 
Heartbeat CPU 0 instructions: 32000002 cycles: 8020089 heartbeat IPC: 4 cumulative IPC: 3.98998 (Simulation time: 0 hr 14 min 36 sec) 
Heartbeat CPU 0 instructions: 34000002 cycles: 8520089 heartbeat IPC: 4 cumulative IPC: 3.99057 (Simulation time: 0 hr 15 min 23 sec) 
Heartbeat CPU 0 instructions: 36000003 cycles: 9023091 heartbeat IPC: 3.97613 cumulative IPC: 3.98976 (Simulation time: 0 hr 16 min 16 sec) 
Heartbeat CPU 0 instructions: 38000003 cycles: 9523091 heartbeat IPC: 4 cumulative IPC: 3.9903 (Simulation time: 0 hr 17 min 8 sec) 
Heartbeat CPU 0 instructions: 40000003 cycles: 10023091 heartbeat IPC: 4 cumulative IPC: 3.99079 (Simulation time: 0 hr 17 min 59 sec) 
Heartbeat CPU 0 instructions: 42000003 cycles: 10523091 heartbeat IPC: 4 cumulative IPC: 3.99122 (Simulation time: 0 hr 18 min 49 sec) 
Heartbeat CPU 0 instructions: 44000000 cycles: 11026080 heartbeat IPC: 3.97622 cumulative IPC: 3.99054 (Simulation time: 0 hr 19 min 41 sec) 
Heartbeat CPU 0 instructions: 46000000 cycles: 11526080 heartbeat IPC: 4 cumulative IPC: 3.99095 (Simulation time: 0 hr 20 min 30 sec) 
Heartbeat CPU 0 instructions: 48000000 cycles: 12026080 heartbeat IPC: 4 cumulative IPC: 3.99133 (Simulation time: 0 hr 21 min 17 sec) 
Heartbeat CPU 0 instructions: 50000000 cycles: 12526080 heartbeat IPC: 4 cumulative IPC: 3.99167 (Simulation time: 0 hr 22 min 8 sec) 

Warmup complete CPU 0 instructions: 50000004 cycles: 12526081 (Simulation time: 0 hr 22 min 8 sec) 

Heartbeat CPU 0 instructions: 52000000 cycles: 14459681 heartbeat IPC: 1.03434 cumulative IPC: 1.03434 (Simulation time: 0 hr 22 min 59 sec) 

Region of Interest Statistics
cpu0_DTLB TOTAL     ACCESS:     388018  HIT:     374852  MISS:      13166
cpu0_DTLB LOAD      ACCESS:     302669  HIT:     291614  MISS:      11055
cpu0_DTLB RFO       ACCESS:      85349  HIT:      83238  MISS:       2111
cpu0_DTLB PREFETCH  ACCESS:          0  HIT:          0  MISS:          0
cpu0_DTLB WRITEBACK ACCESS:          0  HIT:          0  MISS:          0
cpu0_ITLB TOTAL     ACCESS:     200269  HIT:     200269  MISS:          0
cpu0_ITLB LOAD      ACCESS:     200269  HIT:     200269  MISS:          0
cpu0_ITLB RFO       ACCESS:          0  HIT:          0  MISS:          0
cpu0_ITLB PREFETCH  ACCESS:          0  HIT:          0  MISS:          0
cpu0_ITLB WRITEBACK ACCESS:          0  HIT:          0  MISS:          0
cpu0_L1I TOTAL     ACCESS:      28375  HIT:      28375  MISS:          0
cpu0_L1I LOAD      ACCESS:      28375  HIT:      28375  MISS:          0
cpu0_L1I RFO       ACCESS:          0  HIT:          0  MISS:          0
cpu0_L1I PREFETCH  ACCESS:          0  HIT:          0  MISS:          0
cpu0_L1I WRITEBACK ACCESS:          0  HIT:          0  MISS:          0
cpu0_STLB TOTAL     ACCESS:      13166  HIT:      11179  MISS:       1987
cpu0_STLB LOAD      ACCESS:      11055  HIT:       9115  MISS:       1940
cpu0_STLB RFO       ACCESS:       2111  HIT:       2064  MISS:         47
cpu0_STLB PREFETCH  ACCESS:          0  HIT:          0  MISS:          0
cpu0_STLB WRITEBACK ACCESS:          0  HIT:          0  MISS:          0
cpu0_L1D TOTAL     ACCESS:     442690  HIT:     428907  MISS:      13783
cpu0_L1D LOAD      ACCESS:     285775  HIT:     273462  MISS:      12313
cpu0_L1D RFO       ACCESS:     154934  HIT:     153481  MISS:       1453
cpu0_L1D PREFETCH  ACCESS:          0  HIT:          0  MISS:          0
cpu0_L1D WRITEBACK ACCESS:          0  HIT:          0  MISS:          0
cpu0_L2C TOTAL     ACCESS:      22646  HIT:      15380  MISS:       7266
cpu0_L2C LOAD      ACCESS:      12313  HIT:       5551  MISS:       6762
cpu0_L2C RFO       ACCESS:       1453  HIT:        977  MISS:        476
cpu0_L2C PREFETCH  ACCESS:          0  HIT:          0  MISS:          0
cpu0_L2C WRITEBACK ACCESS:       8863  HIT:       8836  MISS:         27
LLC TOTAL     ACCESS:      12466  HIT:       9918  MISS:       2548
LLC LOAD      ACCESS:       6762  HIT:       4495  MISS:       2267
LLC RFO       ACCESS:        476  HIT:        208  MISS:        268
LLC PREFETCH  ACCESS:          0  HIT:          0  MISS:          0
LLC WRITEBACK ACCESS:       5227  HIT:       5214  MISS:         13
Heartbeat CPU 0 instructions: 54000000 cycles: 16535376 heartbeat IPC: 0.963533 cumulative IPC: 0.997681 (Simulation time: 0 hr 23 min 58 sec) 

Region of Interest Statistics
cpu0_DTLB TOTAL     ACCESS:     784269  HIT:     758439  MISS:      25830
cpu0_DTLB LOAD      ACCESS:     612902  HIT:     591073  MISS:      21829
cpu0_DTLB RFO       ACCESS:     171367  HIT:     167366  MISS:       4001
cpu0_DTLB PREFETCH  ACCESS:          0  HIT:          0  MISS:          0
cpu0_DTLB WRITEBACK ACCESS:          0  HIT:          0  MISS:          0
cpu0_ITLB TOTAL     ACCESS:     393348  HIT:     393348  MISS:          0
cpu0_ITLB LOAD      ACCESS:     393348  HIT:     393348  MISS:          0
cpu0_ITLB RFO       ACCESS:          0  HIT:          0  MISS:          0
cpu0_ITLB PREFETCH  ACCESS:          0  HIT:          0  MISS:          0
cpu0_ITLB WRITEBACK ACCESS:          0  HIT:          0  MISS:          0
cpu0_L1I TOTAL     ACCESS:      58672  HIT:      58660  MISS:         12
cpu0_L1I LOAD      ACCESS:      58672  HIT:      58660  MISS:         12
cpu0_L1I RFO       ACCESS:          0  HIT:          0  MISS:          0
cpu0_L1I PREFETCH  ACCESS:          0  HIT:          0  MISS:          0
cpu0_L1I WRITEBACK ACCESS:          0  HIT:          0  MISS:          0
cpu0_STLB TOTAL     ACCESS:      25830  HIT:      21734  MISS:       4096
cpu0_STLB LOAD      ACCESS:      21829  HIT:      17835  MISS:       3994
cpu0_STLB RFO       ACCESS:       4001  HIT:       3899  MISS:        102
cpu0_STLB PREFETCH  ACCESS:          0  HIT:          0  MISS:          0
cpu0_STLB WRITEBACK ACCESS:          0  HIT:          0  MISS:          0
cpu0_L1D TOTAL     ACCESS:     884166  HIT:     856282  MISS:      27884
cpu0_L1D LOAD      ACCESS:     573014  HIT:     548301  MISS:      24713
cpu0_L1D RFO       ACCESS:     307064  HIT:     303929  MISS:       3135
cpu0_L1D PREFETCH  ACCESS:          0  HIT:          0  MISS:          0
cpu0_L1D WRITEBACK ACCESS:          0  HIT:          0  MISS:          0
cpu0_L2C TOTAL     ACCESS:      45727  HIT:      30346  MISS:      15381
cpu0_L2C LOAD      ACCESS:      24725  HIT:      10625  MISS:      14100
cpu0_L2C RFO       ACCESS:       3135  HIT:       1904  MISS:       1231
cpu0_L2C PREFETCH  ACCESS:          0  HIT:          0  MISS:          0
cpu0_L2C WRITEBACK ACCESS:      17831  HIT:      17784  MISS:         47
LLC TOTAL     ACCESS:      26371  HIT:      20495  MISS:       5876
LLC LOAD      ACCESS:      14100  HIT:       9007  MISS:       5093
LLC RFO       ACCESS:       1231  HIT:        483  MISS:        748
LLC PREFETCH  ACCESS:          0  HIT:          0  MISS:          0
LLC WRITEBACK ACCESS:      11037  HIT:      11003  MISS:         34
Heartbeat CPU 0 instructions: 56000000 cycles: 18448471 heartbeat IPC: 1.04543 cumulative IPC: 1.0131 (Simulation time: 0 hr 24 min 51 sec) 

Region of Interest Statistics
cpu0_DTLB TOTAL     ACCESS:    1173577  HIT:    1135503  MISS:      38074
cpu0_DTLB LOAD      ACCESS:     918405  HIT:     886017  MISS:      32388
cpu0_DTLB RFO       ACCESS:     255172  HIT:     249486  MISS:       5686
cpu0_DTLB PREFETCH  ACCESS:          0  HIT:          0  MISS:          0
cpu0_DTLB WRITEBACK ACCESS:          0  HIT:          0  MISS:          0
cpu0_ITLB TOTAL     ACCESS:     594633  HIT:     594633  MISS:          0
cpu0_ITLB LOAD      ACCESS:     594633  HIT:     594633  MISS:          0
cpu0_ITLB RFO       ACCESS:          0  HIT:          0  MISS:          0
cpu0_ITLB PREFETCH  ACCESS:          0  HIT:          0  MISS:          0
cpu0_ITLB WRITEBACK ACCESS:          0  HIT:          0  MISS:          0
cpu0_L1I TOTAL     ACCESS:      84999  HIT:      84987  MISS:         12
cpu0_L1I LOAD      ACCESS:      84999  HIT:      84987  MISS:         12
cpu0_L1I RFO       ACCESS:          0  HIT:          0  MISS:          0
cpu0_L1I PREFETCH  ACCESS:          0  HIT:          0  MISS:          0
cpu0_L1I WRITEBACK ACCESS:          0  HIT:          0  MISS:          0
cpu0_STLB TOTAL     ACCESS:      38074  HIT:      32111  MISS:       5963
cpu0_STLB LOAD      ACCESS:      32388  HIT:      26583  MISS:       5805
cpu0_STLB RFO       ACCESS:       5686  HIT:       5528  MISS:        158
cpu0_STLB PREFETCH  ACCESS:          0  HIT:          0  MISS:          0
cpu0_STLB WRITEBACK ACCESS:          0  HIT:          0  MISS:          0
cpu0_L1D TOTAL     ACCESS:    1330040  HIT:    1288330  MISS:      41710
cpu0_L1D LOAD      ACCESS:     863910  HIT:     826818  MISS:      37092
cpu0_L1D RFO       ACCESS:     460178  HIT:     455609  MISS:       4569
cpu0_L1D PREFETCH  ACCESS:          0  HIT:          0  MISS:          0
cpu0_L1D WRITEBACK ACCESS:          0  HIT:          0  MISS:          0
cpu0_L2C TOTAL     ACCESS:      68481  HIT:      45972  MISS:      22509
cpu0_L2C LOAD      ACCESS:      37104  HIT:      16443  MISS:      20661
cpu0_L2C RFO       ACCESS:       4569  HIT:       2790  MISS:       1779
cpu0_L2C PREFETCH  ACCESS:          0  HIT:          0  MISS:          0
cpu0_L2C WRITEBACK ACCESS:      26759  HIT:      26694  MISS:         65
LLC TOTAL     ACCESS:      38517  HIT:      30498  MISS:       8019
LLC LOAD      ACCESS:      20661  HIT:      13697  MISS:       6964
LLC RFO       ACCESS:       1779  HIT:        769  MISS:       1010
LLC PREFETCH  ACCESS:          0  HIT:          0  MISS:          0
LLC WRITEBACK ACCESS:      16073  HIT:      16029  MISS:         44
Heartbeat CPU 0 instructions: 58000000 cycles: 20410318 heartbeat IPC: 1.01945 cumulative IPC: 1.01468 (Simulation time: 0 hr 25 min 41 sec) 

Region of Interest Statistics
cpu0_DTLB TOTAL     ACCESS:    1564937  HIT:    1514366  MISS:      50571
cpu0_DTLB LOAD      ACCESS:    1226583  HIT:    1183476  MISS:      43107
cpu0_DTLB RFO       ACCESS:     338354  HIT:     330890  MISS:       7464
cpu0_DTLB PREFETCH  ACCESS:          0  HIT:          0  MISS:          0
cpu0_DTLB WRITEBACK ACCESS:          0  HIT:          0  MISS:          0
cpu0_ITLB TOTAL     ACCESS:     796541  HIT:     796541  MISS:          0
cpu0_ITLB LOAD      ACCESS:     796541  HIT:     796541  MISS:          0
cpu0_ITLB RFO       ACCESS:          0  HIT:          0  MISS:          0
cpu0_ITLB PREFETCH  ACCESS:          0  HIT:          0  MISS:          0
cpu0_ITLB WRITEBACK ACCESS:          0  HIT:          0  MISS:          0
cpu0_L1I TOTAL     ACCESS:     111065  HIT:     111051  MISS:         14
cpu0_L1I LOAD      ACCESS:     111065  HIT:     111051  MISS:         14
cpu0_L1I RFO       ACCESS:          0  HIT:          0  MISS:          0
cpu0_L1I PREFETCH  ACCESS:          0  HIT:          0  MISS:          0
cpu0_L1I WRITEBACK ACCESS:          0  HIT:          0  MISS:          0
cpu0_STLB TOTAL     ACCESS:      50571  HIT:      42485  MISS:       8086
cpu0_STLB LOAD      ACCESS:      43107  HIT:      35225  MISS:       7882
cpu0_STLB RFO       ACCESS:       7464  HIT:       7260  MISS:        204
cpu0_STLB PREFETCH  ACCESS:          0  HIT:          0  MISS:          0
cpu0_STLB WRITEBACK ACCESS:          0  HIT:          0  MISS:          0
cpu0_L1D TOTAL     ACCESS:    1766552  HIT:    1710977  MISS:      55575
cpu0_L1D LOAD      ACCESS:    1150114  HIT:    1100620  MISS:      49494
cpu0_L1D RFO       ACCESS:     608367  HIT:     602350  MISS:       6017
cpu0_L1D PREFETCH  ACCESS:          0  HIT:          0  MISS:          0
cpu0_L1D WRITEBACK ACCESS:          0  HIT:          0  MISS:          0
cpu0_L2C TOTAL     ACCESS:      91315  HIT:      61694  MISS:      29621
cpu0_L2C LOAD      ACCESS:      49507  HIT:      22218  MISS:      27289
cpu0_L2C RFO       ACCESS:       6017  HIT:       3765  MISS:       2252
cpu0_L2C PREFETCH  ACCESS:          0  HIT:          0  MISS:          0
cpu0_L2C WRITEBACK ACCESS:      35727  HIT:      35651  MISS:         76
LLC TOTAL     ACCESS:      50731  HIT:      40050  MISS:      10681
LLC LOAD      ACCESS:      27289  HIT:      17930  MISS:       9359
LLC RFO       ACCESS:       2252  HIT:        981  MISS:       1271
LLC PREFETCH  ACCESS:          0  HIT:          0  MISS:          0
LLC WRITEBACK ACCESS:      21186  HIT:      21136  MISS:         50
Heartbeat CPU 0 instructions: 60000001 cycles: 22340689 heartbeat IPC: 1.03607 cumulative IPC: 1.01889 (Simulation time: 0 hr 26 min 33 sec) 

Region of Interest Statistics
cpu0_DTLB TOTAL     ACCESS:    1954808  HIT:    1891363  MISS:      63445
cpu0_DTLB LOAD      ACCESS:    1534256  HIT:    1480177  MISS:      54079
cpu0_DTLB RFO       ACCESS:     420552  HIT:     411186  MISS:       9366
cpu0_DTLB PREFETCH  ACCESS:          0  HIT:          0  MISS:          0
cpu0_DTLB WRITEBACK ACCESS:          0  HIT:          0  MISS:          0
cpu0_ITLB TOTAL     ACCESS:     998393  HIT:     998393  MISS:          0
cpu0_ITLB LOAD      ACCESS:     998393  HIT:     998393  MISS:          0
cpu0_ITLB RFO       ACCESS:          0  HIT:          0  MISS:          0
cpu0_ITLB PREFETCH  ACCESS:          0  HIT:          0  MISS:          0
cpu0_ITLB WRITEBACK ACCESS:          0  HIT:          0  MISS:          0
cpu0_L1I TOTAL     ACCESS:     136838  HIT:     136824  MISS:         14
cpu0_L1I LOAD      ACCESS:     136838  HIT:     136824  MISS:         14
cpu0_L1I RFO       ACCESS:          0  HIT:          0  MISS:          0
cpu0_L1I PREFETCH  ACCESS:          0  HIT:          0  MISS:          0
cpu0_L1I WRITEBACK ACCESS:          0  HIT:          0  MISS:          0
cpu0_STLB TOTAL     ACCESS:      63445  HIT:      53636  MISS:       9809
cpu0_STLB LOAD      ACCESS:      54079  HIT:      44509  MISS:       9570
cpu0_STLB RFO       ACCESS:       9366  HIT:       9127  MISS:        239
cpu0_STLB PREFETCH  ACCESS:          0  HIT:          0  MISS:          0
cpu0_STLB WRITEBACK ACCESS:          0  HIT:          0  MISS:          0
cpu0_L1D TOTAL     ACCESS:    2210652  HIT:    2141202  MISS:      69450
cpu0_L1D LOAD      ACCESS:    1444292  HIT:    1382268  MISS:      62024
cpu0_L1D RFO       ACCESS:     756571  HIT:     749221  MISS:       7350
cpu0_L1D PREFETCH  ACCESS:          0  HIT:          0  MISS:          0
cpu0_L1D WRITEBACK ACCESS:          0  HIT:          0  MISS:          0
cpu0_L2C TOTAL     ACCESS:     114082  HIT:      77694  MISS:      36388
cpu0_L2C LOAD      ACCESS:      62037  HIT:      28380  MISS:      33657
cpu0_L2C RFO       ACCESS:       7350  HIT:       4721  MISS:       2629
cpu0_L2C PREFETCH  ACCESS:          0  HIT:          0  MISS:          0
cpu0_L2C WRITEBACK ACCESS:      44619  HIT:      44522  MISS:         97
LLC TOTAL     ACCESS:      62273  HIT:      49555  MISS:      12718
LLC LOAD      ACCESS:      33657  HIT:      22493  MISS:      11164
LLC RFO       ACCESS:       2629  HIT:       1133  MISS:       1496
LLC PREFETCH  ACCESS:          0  HIT:          0  MISS:          0
LLC WRITEBACK ACCESS:      25982  HIT:      25925  MISS:         57
Heartbeat CPU 0 instructions: 62000001 cycles: 24170751 heartbeat IPC: 1.09286 cumulative IPC: 1.03051 (Simulation time: 0 hr 27 min 25 sec) 

Region of Interest Statistics
cpu0_DTLB TOTAL     ACCESS:    2337947  HIT:    2262929  MISS:      75018
cpu0_DTLB LOAD      ACCESS:    1834005  HIT:    1770607  MISS:      63398
cpu0_DTLB RFO       ACCESS:     503942  HIT:     492322  MISS:      11620
cpu0_DTLB PREFETCH  ACCESS:          0  HIT:          0  MISS:          0
cpu0_DTLB WRITEBACK ACCESS:          0  HIT:          0  MISS:          0
cpu0_ITLB TOTAL     ACCESS:    1193956  HIT:    1193956  MISS:          0
cpu0_ITLB LOAD      ACCESS:    1193956  HIT:    1193956  MISS:          0
cpu0_ITLB RFO       ACCESS:          0  HIT:          0  MISS:          0
cpu0_ITLB PREFETCH  ACCESS:          0  HIT:          0  MISS:          0
cpu0_ITLB WRITEBACK ACCESS:          0  HIT:          0  MISS:          0
cpu0_L1I TOTAL     ACCESS:     168281  HIT:     168267  MISS:         14
cpu0_L1I LOAD      ACCESS:     168281  HIT:     168267  MISS:         14
cpu0_L1I RFO       ACCESS:          0  HIT:          0  MISS:          0
cpu0_L1I PREFETCH  ACCESS:          0  HIT:          0  MISS:          0
cpu0_L1I WRITEBACK ACCESS:          0  HIT:          0  MISS:          0
cpu0_STLB TOTAL     ACCESS:      75018  HIT:      63487  MISS:      11531
cpu0_STLB LOAD      ACCESS:      63398  HIT:      52194  MISS:      11204
cpu0_STLB RFO       ACCESS:      11620  HIT:      11293  MISS:        327
cpu0_STLB PREFETCH  ACCESS:          0  HIT:          0  MISS:          0
cpu0_STLB WRITEBACK ACCESS:          0  HIT:          0  MISS:          0
cpu0_L1D TOTAL     ACCESS:    2637496  HIT:    2555620  MISS:      81876
cpu0_L1D LOAD      ACCESS:    1720232  HIT:    1647342  MISS:      72890
cpu0_L1D RFO       ACCESS:     905755  HIT:     896857  MISS:       8898
cpu0_L1D PREFETCH  ACCESS:          0  HIT:          0  MISS:          0
cpu0_L1D WRITEBACK ACCESS:          0  HIT:          0  MISS:          0
cpu0_L2C TOTAL     ACCESS:     134715  HIT:      92403  MISS:      42312
cpu0_L2C LOAD      ACCESS:      72903  HIT:      33847  MISS:      39056
cpu0_L2C RFO       ACCESS:       8897  HIT:       5773  MISS:       3124
cpu0_L2C PREFETCH  ACCESS:          0  HIT:          0  MISS:          0
cpu0_L2C WRITEBACK ACCESS:      52827  HIT:      52700  MISS:        127
LLC TOTAL     ACCESS:      72365  HIT:      57196  MISS:      15169
LLC LOAD      ACCESS:      39056  HIT:      25774  MISS:      13282
LLC RFO       ACCESS:       3124  HIT:       1307  MISS:       1817
LLC PREFETCH  ACCESS:          0  HIT:          0  MISS:          0
LLC WRITEBACK ACCESS:      30180  HIT:      30111  MISS:         69
Heartbeat CPU 0 instructions: 64000002 cycles: 26012584 heartbeat IPC: 1.08588 cumulative IPC: 1.03807 (Simulation time: 0 hr 28 min 20 sec) 

Region of Interest Statistics
cpu0_DTLB TOTAL     ACCESS:    2715997  HIT:    2629598  MISS:      86399
cpu0_DTLB LOAD      ACCESS:    2132218  HIT:    2059742  MISS:      72476
cpu0_DTLB RFO       ACCESS:     583779  HIT:     569856  MISS:      13923
cpu0_DTLB PREFETCH  ACCESS:          0  HIT:          0  MISS:          0
cpu0_DTLB WRITEBACK ACCESS:          0  HIT:          0  MISS:          0
cpu0_ITLB TOTAL     ACCESS:    1383370  HIT:    1383370  MISS:          0
cpu0_ITLB LOAD      ACCESS:    1383370  HIT:    1383370  MISS:          0
cpu0_ITLB RFO       ACCESS:          0  HIT:          0  MISS:          0
cpu0_ITLB PREFETCH  ACCESS:          0  HIT:          0  MISS:          0
cpu0_ITLB WRITEBACK ACCESS:          0  HIT:          0  MISS:          0
cpu0_L1I TOTAL     ACCESS:     195064  HIT:     195039  MISS:         25
cpu0_L1I LOAD      ACCESS:     195064  HIT:     195039  MISS:         25
cpu0_L1I RFO       ACCESS:          0  HIT:          0  MISS:          0
cpu0_L1I PREFETCH  ACCESS:          0  HIT:          0  MISS:          0
cpu0_L1I WRITEBACK ACCESS:          0  HIT:          0  MISS:          0
cpu0_STLB TOTAL     ACCESS:      86399  HIT:      73024  MISS:      13375
cpu0_STLB LOAD      ACCESS:      72476  HIT:      59608  MISS:      12868
cpu0_STLB RFO       ACCESS:      13923  HIT:      13416  MISS:        507
cpu0_STLB PREFETCH  ACCESS:          0  HIT:          0  MISS:          0
cpu0_STLB WRITEBACK ACCESS:          0  HIT:          0  MISS:          0
cpu0_L1D TOTAL     ACCESS:    3064074  HIT:    2969161  MISS:      94913
cpu0_L1D LOAD      ACCESS:    2004357  HIT:    1920458  MISS:      83899
cpu0_L1D RFO       ACCESS:    1046365  HIT:    1035458  MISS:      10907
cpu0_L1D PREFETCH  ACCESS:          0  HIT:          0  MISS:          0
cpu0_L1D WRITEBACK ACCESS:          0  HIT:          0  MISS:          0
cpu0_L2C TOTAL     ACCESS:     156578  HIT:     107627  MISS:      48951
cpu0_L2C LOAD      ACCESS:      83923  HIT:      39001  MISS:      44922
cpu0_L2C RFO       ACCESS:      10906  HIT:       7032  MISS:       3874
cpu0_L2C PREFETCH  ACCESS:          0  HIT:          0  MISS:          0
cpu0_L2C WRITEBACK ACCESS:      61642  HIT:      61495  MISS:        147
LLC TOTAL     ACCESS:      83494  HIT:      66336  MISS:      17158
LLC LOAD      ACCESS:      44922  HIT:      30117  MISS:      14805
LLC RFO       ACCESS:       3874  HIT:       1598  MISS:       2276
LLC PREFETCH  ACCESS:          0  HIT:          0  MISS:          0
LLC WRITEBACK ACCESS:      34690  HIT:      34615  MISS:         75
Heartbeat CPU 0 instructions: 66000000 cycles: 27873913 heartbeat IPC: 1.0745 cumulative IPC: 1.04249 (Simulation time: 0 hr 29 min 10 sec) 

Region of Interest Statistics
cpu0_DTLB TOTAL     ACCESS:    3104836  HIT:    3007066  MISS:      97770
cpu0_DTLB LOAD      ACCESS:    2436587  HIT:    2354447  MISS:      82140
cpu0_DTLB RFO       ACCESS:     668249  HIT:     652619  MISS:      15630
cpu0_DTLB PREFETCH  ACCESS:          0  HIT:          0  MISS:          0
cpu0_DTLB WRITEBACK ACCESS:          0  HIT:          0  MISS:          0
cpu0_ITLB TOTAL     ACCESS:    1583253  HIT:    1583253  MISS:          0
cpu0_ITLB LOAD      ACCESS:    1583253  HIT:    1583253  MISS:          0
cpu0_ITLB RFO       ACCESS:          0  HIT:          0  MISS:          0
cpu0_ITLB PREFETCH  ACCESS:          0  HIT:          0  MISS:          0
cpu0_ITLB WRITEBACK ACCESS:          0  HIT:          0  MISS:          0
cpu0_L1I TOTAL     ACCESS:     223132  HIT:     223106  MISS:         26
cpu0_L1I LOAD      ACCESS:     223132  HIT:     223106  MISS:         26
cpu0_L1I RFO       ACCESS:          0  HIT:          0  MISS:          0
cpu0_L1I PREFETCH  ACCESS:          0  HIT:          0  MISS:          0
cpu0_L1I WRITEBACK ACCESS:          0  HIT:          0  MISS:          0
cpu0_STLB TOTAL     ACCESS:      97770  HIT:      82653  MISS:      15117
cpu0_STLB LOAD      ACCESS:      82140  HIT:      67577  MISS:      14563
cpu0_STLB RFO       ACCESS:      15630  HIT:      15076  MISS:        554
cpu0_STLB PREFETCH  ACCESS:          0  HIT:          0  MISS:          0
cpu0_STLB WRITEBACK ACCESS:          0  HIT:          0  MISS:          0
cpu0_L1D TOTAL     ACCESS:    3513860  HIT:    3406471  MISS:     107389
cpu0_L1D LOAD      ACCESS:    2296302  HIT:    2201312  MISS:      94990
cpu0_L1D RFO       ACCESS:    1202467  HIT:    1190188  MISS:      12279
cpu0_L1D PREFETCH  ACCESS:          0  HIT:          0  MISS:          0
cpu0_L1D WRITEBACK ACCESS:          0  HIT:          0  MISS:          0
cpu0_L2C TOTAL     ACCESS:     177203  HIT:     122227  MISS:      54976
cpu0_L2C LOAD      ACCESS:      95015  HIT:      44465  MISS:      50550
cpu0_L2C RFO       ACCESS:      12278  HIT:       8017  MISS:       4261
cpu0_L2C PREFETCH  ACCESS:          0  HIT:          0  MISS:          0
cpu0_L2C WRITEBACK ACCESS:      69790  HIT:      69634  MISS:        156
LLC TOTAL     ACCESS:      93844  HIT:      74676  MISS:      19168
LLC LOAD      ACCESS:      50550  HIT:      33973  MISS:      16577
LLC RFO       ACCESS:       4261  HIT:       1752  MISS:       2509
LLC PREFETCH  ACCESS:          0  HIT:          0  MISS:          0
LLC WRITEBACK ACCESS:      39024  HIT:      38944  MISS:         80
Heartbeat CPU 0 instructions: 68000002 cycles: 29740741 heartbeat IPC: 1.07134 cumulative IPC: 1.04562 (Simulation time: 0 hr 29 min 59 sec) 

Region of Interest Statistics
cpu0_DTLB TOTAL     ACCESS:    3485567  HIT:    3375434  MISS:     110133
cpu0_DTLB LOAD      ACCESS:    2733399  HIT:    2641079  MISS:      92320
cpu0_DTLB RFO       ACCESS:     752168  HIT:     734355  MISS:      17813
cpu0_DTLB PREFETCH  ACCESS:          0  HIT:          0  MISS:          0
cpu0_DTLB WRITEBACK ACCESS:          0  HIT:          0  MISS:          0
cpu0_ITLB TOTAL     ACCESS:    1781123  HIT:    1781123  MISS:          0
cpu0_ITLB LOAD      ACCESS:    1781123  HIT:    1781123  MISS:          0
cpu0_ITLB RFO       ACCESS:          0  HIT:          0  MISS:          0
cpu0_ITLB PREFETCH  ACCESS:          0  HIT:          0  MISS:          0
cpu0_ITLB WRITEBACK ACCESS:          0  HIT:          0  MISS:          0
cpu0_L1I TOTAL     ACCESS:     252123  HIT:     252096  MISS:         27
cpu0_L1I LOAD      ACCESS:     252123  HIT:     252096  MISS:         27
cpu0_L1I RFO       ACCESS:          0  HIT:          0  MISS:          0
cpu0_L1I PREFETCH  ACCESS:          0  HIT:          0  MISS:          0
cpu0_L1I WRITEBACK ACCESS:          0  HIT:          0  MISS:          0
cpu0_STLB TOTAL     ACCESS:     110133  HIT:      93147  MISS:      16986
cpu0_STLB LOAD      ACCESS:      92320  HIT:      75956  MISS:      16364
cpu0_STLB RFO       ACCESS:      17813  HIT:      17191  MISS:        622
cpu0_STLB PREFETCH  ACCESS:          0  HIT:          0  MISS:          0
cpu0_STLB WRITEBACK ACCESS:          0  HIT:          0  MISS:          0
cpu0_L1D TOTAL     ACCESS:    3955048  HIT:    3834390  MISS:     120658
cpu0_L1D LOAD      ACCESS:    2582314  HIT:    2475586  MISS:     106728
cpu0_L1D RFO       ACCESS:    1355780  HIT:    1341983  MISS:      13797
cpu0_L1D PREFETCH  ACCESS:          0  HIT:          0  MISS:          0
cpu0_L1D WRITEBACK ACCESS:          0  HIT:          0  MISS:          0
cpu0_L2C TOTAL     ACCESS:     199056  HIT:     137735  MISS:      61321
cpu0_L2C LOAD      ACCESS:     106754  HIT:      50301  MISS:      56453
cpu0_L2C RFO       ACCESS:      13796  HIT:       9111  MISS:       4685
cpu0_L2C PREFETCH  ACCESS:          0  HIT:          0  MISS:          0
cpu0_L2C WRITEBACK ACCESS:      78373  HIT:      78200  MISS:        173
LLC TOTAL     ACCESS:     104736  HIT:      83424  MISS:      21312
LLC LOAD      ACCESS:      56453  HIT:      38011  MISS:      18442
LLC RFO       ACCESS:       4685  HIT:       1907  MISS:       2778
LLC PREFETCH  ACCESS:          0  HIT:          0  MISS:          0
LLC WRITEBACK ACCESS:      43588  HIT:      43498  MISS:         90
Heartbeat CPU 0 instructions: 70000001 cycles: 31592297 heartbeat IPC: 1.08017 cumulative IPC: 1.04898 (Simulation time: 0 hr 30 min 48 sec) 

Region of Interest Statistics
cpu0_DTLB TOTAL     ACCESS:    3875127  HIT:    3753413  MISS:     121714
cpu0_DTLB LOAD      ACCESS:    3040417  HIT:    2938275  MISS:     102142
cpu0_DTLB RFO       ACCESS:     834710  HIT:     815138  MISS:      19572
cpu0_DTLB PREFETCH  ACCESS:          0  HIT:          0  MISS:          0
cpu0_DTLB WRITEBACK ACCESS:          0  HIT:          0  MISS:          0
cpu0_ITLB TOTAL     ACCESS:    1980605  HIT:    1980605  MISS:          0
cpu0_ITLB LOAD      ACCESS:    1980605  HIT:    1980605  MISS:          0
cpu0_ITLB RFO       ACCESS:          0  HIT:          0  MISS:          0
cpu0_ITLB PREFETCH  ACCESS:          0  HIT:          0  MISS:          0
cpu0_ITLB WRITEBACK ACCESS:          0  HIT:          0  MISS:          0
cpu0_L1I TOTAL     ACCESS:     278816  HIT:     278789  MISS:         27
cpu0_L1I LOAD      ACCESS:     278816  HIT:     278789  MISS:         27
cpu0_L1I RFO       ACCESS:          0  HIT:          0  MISS:          0
cpu0_L1I PREFETCH  ACCESS:          0  HIT:          0  MISS:          0
cpu0_L1I WRITEBACK ACCESS:          0  HIT:          0  MISS:          0
cpu0_STLB TOTAL     ACCESS:     121714  HIT:     102956  MISS:      18758
cpu0_STLB LOAD      ACCESS:     102142  HIT:      84076  MISS:      18066
cpu0_STLB RFO       ACCESS:      19572  HIT:      18880  MISS:        692
cpu0_STLB PREFETCH  ACCESS:          0  HIT:          0  MISS:          0
cpu0_STLB WRITEBACK ACCESS:          0  HIT:          0  MISS:          0
cpu0_L1D TOTAL     ACCESS:    4393419  HIT:    4259724  MISS:     133695
cpu0_L1D LOAD      ACCESS:    2869667  HIT:    2751387  MISS:     118280
cpu0_L1D RFO       ACCESS:    1505030  HIT:    1489758  MISS:      15272
cpu0_L1D PREFETCH  ACCESS:          0  HIT:          0  MISS:          0
cpu0_L1D WRITEBACK ACCESS:          0  HIT:          0  MISS:          0
cpu0_L2C TOTAL     ACCESS:     220628  HIT:     152761  MISS:      67867
cpu0_L2C LOAD      ACCESS:     118306  HIT:      55820  MISS:      62486
cpu0_L2C RFO       ACCESS:      15269  HIT:      10090  MISS:       5179
cpu0_L2C PREFETCH  ACCESS:          0  HIT:          0  MISS:          0
cpu0_L2C WRITEBACK ACCESS:      86910  HIT:      86718  MISS:        192
LLC TOTAL     ACCESS:     115956  HIT:      92753  MISS:      23203
LLC LOAD      ACCESS:      62486  HIT:      42427  MISS:      20059
LLC RFO       ACCESS:       5179  HIT:       2130  MISS:       3049
LLC PREFETCH  ACCESS:          0  HIT:          0  MISS:          0
LLC WRITEBACK ACCESS:      48281  HIT:      48188  MISS:         93
Heartbeat CPU 0 instructions: 72000002 cycles: 33452396 heartbeat IPC: 1.07521 cumulative IPC: 1.05131 (Simulation time: 0 hr 31 min 41 sec) 

Region of Interest Statistics
cpu0_DTLB TOTAL     ACCESS:    4261127  HIT:    4129071  MISS:     132056
cpu0_DTLB LOAD      ACCESS:    3343623  HIT:    3233124  MISS:     110499
cpu0_DTLB RFO       ACCESS:     917504  HIT:     895947  MISS:      21557
cpu0_DTLB PREFETCH  ACCESS:          0  HIT:          0  MISS:          0
cpu0_DTLB WRITEBACK ACCESS:          0  HIT:          0  MISS:          0
cpu0_ITLB TOTAL     ACCESS:    2172575  HIT:    2172575  MISS:          0
cpu0_ITLB LOAD      ACCESS:    2172575  HIT:    2172575  MISS:          0
cpu0_ITLB RFO       ACCESS:          0  HIT:          0  MISS:          0
cpu0_ITLB PREFETCH  ACCESS:          0  HIT:          0  MISS:          0
cpu0_ITLB WRITEBACK ACCESS:          0  HIT:          0  MISS:          0
cpu0_L1I TOTAL     ACCESS:     307670  HIT:     307633  MISS:         37
cpu0_L1I LOAD      ACCESS:     307670  HIT:     307633  MISS:         37
cpu0_L1I RFO       ACCESS:          0  HIT:          0  MISS:          0
cpu0_L1I PREFETCH  ACCESS:          0  HIT:          0  MISS:          0
cpu0_L1I WRITEBACK ACCESS:          0  HIT:          0  MISS:          0
cpu0_STLB TOTAL     ACCESS:     132056  HIT:     111556  MISS:      20500
cpu0_STLB LOAD      ACCESS:     110499  HIT:      90766  MISS:      19733
cpu0_STLB RFO       ACCESS:      21557  HIT:      20790  MISS:        767
cpu0_STLB PREFETCH  ACCESS:          0  HIT:          0  MISS:          0
cpu0_STLB WRITEBACK ACCESS:          0  HIT:          0  MISS:          0
cpu0_L1D TOTAL     ACCESS:    4829473  HIT:    4683020  MISS:     146453
cpu0_L1D LOAD      ACCESS:    3156402  HIT:    3027121  MISS:     129281
cpu0_L1D RFO       ACCESS:    1652609  HIT:    1635596  MISS:      17013
cpu0_L1D PREFETCH  ACCESS:          0  HIT:          0  MISS:          0
cpu0_L1D WRITEBACK ACCESS:          0  HIT:          0  MISS:          0
cpu0_L2C TOTAL     ACCESS:     241787  HIT:     167297  MISS:      74490
cpu0_L2C LOAD      ACCESS:     129317  HIT:      60857  MISS:      68460
cpu0_L2C RFO       ACCESS:      17009  HIT:      11211  MISS:       5798
cpu0_L2C PREFETCH  ACCESS:          0  HIT:          0  MISS:          0
cpu0_L2C WRITEBACK ACCESS:      95302  HIT:      95085  MISS:        217
LLC TOTAL     ACCESS:     127238  HIT:     101908  MISS:      25330
LLC LOAD      ACCESS:      68460  HIT:      46714  MISS:      21746
LLC RFO       ACCESS:       5798  HIT:       2324  MISS:       3474
LLC PREFETCH  ACCESS:          0  HIT:          0  MISS:          0
LLC WRITEBACK ACCESS:      52965  HIT:      52858  MISS:        107
Heartbeat CPU 0 instructions: 74000000 cycles: 35190180 heartbeat IPC: 1.15089 cumulative IPC: 1.05894 (Simulation time: 0 hr 32 min 29 sec) 

Region of Interest Statistics
cpu0_DTLB TOTAL     ACCESS:    4644239  HIT:    4500764  MISS:     143475
cpu0_DTLB LOAD      ACCESS:    3644273  HIT:    3524809  MISS:     119464
cpu0_DTLB RFO       ACCESS:     999966  HIT:     975955  MISS:      24011
cpu0_DTLB PREFETCH  ACCESS:          0  HIT:          0  MISS:          0
cpu0_DTLB WRITEBACK ACCESS:          0  HIT:          0  MISS:          0
cpu0_ITLB TOTAL     ACCESS:    2362513  HIT:    2362513  MISS:          0
cpu0_ITLB LOAD      ACCESS:    2362513  HIT:    2362513  MISS:          0
cpu0_ITLB RFO       ACCESS:          0  HIT:          0  MISS:          0
cpu0_ITLB PREFETCH  ACCESS:          0  HIT:          0  MISS:          0
cpu0_ITLB WRITEBACK ACCESS:          0  HIT:          0  MISS:          0
cpu0_L1I TOTAL     ACCESS:     342293  HIT:     342256  MISS:         37
cpu0_L1I LOAD      ACCESS:     342293  HIT:     342256  MISS:         37
cpu0_L1I RFO       ACCESS:          0  HIT:          0  MISS:          0
cpu0_L1I PREFETCH  ACCESS:          0  HIT:          0  MISS:          0
cpu0_L1I WRITEBACK ACCESS:          0  HIT:          0  MISS:          0
cpu0_STLB TOTAL     ACCESS:     143475  HIT:     120950  MISS:      22525
cpu0_STLB LOAD      ACCESS:     119464  HIT:      97862  MISS:      21602
cpu0_STLB RFO       ACCESS:      24011  HIT:      23088  MISS:        923
cpu0_STLB PREFETCH  ACCESS:          0  HIT:          0  MISS:          0
cpu0_STLB WRITEBACK ACCESS:          0  HIT:          0  MISS:          0
cpu0_L1D TOTAL     ACCESS:    5244562  HIT:    5084704  MISS:     159858
cpu0_L1D LOAD      ACCESS:    3423563  HIT:    3282968  MISS:     140595
cpu0_L1D RFO       ACCESS:    1798516  HIT:    1779426  MISS:      19090
cpu0_L1D PREFETCH  ACCESS:          0  HIT:          0  MISS:          0
cpu0_L1D WRITEBACK ACCESS:          0  HIT:          0  MISS:          0
cpu0_L2C TOTAL     ACCESS:     264387  HIT:     183432  MISS:      80955
cpu0_L2C LOAD      ACCESS:     140631  HIT:      66480  MISS:      74151
cpu0_L2C RFO       ACCESS:      19086  HIT:      12552  MISS:       6534
cpu0_L2C PREFETCH  ACCESS:          0  HIT:          0  MISS:          0
cpu0_L2C WRITEBACK ACCESS:     104497  HIT:     104242  MISS:        255
LLC TOTAL     ACCESS:     138309  HIT:     110798  MISS:      27511
LLC LOAD      ACCESS:      74151  HIT:      50632  MISS:      23519
LLC RFO       ACCESS:       6534  HIT:       2666  MISS:       3868
LLC PREFETCH  ACCESS:          0  HIT:          0  MISS:          0
LLC WRITEBACK ACCESS:      57609  HIT:      57488  MISS:        121
Heartbeat CPU 0 instructions: 76000004 cycles: 37062066 heartbeat IPC: 1.06844 cumulative IPC: 1.05967 (Simulation time: 0 hr 33 min 16 sec) 

Region of Interest Statistics
cpu0_DTLB TOTAL     ACCESS:    5034350  HIT:    4878736  MISS:     155614
cpu0_DTLB LOAD      ACCESS:    3951828  HIT:    3822184  MISS:     129644
cpu0_DTLB RFO       ACCESS:    1082522  HIT:    1056552  MISS:      25970
cpu0_DTLB PREFETCH  ACCESS:          0  HIT:          0  MISS:          0
cpu0_DTLB WRITEBACK ACCESS:          0  HIT:          0  MISS:          0
cpu0_ITLB TOTAL     ACCESS:    2562619  HIT:    2562619  MISS:          0
cpu0_ITLB LOAD      ACCESS:    2562619  HIT:    2562619  MISS:          0
cpu0_ITLB RFO       ACCESS:          0  HIT:          0  MISS:          0
cpu0_ITLB PREFETCH  ACCESS:          0  HIT:          0  MISS:          0
cpu0_ITLB WRITEBACK ACCESS:          0  HIT:          0  MISS:          0
cpu0_L1I TOTAL     ACCESS:     368919  HIT:     368882  MISS:         37
cpu0_L1I LOAD      ACCESS:     368919  HIT:     368882  MISS:         37
cpu0_L1I RFO       ACCESS:          0  HIT:          0  MISS:          0
cpu0_L1I PREFETCH  ACCESS:          0  HIT:          0  MISS:          0
cpu0_L1I WRITEBACK ACCESS:          0  HIT:          0  MISS:          0
cpu0_STLB TOTAL     ACCESS:     155614  HIT:     131196  MISS:      24418
cpu0_STLB LOAD      ACCESS:     129644  HIT:     106218  MISS:      23426
cpu0_STLB RFO       ACCESS:      25970  HIT:      24978  MISS:        992
cpu0_STLB PREFETCH  ACCESS:          0  HIT:          0  MISS:          0
cpu0_STLB WRITEBACK ACCESS:          0  HIT:          0  MISS:          0
cpu0_L1D TOTAL     ACCESS:    5681890  HIT:    5509080  MISS:     172810
cpu0_L1D LOAD      ACCESS:    3709665  HIT:    3557538  MISS:     152127
cpu0_L1D RFO       ACCESS:    1947851  HIT:    1927359  MISS:      20492
cpu0_L1D PREFETCH  ACCESS:          0  HIT:          0  MISS:          0
cpu0_L1D WRITEBACK ACCESS:          0  HIT:          0  MISS:          0
cpu0_L2C TOTAL     ACCESS:     285864  HIT:     198071  MISS:      87793
cpu0_L2C LOAD      ACCESS:     152163  HIT:      71681  MISS:      80482
cpu0_L2C RFO       ACCESS:      20488  HIT:      13468  MISS:       7020
cpu0_L2C PREFETCH  ACCESS:          0  HIT:          0  MISS:          0
cpu0_L2C WRITEBACK ACCESS:     113022  HIT:     112748  MISS:        274
LLC TOTAL     ACCESS:     150053  HIT:     120460  MISS:      29593
LLC LOAD      ACCESS:      80482  HIT:      55143  MISS:      25339
LLC RFO       ACCESS:       7020  HIT:       2899  MISS:       4121
LLC PREFETCH  ACCESS:          0  HIT:          0  MISS:          0
LLC WRITEBACK ACCESS:      62534  HIT:      62404  MISS:        130
Heartbeat CPU 0 instructions: 78000004 cycles: 39039258 heartbeat IPC: 1.01154 cumulative IPC: 1.05608 (Simulation time: 0 hr 34 min 7 sec) 

Region of Interest Statistics
cpu0_DTLB TOTAL     ACCESS:    5426163  HIT:    5257972  MISS:     168191
cpu0_DTLB LOAD      ACCESS:    4261047  HIT:    4120457  MISS:     140590
cpu0_DTLB RFO       ACCESS:    1165116  HIT:    1137515  MISS:      27601
cpu0_DTLB PREFETCH  ACCESS:          0  HIT:          0  MISS:          0
cpu0_DTLB WRITEBACK ACCESS:          0  HIT:          0  MISS:          0
cpu0_ITLB TOTAL     ACCESS:    2764206  HIT:    2764206  MISS:          0
cpu0_ITLB LOAD      ACCESS:    2764206  HIT:    2764206  MISS:          0
cpu0_ITLB RFO       ACCESS:          0  HIT:          0  MISS:          0
cpu0_ITLB PREFETCH  ACCESS:          0  HIT:          0  MISS:          0
cpu0_ITLB WRITEBACK ACCESS:          0  HIT:          0  MISS:          0
cpu0_L1I TOTAL     ACCESS:     394597  HIT:     394560  MISS:         37
cpu0_L1I LOAD      ACCESS:     394597  HIT:     394560  MISS:         37
cpu0_L1I RFO       ACCESS:          0  HIT:          0  MISS:          0
cpu0_L1I PREFETCH  ACCESS:          0  HIT:          0  MISS:          0
cpu0_L1I WRITEBACK ACCESS:          0  HIT:          0  MISS:          0
cpu0_STLB TOTAL     ACCESS:     168191  HIT:     141945  MISS:      26246
cpu0_STLB LOAD      ACCESS:     140590  HIT:     115360  MISS:      25230
cpu0_STLB RFO       ACCESS:      27601  HIT:      26585  MISS:       1016
cpu0_STLB PREFETCH  ACCESS:          0  HIT:          0  MISS:          0
cpu0_STLB WRITEBACK ACCESS:          0  HIT:          0  MISS:          0
cpu0_L1D TOTAL     ACCESS:    6123942  HIT:    5937180  MISS:     186762
cpu0_L1D LOAD      ACCESS:    4000590  HIT:    3835996  MISS:     164594
cpu0_L1D RFO       ACCESS:    2097152  HIT:    2075188  MISS:      21964
cpu0_L1D PREFETCH  ACCESS:          0  HIT:          0  MISS:          0
cpu0_L1D WRITEBACK ACCESS:          0  HIT:          0  MISS:          0
cpu0_L2C TOTAL     ACCESS:     308831  HIT:     214185  MISS:      94646
cpu0_L2C LOAD      ACCESS:     164630  HIT:      77696  MISS:      86934
cpu0_L2C RFO       ACCESS:      21959  HIT:      14555  MISS:       7404
cpu0_L2C PREFETCH  ACCESS:          0  HIT:          0  MISS:          0
cpu0_L2C WRITEBACK ACCESS:     122038  HIT:     121747  MISS:        291
LLC TOTAL     ACCESS:     161893  HIT:     129718  MISS:      32175
LLC LOAD      ACCESS:      86934  HIT:      59255  MISS:      27679
LLC RFO       ACCESS:       7404  HIT:       3052  MISS:       4352
LLC PREFETCH  ACCESS:          0  HIT:          0  MISS:          0
LLC WRITEBACK ACCESS:      67538  HIT:      67397  MISS:        141
Heartbeat CPU 0 instructions: 80000001 cycles: 41134678 heartbeat IPC: 0.954461 cumulative IPC: 1.04864 (Simulation time: 0 hr 35 min 0 sec) 

Region of Interest Statistics
cpu0_DTLB TOTAL     ACCESS:    5822346  HIT:    5641203  MISS:     181143
cpu0_DTLB LOAD      ACCESS:    4574689  HIT:    4422784  MISS:     151905
cpu0_DTLB RFO       ACCESS:    1247657  HIT:    1218419  MISS:      29238
cpu0_DTLB PREFETCH  ACCESS:          0  HIT:          0  MISS:          0
cpu0_DTLB WRITEBACK ACCESS:          0  HIT:          0  MISS:          0
cpu0_ITLB TOTAL     ACCESS:    2963016  HIT:    2963016  MISS:          0
cpu0_ITLB LOAD      ACCESS:    2963016  HIT:    2963016  MISS:          0
cpu0_ITLB RFO       ACCESS:          0  HIT:          0  MISS:          0
cpu0_ITLB PREFETCH  ACCESS:          0  HIT:          0  MISS:          0
cpu0_ITLB WRITEBACK ACCESS:          0  HIT:          0  MISS:          0
cpu0_L1I TOTAL     ACCESS:     419625  HIT:     419577  MISS:         48
cpu0_L1I LOAD      ACCESS:     419625  HIT:     419577  MISS:         48
cpu0_L1I RFO       ACCESS:          0  HIT:          0  MISS:          0
cpu0_L1I PREFETCH  ACCESS:          0  HIT:          0  MISS:          0
cpu0_L1I WRITEBACK ACCESS:          0  HIT:          0  MISS:          0
cpu0_STLB TOTAL     ACCESS:     181143  HIT:     153024  MISS:      28119
cpu0_STLB LOAD      ACCESS:     151905  HIT:     124848  MISS:      27057
cpu0_STLB RFO       ACCESS:      29238  HIT:      28176  MISS:       1062
cpu0_STLB PREFETCH  ACCESS:          0  HIT:          0  MISS:          0
cpu0_STLB WRITEBACK ACCESS:          0  HIT:          0  MISS:          0
cpu0_L1D TOTAL     ACCESS:    6567727  HIT:    6365797  MISS:     201930
cpu0_L1D LOAD      ACCESS:    4296971  HIT:    4118794  MISS:     178177
cpu0_L1D RFO       ACCESS:    2242692  HIT:    2219163  MISS:      23529
cpu0_L1D PREFETCH  ACCESS:          0  HIT:          0  MISS:          0
cpu0_L1D WRITEBACK ACCESS:          0  HIT:          0  MISS:          0
cpu0_L2C TOTAL     ACCESS:     333485  HIT:     230683  MISS:     102802
cpu0_L2C LOAD      ACCESS:     178224  HIT:      83761  MISS:      94463
cpu0_L2C RFO       ACCESS:      23521  HIT:      15509  MISS:       8012
cpu0_L2C PREFETCH  ACCESS:          0  HIT:          0  MISS:          0
cpu0_L2C WRITEBACK ACCESS:     131516  HIT:     131209  MISS:        307
LLC TOTAL     ACCESS:     175724  HIT:     140682  MISS:      35042
LLC LOAD      ACCESS:      94463  HIT:      64277  MISS:      30186
LLC RFO       ACCESS:       8012  HIT:       3316  MISS:       4696
LLC PREFETCH  ACCESS:          0  HIT:          0  MISS:          0
LLC WRITEBACK ACCESS:      73229  HIT:      73072  MISS:        157
Heartbeat CPU 0 instructions: 82000003 cycles: 43131635 heartbeat IPC: 1.00152 cumulative IPC: 1.04556 (Simulation time: 0 hr 35 min 54 sec) 

Region of Interest Statistics
cpu0_DTLB TOTAL     ACCESS:    6212674  HIT:    6018518  MISS:     194156
cpu0_DTLB LOAD      ACCESS:    4880740  HIT:    4717416  MISS:     163324
cpu0_DTLB RFO       ACCESS:    1331934  HIT:    1301102  MISS:      30832
cpu0_DTLB PREFETCH  ACCESS:          0  HIT:          0  MISS:          0
cpu0_DTLB WRITEBACK ACCESS:          0  HIT:          0  MISS:          0
cpu0_ITLB TOTAL     ACCESS:    3166445  HIT:    3166445  MISS:          0
cpu0_ITLB LOAD      ACCESS:    3166445  HIT:    3166445  MISS:          0
cpu0_ITLB RFO       ACCESS:          0  HIT:          0  MISS:          0
cpu0_ITLB PREFETCH  ACCESS:          0  HIT:          0  MISS:          0
cpu0_ITLB WRITEBACK ACCESS:          0  HIT:          0  MISS:          0
cpu0_L1I TOTAL     ACCESS:     444309  HIT:     444259  MISS:         50
cpu0_L1I LOAD      ACCESS:     444309  HIT:     444259  MISS:         50
cpu0_L1I RFO       ACCESS:          0  HIT:          0  MISS:          0
cpu0_L1I PREFETCH  ACCESS:          0  HIT:          0  MISS:          0
cpu0_L1I WRITEBACK ACCESS:          0  HIT:          0  MISS:          0
cpu0_STLB TOTAL     ACCESS:     194156  HIT:     164178  MISS:      29978
cpu0_STLB LOAD      ACCESS:     163324  HIT:     134431  MISS:      28893
cpu0_STLB RFO       ACCESS:      30832  HIT:      29747  MISS:       1085
cpu0_STLB PREFETCH  ACCESS:          0  HIT:          0  MISS:          0
cpu0_STLB WRITEBACK ACCESS:          0  HIT:          0  MISS:          0
cpu0_L1D TOTAL     ACCESS:    7019238  HIT:    6803222  MISS:     216016
cpu0_L1D LOAD      ACCESS:    4592693  HIT:    4401639  MISS:     191054
cpu0_L1D RFO       ACCESS:    2396631  HIT:    2371910  MISS:      24721
cpu0_L1D PREFETCH  ACCESS:          0  HIT:          0  MISS:          0
cpu0_L1D WRITEBACK ACCESS:          0  HIT:          0  MISS:          0
cpu0_L2C TOTAL     ACCESS:     356395  HIT:     246395  MISS:     110000
cpu0_L2C LOAD      ACCESS:     191103  HIT:      89809  MISS:     101294
cpu0_L2C RFO       ACCESS:      24713  HIT:      16343  MISS:       8370
cpu0_L2C PREFETCH  ACCESS:          0  HIT:          0  MISS:          0
cpu0_L2C WRITEBACK ACCESS:     140338  HIT:     140023  MISS:        315
LLC TOTAL     ACCESS:     187962  HIT:     150458  MISS:      37504
LLC LOAD      ACCESS:     101294  HIT:      68880  MISS:      32414
LLC RFO       ACCESS:       8370  HIT:       3460  MISS:       4910
LLC PREFETCH  ACCESS:          0  HIT:          0  MISS:          0
LLC WRITEBACK ACCESS:      78277  HIT:      78100  MISS:        177
Heartbeat CPU 0 instructions: 84000001 cycles: 45131149 heartbeat IPC: 1.00024 cumulative IPC: 1.04278 (Simulation time: 0 hr 36 min 46 sec) 

Region of Interest Statistics
cpu0_DTLB TOTAL     ACCESS:    6603206  HIT:    6396178  MISS:     207028
cpu0_DTLB LOAD      ACCESS:    5186524  HIT:    5011899  MISS:     174625
cpu0_DTLB RFO       ACCESS:    1416682  HIT:    1384279  MISS:      32403
cpu0_DTLB PREFETCH  ACCESS:          0  HIT:          0  MISS:          0
cpu0_DTLB WRITEBACK ACCESS:          0  HIT:          0  MISS:          0
cpu0_ITLB TOTAL     ACCESS:    3368431  HIT:    3368431  MISS:          0
cpu0_ITLB LOAD      ACCESS:    3368431  HIT:    3368431  MISS:          0
cpu0_ITLB RFO       ACCESS:          0  HIT:          0  MISS:          0
cpu0_ITLB PREFETCH  ACCESS:          0  HIT:          0  MISS:          0
cpu0_ITLB WRITEBACK ACCESS:          0  HIT:          0  MISS:          0
cpu0_L1I TOTAL     ACCESS:     470803  HIT:     470753  MISS:         50
cpu0_L1I LOAD      ACCESS:     470803  HIT:     470753  MISS:         50
cpu0_L1I RFO       ACCESS:          0  HIT:          0  MISS:          0
cpu0_L1I PREFETCH  ACCESS:          0  HIT:          0  MISS:          0
cpu0_L1I WRITEBACK ACCESS:          0  HIT:          0  MISS:          0
cpu0_STLB TOTAL     ACCESS:     207028  HIT:     175118  MISS:      31910
cpu0_STLB LOAD      ACCESS:     174625  HIT:     143833  MISS:      30792
cpu0_STLB RFO       ACCESS:      32403  HIT:      31285  MISS:       1118
cpu0_STLB PREFETCH  ACCESS:          0  HIT:          0  MISS:          0
cpu0_STLB WRITEBACK ACCESS:          0  HIT:          0  MISS:          0
cpu0_L1D TOTAL     ACCESS:    7467369  HIT:    7236822  MISS:     230547
cpu0_L1D LOAD      ACCESS:    4884636  HIT:    4680355  MISS:     204281
cpu0_L1D RFO       ACCESS:    2550895  HIT:    2524885  MISS:      26010
cpu0_L1D PREFETCH  ACCESS:          0  HIT:          0  MISS:          0
cpu0_L1D WRITEBACK ACCESS:          0  HIT:          0  MISS:          0
cpu0_L2C TOTAL     ACCESS:     380091  HIT:     262646  MISS:     117445
cpu0_L2C LOAD      ACCESS:     204330  HIT:      96040  MISS:     108290
cpu0_L2C RFO       ACCESS:      26001  HIT:      17211  MISS:       8790
cpu0_L2C PREFETCH  ACCESS:          0  HIT:          0  MISS:          0
cpu0_L2C WRITEBACK ACCESS:     149504  HIT:     149162  MISS:        342
LLC TOTAL     ACCESS:     200652  HIT:     160585  MISS:      40067
LLC LOAD      ACCESS:     108290  HIT:      73554  MISS:      34736
LLC RFO       ACCESS:       8790  HIT:       3652  MISS:       5138
LLC PREFETCH  ACCESS:          0  HIT:          0  MISS:          0
LLC WRITEBACK ACCESS:      83549  HIT:      83359  MISS:        190
Heartbeat CPU 0 instructions: 86000004 cycles: 47131031 heartbeat IPC: 1.00006 cumulative IPC: 1.04031 (Simulation time: 0 hr 37 min 39 sec) 

Region of Interest Statistics
cpu0_DTLB TOTAL     ACCESS:    6993527  HIT:    6772239  MISS:     221288
cpu0_DTLB LOAD      ACCESS:    5494260  HIT:    5307607  MISS:     186653
cpu0_DTLB RFO       ACCESS:    1499267  HIT:    1464632  MISS:      34635
cpu0_DTLB PREFETCH  ACCESS:          0  HIT:          0  MISS:          0
cpu0_DTLB WRITEBACK ACCESS:          0  HIT:          0  MISS:          0
cpu0_ITLB TOTAL     ACCESS:    3565505  HIT:    3565505  MISS:          0
cpu0_ITLB LOAD      ACCESS:    3565505  HIT:    3565505  MISS:          0
cpu0_ITLB RFO       ACCESS:          0  HIT:          0  MISS:          0
cpu0_ITLB PREFETCH  ACCESS:          0  HIT:          0  MISS:          0
cpu0_ITLB WRITEBACK ACCESS:          0  HIT:          0  MISS:          0
cpu0_L1I TOTAL     ACCESS:     498665  HIT:     498615  MISS:         50
cpu0_L1I LOAD      ACCESS:     498665  HIT:     498615  MISS:         50
cpu0_L1I RFO       ACCESS:          0  HIT:          0  MISS:          0
cpu0_L1I PREFETCH  ACCESS:          0  HIT:          0  MISS:          0
cpu0_L1I WRITEBACK ACCESS:          0  HIT:          0  MISS:          0
cpu0_STLB TOTAL     ACCESS:     221288  HIT:     187172  MISS:      34116
cpu0_STLB LOAD      ACCESS:     186653  HIT:     153726  MISS:      32927
cpu0_STLB RFO       ACCESS:      34635  HIT:      33446  MISS:       1189
cpu0_STLB PREFETCH  ACCESS:          0  HIT:          0  MISS:          0
cpu0_STLB WRITEBACK ACCESS:          0  HIT:          0  MISS:          0
cpu0_L1D TOTAL     ACCESS:    7880711  HIT:    7632840  MISS:     247871
cpu0_L1D LOAD      ACCESS:    5155229  HIT:    4935700  MISS:     219529
cpu0_L1D RFO       ACCESS:    2691445  HIT:    2663380  MISS:      28065
cpu0_L1D PREFETCH  ACCESS:          0  HIT:          0  MISS:          0
cpu0_L1D WRITEBACK ACCESS:          0  HIT:          0  MISS:          0
cpu0_L2C TOTAL     ACCESS:     408665  HIT:     282134  MISS:     126531
cpu0_L2C LOAD      ACCESS:     219578  HIT:     102973  MISS:     116605
cpu0_L2C RFO       ACCESS:      28054  HIT:      18527  MISS:       9527
cpu0_L2C PREFETCH  ACCESS:          0  HIT:          0  MISS:          0
cpu0_L2C WRITEBACK ACCESS:     160756  HIT:     160381  MISS:        375
LLC TOTAL     ACCESS:     216088  HIT:     172903  MISS:      43185
LLC LOAD      ACCESS:     116605  HIT:      79123  MISS:      37482
LLC RFO       ACCESS:       9527  HIT:       4041  MISS:       5486
LLC PREFETCH  ACCESS:          0  HIT:          0  MISS:          0
LLC WRITEBACK ACCESS:      89932  HIT:      89718  MISS:        214
Heartbeat CPU 0 instructions: 88000000 cycles: 49067692 heartbeat IPC: 1.0327 cumulative IPC: 1.03991 (Simulation time: 0 hr 38 min 33 sec) 

Region of Interest Statistics
cpu0_DTLB TOTAL     ACCESS:    7382222  HIT:    7149856  MISS:     232366
cpu0_DTLB LOAD      ACCESS:    5800863  HIT:    5604862  MISS:     196001
cpu0_DTLB RFO       ACCESS:    1581359  HIT:    1544994  MISS:      36365
cpu0_DTLB PREFETCH  ACCESS:          0  HIT:          0  MISS:          0
cpu0_DTLB WRITEBACK ACCESS:          0  HIT:          0  MISS:          0
cpu0_ITLB TOTAL     ACCESS:    3760546  HIT:    3760546  MISS:          0
cpu0_ITLB LOAD      ACCESS:    3760546  HIT:    3760546  MISS:          0
cpu0_ITLB RFO       ACCESS:          0  HIT:          0  MISS:          0
cpu0_ITLB PREFETCH  ACCESS:          0  HIT:          0  MISS:          0
cpu0_ITLB WRITEBACK ACCESS:          0  HIT:          0  MISS:          0
cpu0_L1I TOTAL     ACCESS:     526065  HIT:     526008  MISS:         57
cpu0_L1I LOAD      ACCESS:     526065  HIT:     526008  MISS:         57
cpu0_L1I RFO       ACCESS:          0  HIT:          0  MISS:          0
cpu0_L1I PREFETCH  ACCESS:          0  HIT:          0  MISS:          0
cpu0_L1I WRITEBACK ACCESS:          0  HIT:          0  MISS:          0
cpu0_STLB TOTAL     ACCESS:     232366  HIT:     196716  MISS:      35650
cpu0_STLB LOAD      ACCESS:     196001  HIT:     161599  MISS:      34402
cpu0_STLB RFO       ACCESS:      36365  HIT:      35117  MISS:       1248
cpu0_STLB PREFETCH  ACCESS:          0  HIT:          0  MISS:          0
cpu0_STLB WRITEBACK ACCESS:          0  HIT:          0  MISS:          0
cpu0_L1D TOTAL     ACCESS:    8315751  HIT:    8054642  MISS:     261109
cpu0_L1D LOAD      ACCESS:    5445379  HIT:    5214188  MISS:     231191
cpu0_L1D RFO       ACCESS:    2834804  HIT:    2805186  MISS:      29618
cpu0_L1D PREFETCH  ACCESS:          0  HIT:          0  MISS:          0
cpu0_L1D WRITEBACK ACCESS:          0  HIT:          0  MISS:          0
cpu0_L2C TOTAL     ACCESS:     430352  HIT:     297481  MISS:     132871
cpu0_L2C LOAD      ACCESS:     231247  HIT:     108838  MISS:     122409
cpu0_L2C RFO       ACCESS:      29607  HIT:      19560  MISS:      10047
cpu0_L2C PREFETCH  ACCESS:          0  HIT:          0  MISS:          0
cpu0_L2C WRITEBACK ACCESS:     169198  HIT:     168809  MISS:        389
LLC TOTAL     ACCESS:     226903  HIT:     181438  MISS:      45465
LLC LOAD      ACCESS:     122409  HIT:      83045  MISS:      39364
LLC RFO       ACCESS:      10047  HIT:       4171  MISS:       5876
LLC PREFETCH  ACCESS:          0  HIT:          0  MISS:          0
LLC WRITEBACK ACCESS:      94421  HIT:      94199  MISS:        222
Heartbeat CPU 0 instructions: 90000000 cycles: 50951775 heartbeat IPC: 1.06152 cumulative IPC: 1.04097 (Simulation time: 0 hr 39 min 23 sec) 

Region of Interest Statistics
cpu0_DTLB TOTAL     ACCESS:    7764810  HIT:    7520241  MISS:     244569
cpu0_DTLB LOAD      ACCESS:    6100751  HIT:    5894466  MISS:     206285
cpu0_DTLB RFO       ACCESS:    1664059  HIT:    1625775  MISS:      38284
cpu0_DTLB PREFETCH  ACCESS:          0  HIT:          0  MISS:          0
cpu0_DTLB WRITEBACK ACCESS:          0  HIT:          0  MISS:          0
cpu0_ITLB TOTAL     ACCESS:    3959981  HIT:    3959981  MISS:          0
cpu0_ITLB LOAD      ACCESS:    3959981  HIT:    3959981  MISS:          0
cpu0_ITLB RFO       ACCESS:          0  HIT:          0  MISS:          0
cpu0_ITLB PREFETCH  ACCESS:          0  HIT:          0  MISS:          0
cpu0_ITLB WRITEBACK ACCESS:          0  HIT:          0  MISS:          0
cpu0_L1I TOTAL     ACCESS:     554161  HIT:     554102  MISS:         59
cpu0_L1I LOAD      ACCESS:     554161  HIT:     554102  MISS:         59
cpu0_L1I RFO       ACCESS:          0  HIT:          0  MISS:          0
cpu0_L1I PREFETCH  ACCESS:          0  HIT:          0  MISS:          0
cpu0_L1I WRITEBACK ACCESS:          0  HIT:          0  MISS:          0
cpu0_STLB TOTAL     ACCESS:     244569  HIT:     207226  MISS:      37343
cpu0_STLB LOAD      ACCESS:     206285  HIT:     170229  MISS:      36056
cpu0_STLB RFO       ACCESS:      38284  HIT:      36997  MISS:       1287
cpu0_STLB PREFETCH  ACCESS:          0  HIT:          0  MISS:          0
cpu0_STLB WRITEBACK ACCESS:          0  HIT:          0  MISS:          0
cpu0_L1D TOTAL     ACCESS:    8749866  HIT:    8474915  MISS:     274951
cpu0_L1D LOAD      ACCESS:    5730368  HIT:    5486885  MISS:     243483
cpu0_L1D RFO       ACCESS:    2982243  HIT:    2951091  MISS:      31152
cpu0_L1D PREFETCH  ACCESS:          0  HIT:          0  MISS:          0
cpu0_L1D WRITEBACK ACCESS:          0  HIT:          0  MISS:          0
cpu0_L2C TOTAL     ACCESS:     453114  HIT:     313578  MISS:     139536
cpu0_L2C LOAD      ACCESS:     243541  HIT:     114976  MISS:     128565
cpu0_L2C RFO       ACCESS:      31141  HIT:      20593  MISS:      10548
cpu0_L2C PREFETCH  ACCESS:          0  HIT:          0  MISS:          0
cpu0_L2C WRITEBACK ACCESS:     178116  HIT:     177719  MISS:        397
LLC TOTAL     ACCESS:     238096  HIT:     190520  MISS:      47576
LLC LOAD      ACCESS:     128565  HIT:      87376  MISS:      41189
LLC RFO       ACCESS:      10548  HIT:       4395  MISS:       6153
LLC PREFETCH  ACCESS:          0  HIT:          0  MISS:          0
LLC WRITEBACK ACCESS:      98957  HIT:      98726  MISS:        231
Heartbeat CPU 0 instructions: 92000000 cycles: 52720478 heartbeat IPC: 1.13077 cumulative IPC: 1.04492 (Simulation time: 0 hr 40 min 12 sec) 

Region of Interest Statistics
cpu0_DTLB TOTAL     ACCESS:    8146526  HIT:    7891429  MISS:     255097
cpu0_DTLB LOAD      ACCESS:    6400033  HIT:    6184892  MISS:     215141
cpu0_DTLB RFO       ACCESS:    1746493  HIT:    1706537  MISS:      39956
cpu0_DTLB PREFETCH  ACCESS:          0  HIT:          0  MISS:          0
cpu0_DTLB WRITEBACK ACCESS:          0  HIT:          0  MISS:          0
cpu0_ITLB TOTAL     ACCESS:    4158439  HIT:    4158439  MISS:          0
cpu0_ITLB LOAD      ACCESS:    4158439  HIT:    4158439  MISS:          0
cpu0_ITLB RFO       ACCESS:          0  HIT:          0  MISS:          0
cpu0_ITLB PREFETCH  ACCESS:          0  HIT:          0  MISS:          0
cpu0_ITLB WRITEBACK ACCESS:          0  HIT:          0  MISS:          0
cpu0_L1I TOTAL     ACCESS:     583901  HIT:     583842  MISS:         59
cpu0_L1I LOAD      ACCESS:     583901  HIT:     583842  MISS:         59
cpu0_L1I RFO       ACCESS:          0  HIT:          0  MISS:          0
cpu0_L1I PREFETCH  ACCESS:          0  HIT:          0  MISS:          0
cpu0_L1I WRITEBACK ACCESS:          0  HIT:          0  MISS:          0
cpu0_STLB TOTAL     ACCESS:     255097  HIT:     216259  MISS:      38838
cpu0_STLB LOAD      ACCESS:     215141  HIT:     177612  MISS:      37529
cpu0_STLB RFO       ACCESS:      39956  HIT:      38647  MISS:       1309
cpu0_STLB PREFETCH  ACCESS:          0  HIT:          0  MISS:          0
cpu0_STLB WRITEBACK ACCESS:          0  HIT:          0  MISS:          0
cpu0_L1D TOTAL     ACCESS:    9183142  HIT:    8896935  MISS:     286207
cpu0_L1D LOAD      ACCESS:    6013661  HIT:    5760104  MISS:     253557
cpu0_L1D RFO       ACCESS:    3130734  HIT:    3098410  MISS:      32324
cpu0_L1D PREFETCH  ACCESS:          0  HIT:          0  MISS:          0
cpu0_L1D WRITEBACK ACCESS:          0  HIT:          0  MISS:          0
cpu0_L2C TOTAL     ACCESS:     471668  HIT:     326816  MISS:     144852
cpu0_L2C LOAD      ACCESS:     253615  HIT:     120114  MISS:     133501
cpu0_L2C RFO       ACCESS:      32313  HIT:      21400  MISS:      10913
cpu0_L2C PREFETCH  ACCESS:          0  HIT:          0  MISS:          0
cpu0_L2C WRITEBACK ACCESS:     185414  HIT:     185002  MISS:        412
LLC TOTAL     ACCESS:     247143  HIT:     197801  MISS:      49342
LLC LOAD      ACCESS:     133501  HIT:      90811  MISS:      42690
LLC RFO       ACCESS:      10913  HIT:       4502  MISS:       6411
LLC PREFETCH  ACCESS:          0  HIT:          0  MISS:          0
LLC WRITEBACK ACCESS:     102703  HIT:     102465  MISS:        238
Heartbeat CPU 0 instructions: 94000000 cycles: 54607184 heartbeat IPC: 1.06005 cumulative IPC: 1.0456 (Simulation time: 0 hr 41 min 6 sec) 

Region of Interest Statistics
cpu0_DTLB TOTAL     ACCESS:    8521080  HIT:    8255989  MISS:     265091
cpu0_DTLB LOAD      ACCESS:    6688549  HIT:    6465082  MISS:     223467
cpu0_DTLB RFO       ACCESS:    1832531  HIT:    1790907  MISS:      41624
cpu0_DTLB PREFETCH  ACCESS:          0  HIT:          0  MISS:          0
cpu0_DTLB WRITEBACK ACCESS:          0  HIT:          0  MISS:          0
cpu0_ITLB TOTAL     ACCESS:    4345643  HIT:    4345643  MISS:          0
cpu0_ITLB LOAD      ACCESS:    4345643  HIT:    4345643  MISS:          0
cpu0_ITLB RFO       ACCESS:          0  HIT:          0  MISS:          0
cpu0_ITLB PREFETCH  ACCESS:          0  HIT:          0  MISS:          0
cpu0_ITLB WRITEBACK ACCESS:          0  HIT:          0  MISS:          0
cpu0_L1I TOTAL     ACCESS:     618839  HIT:     618780  MISS:         59
cpu0_L1I LOAD      ACCESS:     618839  HIT:     618780  MISS:         59
cpu0_L1I RFO       ACCESS:          0  HIT:          0  MISS:          0
cpu0_L1I PREFETCH  ACCESS:          0  HIT:          0  MISS:          0
cpu0_L1I WRITEBACK ACCESS:          0  HIT:          0  MISS:          0
cpu0_STLB TOTAL     ACCESS:     265091  HIT:     224156  MISS:      40935
cpu0_STLB LOAD      ACCESS:     223467  HIT:     183925  MISS:      39542
cpu0_STLB RFO       ACCESS:      41624  HIT:      40231  MISS:       1393
cpu0_STLB PREFETCH  ACCESS:          0  HIT:          0  MISS:          0
cpu0_STLB WRITEBACK ACCESS:          0  HIT:          0  MISS:          0
cpu0_L1D TOTAL     ACCESS:    9609932  HIT:    9312240  MISS:     297692
cpu0_L1D LOAD      ACCESS:    6279625  HIT:    6016077  MISS:     263548
cpu0_L1D RFO       ACCESS:    3289470  HIT:    3255663  MISS:      33807
cpu0_L1D PREFETCH  ACCESS:          0  HIT:          0  MISS:          0
cpu0_L1D WRITEBACK ACCESS:          0  HIT:          0  MISS:          0
cpu0_L2C TOTAL     ACCESS:     490576  HIT:     339096  MISS:     151480
cpu0_L2C LOAD      ACCESS:     263606  HIT:     124206  MISS:     139400
cpu0_L2C RFO       ACCESS:      33795  HIT:      22186  MISS:      11609
cpu0_L2C PREFETCH  ACCESS:          0  HIT:          0  MISS:          0
cpu0_L2C WRITEBACK ACCESS:     192838  HIT:     192397  MISS:        441
LLC TOTAL     ACCESS:     258421  HIT:     205596  MISS:      52825
LLC LOAD      ACCESS:     139400  HIT:      93687  MISS:      45713
LLC RFO       ACCESS:      11608  HIT:       4757  MISS:       6851
LLC PREFETCH  ACCESS:          0  HIT:          0  MISS:          0
LLC WRITEBACK ACCESS:     107383  HIT:     107127  MISS:        256
Heartbeat CPU 0 instructions: 96000002 cycles: 56640384 heartbeat IPC: 0.983672 cumulative IPC: 1.04275 (Simulation time: 0 hr 42 min 4 sec) 

Region of Interest Statistics
cpu0_DTLB TOTAL     ACCESS:    8906715  HIT:    8629865  MISS:     276850
cpu0_DTLB LOAD      ACCESS:    6988617  HIT:    6755215  MISS:     233402
cpu0_DTLB RFO       ACCESS:    1918098  HIT:    1874650  MISS:      43448
cpu0_DTLB PREFETCH  ACCESS:          0  HIT:          0  MISS:          0
cpu0_DTLB WRITEBACK ACCESS:          0  HIT:          0  MISS:          0
cpu0_ITLB TOTAL     ACCESS:    4539685  HIT:    4539685  MISS:          0
cpu0_ITLB LOAD      ACCESS:    4539685  HIT:    4539685  MISS:          0
cpu0_ITLB RFO       ACCESS:          0  HIT:          0  MISS:          0
cpu0_ITLB PREFETCH  ACCESS:          0  HIT:          0  MISS:          0
cpu0_ITLB WRITEBACK ACCESS:          0  HIT:          0  MISS:          0
cpu0_L1I TOTAL     ACCESS:     645066  HIT:     644998  MISS:         68
cpu0_L1I LOAD      ACCESS:     645066  HIT:     644998  MISS:         68
cpu0_L1I RFO       ACCESS:          0  HIT:          0  MISS:          0
cpu0_L1I PREFETCH  ACCESS:          0  HIT:          0  MISS:          0
cpu0_L1I WRITEBACK ACCESS:          0  HIT:          0  MISS:          0
cpu0_STLB TOTAL     ACCESS:     276850  HIT:     233752  MISS:      43098
cpu0_STLB LOAD      ACCESS:     233402  HIT:     191724  MISS:      41678
cpu0_STLB RFO       ACCESS:      43448  HIT:      42028  MISS:       1420
cpu0_STLB PREFETCH  ACCESS:          0  HIT:          0  MISS:          0
cpu0_STLB WRITEBACK ACCESS:          0  HIT:          0  MISS:          0
cpu0_L1D TOTAL     ACCESS:   10070867  HIT:    9760198  MISS:     310669
cpu0_L1D LOAD      ACCESS:    6578931  HIT:    6303787  MISS:     275144
cpu0_L1D RFO       ACCESS:    3448945  HIT:    3413770  MISS:      35175
cpu0_L1D PREFETCH  ACCESS:          0  HIT:          0  MISS:          0
cpu0_L1D WRITEBACK ACCESS:          0  HIT:          0  MISS:          0
cpu0_L2C TOTAL     ACCESS:     511802  HIT:     353058  MISS:     158744
cpu0_L2C LOAD      ACCESS:     275211  HIT:     129091  MISS:     146120
cpu0_L2C RFO       ACCESS:      35163  HIT:      23044  MISS:      12119
cpu0_L2C PREFETCH  ACCESS:          0  HIT:          0  MISS:          0
cpu0_L2C WRITEBACK ACCESS:     201078  HIT:     200605  MISS:        473
LLC TOTAL     ACCESS:     270767  HIT:     215032  MISS:      55735
LLC LOAD      ACCESS:     146120  HIT:      97910  MISS:      48210
LLC RFO       ACCESS:      12118  HIT:       4874  MISS:       7244
LLC PREFETCH  ACCESS:          0  HIT:          0  MISS:          0
LLC WRITEBACK ACCESS:     112497  HIT:     112221  MISS:        276
Heartbeat CPU 0 instructions: 98000004 cycles: 58428244 heartbeat IPC: 1.11866 cumulative IPC: 1.0457 (Simulation time: 0 hr 42 min 55 sec) 

Region of Interest Statistics
cpu0_DTLB TOTAL     ACCESS:    9275754  HIT:    8987499  MISS:     288255
cpu0_DTLB LOAD      ACCESS:    7276420  HIT:    7033951  MISS:     242469
cpu0_DTLB RFO       ACCESS:    1999334  HIT:    1953548  MISS:      45786
cpu0_DTLB PREFETCH  ACCESS:          0  HIT:          0  MISS:          0
cpu0_DTLB WRITEBACK ACCESS:          0  HIT:          0  MISS:          0
cpu0_ITLB TOTAL     ACCESS:    4730751  HIT:    4730751  MISS:          0
cpu0_ITLB LOAD      ACCESS:    4730751  HIT:    4730751  MISS:          0
cpu0_ITLB RFO       ACCESS:          0  HIT:          0  MISS:          0
cpu0_ITLB PREFETCH  ACCESS:          0  HIT:          0  MISS:          0
cpu0_ITLB WRITEBACK ACCESS:          0  HIT:          0  MISS:          0
cpu0_L1I TOTAL     ACCESS:     673954  HIT:     673886  MISS:         68
cpu0_L1I LOAD      ACCESS:     673954  HIT:     673886  MISS:         68
cpu0_L1I RFO       ACCESS:          0  HIT:          0  MISS:          0
cpu0_L1I PREFETCH  ACCESS:          0  HIT:          0  MISS:          0
cpu0_L1I WRITEBACK ACCESS:          0  HIT:          0  MISS:          0
cpu0_STLB TOTAL     ACCESS:     288255  HIT:     243435  MISS:      44820
cpu0_STLB LOAD      ACCESS:     242469  HIT:     199084  MISS:      43385
cpu0_STLB RFO       ACCESS:      45786  HIT:      44351  MISS:       1435
cpu0_STLB PREFETCH  ACCESS:          0  HIT:          0  MISS:          0
cpu0_STLB WRITEBACK ACCESS:          0  HIT:          0  MISS:          0
cpu0_L1D TOTAL     ACCESS:   10502729  HIT:   10180005  MISS:     322724
cpu0_L1D LOAD      ACCESS:    6858470  HIT:    6572860  MISS:     285610
cpu0_L1D RFO       ACCESS:    3599553  HIT:    3562800  MISS:      36753
cpu0_L1D PREFETCH  ACCESS:          0  HIT:          0  MISS:          0
cpu0_L1D WRITEBACK ACCESS:          0  HIT:          0  MISS:          0
cpu0_L2C TOTAL     ACCESS:     531769  HIT:     367347  MISS:     164422
cpu0_L2C LOAD      ACCESS:     285677  HIT:     134258  MISS:     151419
cpu0_L2C RFO       ACCESS:      36741  HIT:      24253  MISS:      12488
cpu0_L2C PREFETCH  ACCESS:          0  HIT:          0  MISS:          0
cpu0_L2C WRITEBACK ACCESS:     208990  HIT:     208507  MISS:        483
LLC TOTAL     ACCESS:     280226  HIT:     222175  MISS:      58051
LLC LOAD      ACCESS:     151419  HIT:     101223  MISS:      50196
LLC RFO       ACCESS:      12487  HIT:       4921  MISS:       7566
LLC PREFETCH  ACCESS:          0  HIT:          0  MISS:          0
LLC WRITEBACK ACCESS:     116288  HIT:     116004  MISS:        284
Heartbeat CPU 0 instructions: 100000003 cycles: 60264648 heartbeat IPC: 1.08908 cumulative IPC: 1.04737 (Simulation time: 0 hr 43 min 44 sec) 

Region of Interest Statistics
cpu0_DTLB TOTAL     ACCESS:    9651508  HIT:    9351460  MISS:     300048
cpu0_DTLB LOAD      ACCESS:    7569101  HIT:    7316989  MISS:     252112
cpu0_DTLB RFO       ACCESS:    2082407  HIT:    2034471  MISS:      47936
cpu0_DTLB PREFETCH  ACCESS:          0  HIT:          0  MISS:          0
cpu0_DTLB WRITEBACK ACCESS:          0  HIT:          0  MISS:          0
cpu0_ITLB TOTAL     ACCESS:    4925235  HIT:    4925235  MISS:          0
cpu0_ITLB LOAD      ACCESS:    4925235  HIT:    4925235  MISS:          0
cpu0_ITLB RFO       ACCESS:          0  HIT:          0  MISS:          0
cpu0_ITLB PREFETCH  ACCESS:          0  HIT:          0  MISS:          0
cpu0_ITLB WRITEBACK ACCESS:          0  HIT:          0  MISS:          0
cpu0_L1I TOTAL     ACCESS:     703533  HIT:     703465  MISS:         68
cpu0_L1I LOAD      ACCESS:     703533  HIT:     703465  MISS:         68
cpu0_L1I RFO       ACCESS:          0  HIT:          0  MISS:          0
cpu0_L1I PREFETCH  ACCESS:          0  HIT:          0  MISS:          0
cpu0_L1I WRITEBACK ACCESS:          0  HIT:          0  MISS:          0
cpu0_STLB TOTAL     ACCESS:     300048  HIT:     253430  MISS:      46618
cpu0_STLB LOAD      ACCESS:     252112  HIT:     207009  MISS:      45103
cpu0_STLB RFO       ACCESS:      47936  HIT:      46421  MISS:       1515
cpu0_STLB PREFETCH  ACCESS:          0  HIT:          0  MISS:          0
cpu0_STLB WRITEBACK ACCESS:          0  HIT:          0  MISS:          0
cpu0_L1D TOTAL     ACCESS:   10950114  HIT:   10615007  MISS:     335107
cpu0_L1D LOAD      ACCESS:    7148516  HIT:    6851940  MISS:     296576
cpu0_L1D RFO       ACCESS:    3755099  HIT:    3716944  MISS:      38155
cpu0_L1D PREFETCH  ACCESS:          0  HIT:          0  MISS:          0
cpu0_L1D WRITEBACK ACCESS:          0  HIT:          0  MISS:          0
cpu0_L2C TOTAL     ACCESS:     552216  HIT:     382146  MISS:     170070
cpu0_L2C LOAD      ACCESS:     296643  HIT:     139950  MISS:     156693
cpu0_L2C RFO       ACCESS:      38143  HIT:      25294  MISS:      12849
cpu0_L2C PREFETCH  ACCESS:          0  HIT:          0  MISS:          0
cpu0_L2C WRITEBACK ACCESS:     217054  HIT:     216559  MISS:        495
LLC TOTAL     ACCESS:     289693  HIT:     229499  MISS:      60194
LLC LOAD      ACCESS:     156693  HIT:     104635  MISS:      52058
LLC RFO       ACCESS:      12848  HIT:       5008  MISS:       7840
LLC PREFETCH  ACCESS:          0  HIT:          0  MISS:          0
LLC WRITEBACK ACCESS:     120119  HIT:     119828  MISS:        291
Heartbeat CPU 0 instructions: 102000001 cycles: 62134939 heartbeat IPC: 1.06935 cumulative IPC: 1.0482 (Simulation time: 0 hr 44 min 31 sec) 

Region of Interest Statistics
cpu0_DTLB TOTAL     ACCESS:   10034637  HIT:    9723235  MISS:     311402
cpu0_DTLB LOAD      ACCESS:    7865923  HIT:    7604278  MISS:     261645
cpu0_DTLB RFO       ACCESS:    2168714  HIT:    2118957  MISS:      49757
cpu0_DTLB PREFETCH  ACCESS:          0  HIT:          0  MISS:          0
cpu0_DTLB WRITEBACK ACCESS:          0  HIT:          0  MISS:          0
cpu0_ITLB TOTAL     ACCESS:    5121366  HIT:    5121366  MISS:          0
cpu0_ITLB LOAD      ACCESS:    5121366  HIT:    5121366  MISS:          0
cpu0_ITLB RFO       ACCESS:          0  HIT:          0  MISS:          0
cpu0_ITLB PREFETCH  ACCESS:          0  HIT:          0  MISS:          0
cpu0_ITLB WRITEBACK ACCESS:          0  HIT:          0  MISS:          0
cpu0_L1I TOTAL     ACCESS:     733396  HIT:     733328  MISS:         68
cpu0_L1I LOAD      ACCESS:     733396  HIT:     733328  MISS:         68
cpu0_L1I RFO       ACCESS:          0  HIT:          0  MISS:          0
cpu0_L1I PREFETCH  ACCESS:          0  HIT:          0  MISS:          0
cpu0_L1I WRITEBACK ACCESS:          0  HIT:          0  MISS:          0
cpu0_STLB TOTAL     ACCESS:     311402  HIT:     262769  MISS:      48633
cpu0_STLB LOAD      ACCESS:     261645  HIT:     214624  MISS:      47021
cpu0_STLB RFO       ACCESS:      49757  HIT:      48145  MISS:       1612
cpu0_STLB PREFETCH  ACCESS:          0  HIT:          0  MISS:          0
cpu0_STLB WRITEBACK ACCESS:          0  HIT:          0  MISS:          0
cpu0_L1D TOTAL     ACCESS:   11407314  HIT:   11059497  MISS:     347817
cpu0_L1D LOAD      ACCESS:    7441329  HIT:    7133486  MISS:     307843
cpu0_L1D RFO       ACCESS:    3917477  HIT:    3877892  MISS:      39585
cpu0_L1D PREFETCH  ACCESS:          0  HIT:          0  MISS:          0
cpu0_L1D WRITEBACK ACCESS:          0  HIT:          0  MISS:          0
cpu0_L2C TOTAL     ACCESS:     573140  HIT:     397157  MISS:     175983
cpu0_L2C LOAD      ACCESS:     307910  HIT:     145677  MISS:     162233
cpu0_L2C RFO       ACCESS:      39573  HIT:      26365  MISS:      13208
cpu0_L2C PREFETCH  ACCESS:          0  HIT:          0  MISS:          0
cpu0_L2C WRITEBACK ACCESS:     225268  HIT:     224759  MISS:        509
LLC TOTAL     ACCESS:     299718  HIT:     237330  MISS:      62388
LLC LOAD      ACCESS:     162233  HIT:     108233  MISS:      54000
LLC RFO       ACCESS:      13207  HIT:       5122  MISS:       8085
LLC PREFETCH  ACCESS:          0  HIT:          0  MISS:          0
LLC WRITEBACK ACCESS:     124245  HIT:     123947  MISS:        298
Heartbeat CPU 0 instructions: 104000001 cycles: 64118871 heartbeat IPC: 1.0081 cumulative IPC: 1.04666 (Simulation time: 0 hr 45 min 27 sec) 

Region of Interest Statistics
cpu0_DTLB TOTAL     ACCESS:   10425291  HIT:   10102655  MISS:     322636
cpu0_DTLB LOAD      ACCESS:    8171851  HIT:    7900560  MISS:     271291
cpu0_DTLB RFO       ACCESS:    2253440  HIT:    2202095  MISS:      51345
cpu0_DTLB PREFETCH  ACCESS:          0  HIT:          0  MISS:          0
cpu0_DTLB WRITEBACK ACCESS:          0  HIT:          0  MISS:          0
cpu0_ITLB TOTAL     ACCESS:    5317866  HIT:    5317866  MISS:          0
cpu0_ITLB LOAD      ACCESS:    5317866  HIT:    5317866  MISS:          0
cpu0_ITLB RFO       ACCESS:          0  HIT:          0  MISS:          0
cpu0_ITLB PREFETCH  ACCESS:          0  HIT:          0  MISS:          0
cpu0_ITLB WRITEBACK ACCESS:          0  HIT:          0  MISS:          0
cpu0_L1I TOTAL     ACCESS:     759221  HIT:     759144  MISS:         77
cpu0_L1I LOAD      ACCESS:     759221  HIT:     759144  MISS:         77
cpu0_L1I RFO       ACCESS:          0  HIT:          0  MISS:          0
cpu0_L1I PREFETCH  ACCESS:          0  HIT:          0  MISS:          0
cpu0_L1I WRITEBACK ACCESS:          0  HIT:          0  MISS:          0
cpu0_STLB TOTAL     ACCESS:     322636  HIT:     271884  MISS:      50752
cpu0_STLB LOAD      ACCESS:     271291  HIT:     222186  MISS:      49105
cpu0_STLB RFO       ACCESS:      51345  HIT:      49698  MISS:       1647
cpu0_STLB PREFETCH  ACCESS:          0  HIT:          0  MISS:          0
cpu0_STLB WRITEBACK ACCESS:          0  HIT:          0  MISS:          0
cpu0_L1D TOTAL     ACCESS:   11869808  HIT:   11508461  MISS:     361347
cpu0_L1D LOAD      ACCESS:    7744609  HIT:    7424753  MISS:     319856
cpu0_L1D RFO       ACCESS:    4074578  HIT:    4033489  MISS:      41089
cpu0_L1D PREFETCH  ACCESS:          0  HIT:          0  MISS:          0
cpu0_L1D WRITEBACK ACCESS:          0  HIT:          0  MISS:          0
cpu0_L2C TOTAL     ACCESS:     595298  HIT:     412455  MISS:     182843
cpu0_L2C LOAD      ACCESS:     319932  HIT:     151358  MISS:     168574
cpu0_L2C RFO       ACCESS:      41077  HIT:      27369  MISS:      13708
cpu0_L2C PREFETCH  ACCESS:          0  HIT:          0  MISS:          0
cpu0_L2C WRITEBACK ACCESS:     233887  HIT:     233361  MISS:        526
LLC TOTAL     ACCESS:     311340  HIT:     246612  MISS:      64728
LLC LOAD      ACCESS:     168574  HIT:     112602  MISS:      55972
LLC RFO       ACCESS:      13707  HIT:       5262  MISS:       8445
LLC PREFETCH  ACCESS:          0  HIT:          0  MISS:          0
LLC WRITEBACK ACCESS:     129024  HIT:     128718  MISS:        306
Heartbeat CPU 0 instructions: 106000003 cycles: 65919488 heartbeat IPC: 1.11073 cumulative IPC: 1.04882 (Simulation time: 0 hr 46 min 21 sec) 

Region of Interest Statistics
cpu0_DTLB TOTAL     ACCESS:   10798640  HIT:   10464196  MISS:     334444
cpu0_DTLB LOAD      ACCESS:    8468119  HIT:    8187501  MISS:     280618
cpu0_DTLB RFO       ACCESS:    2330521  HIT:    2276695  MISS:      53826
cpu0_DTLB PREFETCH  ACCESS:          0  HIT:          0  MISS:          0
cpu0_DTLB WRITEBACK ACCESS:          0  HIT:          0  MISS:          0
cpu0_ITLB TOTAL     ACCESS:    5500344  HIT:    5500344  MISS:          0
cpu0_ITLB LOAD      ACCESS:    5500344  HIT:    5500344  MISS:          0
cpu0_ITLB RFO       ACCESS:          0  HIT:          0  MISS:          0
cpu0_ITLB PREFETCH  ACCESS:          0  HIT:          0  MISS:          0
cpu0_ITLB WRITEBACK ACCESS:          0  HIT:          0  MISS:          0
cpu0_L1I TOTAL     ACCESS:     791065  HIT:     790986  MISS:         79
cpu0_L1I LOAD      ACCESS:     791065  HIT:     790986  MISS:         79
cpu0_L1I RFO       ACCESS:          0  HIT:          0  MISS:          0
cpu0_L1I PREFETCH  ACCESS:          0  HIT:          0  MISS:          0
cpu0_L1I WRITEBACK ACCESS:          0  HIT:          0  MISS:          0
cpu0_STLB TOTAL     ACCESS:     334444  HIT:     281602  MISS:      52842
cpu0_STLB LOAD      ACCESS:     280618  HIT:     229619  MISS:      50999
cpu0_STLB RFO       ACCESS:      53826  HIT:      51983  MISS:       1843
cpu0_STLB PREFETCH  ACCESS:          0  HIT:          0  MISS:          0
cpu0_STLB WRITEBACK ACCESS:          0  HIT:          0  MISS:          0
cpu0_L1D TOTAL     ACCESS:   12251526  HIT:   11876362  MISS:     375164
cpu0_L1D LOAD      ACCESS:    7992478  HIT:    7661034  MISS:     331444
cpu0_L1D RFO       ACCESS:    4206343  HIT:    4163044  MISS:      43299
cpu0_L1D PREFETCH  ACCESS:          0  HIT:          0  MISS:          0
cpu0_L1D WRITEBACK ACCESS:          0  HIT:          0  MISS:          0
cpu0_L2C TOTAL     ACCESS:     618377  HIT:     427650  MISS:     190727
cpu0_L2C LOAD      ACCESS:     331516  HIT:     156075  MISS:     175441
cpu0_L2C RFO       ACCESS:      43285  HIT:      28586  MISS:      14699
cpu0_L2C PREFETCH  ACCESS:          0  HIT:          0  MISS:          0
cpu0_L2C WRITEBACK ACCESS:     243155  HIT:     242606  MISS:        549
LLC TOTAL     ACCESS:     324641  HIT:     256760  MISS:      67881
[...]
cpu0_DTLB LOAD      ACCESS:  223152738  HIT:  216867187  MISS:    6285551
cpu0_DTLB RFO       ACCESS:   62049911  HIT:   60693753  MISS:    1356158
cpu0_DTLB PREFETCH  ACCESS:          0  HIT:          0  MISS:          0
cpu0_DTLB WRITEBACK ACCESS:          0  HIT:          0  MISS:          0
cpu0_ITLB TOTAL     ACCESS:  144409313  HIT:  144409309  MISS:          4
cpu0_ITLB LOAD      ACCESS:  144409313  HIT:  144409309  MISS:          4
cpu0_ITLB RFO       ACCESS:          0  HIT:          0  MISS:          0
cpu0_ITLB PREFETCH  ACCESS:          0  HIT:          0  MISS:          0
cpu0_ITLB WRITEBACK ACCESS:          0  HIT:          0  MISS:          0
cpu0_L1I TOTAL     ACCESS:   24160178  HIT:   24158341  MISS:       1837
cpu0_L1I LOAD      ACCESS:   24160178  HIT:   24158341  MISS:       1837
cpu0_L1I RFO       ACCESS:          0  HIT:          0  MISS:          0
cpu0_L1I PREFETCH  ACCESS:          0  HIT:          0  MISS:          0
cpu0_L1I WRITEBACK ACCESS:          0  HIT:          0  MISS:          0
cpu0_STLB TOTAL     ACCESS:    7641713  HIT:    6468417  MISS:    1173296
cpu0_STLB LOAD      ACCESS:    6285555  HIT:    5150988  MISS:    1134567
cpu0_STLB RFO       ACCESS:    1356158  HIT:    1317429  MISS:      38729
cpu0_STLB PREFETCH  ACCESS:          0  HIT:          0  MISS:          0
cpu0_STLB WRITEBACK ACCESS:          0  HIT:          0  MISS:          0
cpu0_L1D TOTAL     ACCESS:  324270133  HIT:  315790509  MISS:    8479624
cpu0_L1D LOAD      ACCESS:  210956454  HIT:  203553156  MISS:    7403298
cpu0_L1D RFO       ACCESS:  112144066  HIT:  111076121  MISS:    1067945
cpu0_L1D PREFETCH  ACCESS:          0  HIT:          0  MISS:          0
cpu0_L1D WRITEBACK ACCESS:          0  HIT:          0  MISS:          0
cpu0_L2C TOTAL     ACCESS:   14064296  HIT:    9889832  MISS:    4174464
cpu0_L2C LOAD      ACCESS:    7405069  HIT:    3676685  MISS:    3728384
cpu0_L2C RFO       ACCESS:    1067593  HIT:     633165  MISS:     434428
cpu0_L2C PREFETCH  ACCESS:          0  HIT:          0  MISS:          0
cpu0_L2C WRITEBACK ACCESS:    5583253  HIT:    5572390  MISS:      10863
LLC TOTAL     ACCESS:    7070601  HIT:    5308569  MISS:    1762032
LLC LOAD      ACCESS:    3728381  HIT:    2278525  MISS:    1449856
LLC RFO       ACCESS:     434420  HIT:     128883  MISS:     305537
LLC PREFETCH  ACCESS:          0  HIT:          0  MISS:          0
LLC WRITEBACK ACCESS:    2907011  HIT:    2900466  MISS:       6545
Heartbeat CPU 0 instructions: 1550000004 cycles: 1368487040 heartbeat IPC: 1.02405 cumulative IPC: 1.10623 (Simulation time: 11 hr 18 min 54 sec) 

Region of Interest Statistics
cpu0_DTLB TOTAL     ACCESS:  285583844  HIT:  277931887  MISS:    7651957
cpu0_DTLB LOAD      ACCESS:  223447924  HIT:  217153418  MISS:    6294506
cpu0_DTLB RFO       ACCESS:   62135920  HIT:   60778469  MISS:    1357451
cpu0_DTLB PREFETCH  ACCESS:          0  HIT:          0  MISS:          0
cpu0_DTLB WRITEBACK ACCESS:          0  HIT:          0  MISS:          0
cpu0_ITLB TOTAL     ACCESS:  144609553  HIT:  144609549  MISS:          4
cpu0_ITLB LOAD      ACCESS:  144609553  HIT:  144609549  MISS:          4
cpu0_ITLB RFO       ACCESS:          0  HIT:          0  MISS:          0
cpu0_ITLB PREFETCH  ACCESS:          0  HIT:          0  MISS:          0
cpu0_ITLB WRITEBACK ACCESS:          0  HIT:          0  MISS:          0
cpu0_L1I TOTAL     ACCESS:   24190135  HIT:   24188298  MISS:       1837
cpu0_L1I LOAD      ACCESS:   24190135  HIT:   24188298  MISS:       1837
cpu0_L1I RFO       ACCESS:          0  HIT:          0  MISS:          0
cpu0_L1I PREFETCH  ACCESS:          0  HIT:          0  MISS:          0
cpu0_L1I WRITEBACK ACCESS:          0  HIT:          0  MISS:          0
cpu0_STLB TOTAL     ACCESS:    7651961  HIT:    6476206  MISS:    1175755
cpu0_STLB LOAD      ACCESS:    6294510  HIT:    5157517  MISS:    1136993
cpu0_STLB RFO       ACCESS:    1357451  HIT:    1318689  MISS:      38762
cpu0_STLB PREFETCH  ACCESS:          0  HIT:          0  MISS:          0
cpu0_STLB WRITEBACK ACCESS:          0  HIT:          0  MISS:          0
cpu0_L1D TOTAL     ACCESS:  324729007  HIT:  316237779  MISS:    8491228
cpu0_L1D LOAD      ACCESS:  211249598  HIT:  203835674  MISS:    7413924
cpu0_L1D RFO       ACCESS:  112307344  HIT:  111238422  MISS:    1068922
cpu0_L1D PREFETCH  ACCESS:          0  HIT:          0  MISS:          0
cpu0_L1D WRITEBACK ACCESS:          0  HIT:          0  MISS:          0
cpu0_L2C TOTAL     ACCESS:   14083220  HIT:    9902264  MISS:    4180956
cpu0_L2C LOAD      ACCESS:    7415696  HIT:    3681167  MISS:    3734529
cpu0_L2C RFO       ACCESS:    1068570  HIT:     633810  MISS:     434760
cpu0_L2C PREFETCH  ACCESS:          0  HIT:          0  MISS:          0
cpu0_L2C WRITEBACK ACCESS:    5590572  HIT:    5579694  MISS:      10878
LLC TOTAL     ACCESS:    7081349  HIT:    5316190  MISS:    1765159
LLC LOAD      ACCESS:    3734526  HIT:    2281758  MISS:    1452768
LLC RFO       ACCESS:     434752  HIT:     129012  MISS:     305740
LLC PREFETCH  ACCESS:          0  HIT:          0  MISS:          0
LLC WRITEBACK ACCESS:    2911282  HIT:    2904725  MISS:       6557
Finished CPU 0 instructions: 1500000000 cycles: 1355960959 cumulative IPC: 1.10623 (Simulation time: 11 hr 18 min 54 sec) 

ChampSim completed all CPUs

Region of Interest Statistics

CPU 0 cumulative IPC: 1.10623 instructions: 1500000000 cycles: 1355960959
cpu0_DTLB TOTAL     ACCESS:  285583844  HIT:  277931887  MISS:    7651957
cpu0_DTLB LOAD      ACCESS:  223447924  HIT:  217153418  MISS:    6294506
cpu0_DTLB RFO       ACCESS:   62135920  HIT:   60778469  MISS:    1357451
cpu0_DTLB PREFETCH  ACCESS:          0  HIT:          0  MISS:          0
cpu0_DTLB WRITEBACK ACCESS:          0  HIT:          0  MISS:          0
cpu0_DTLB TRANSLATION ACCESS:          0  HIT:          0  MISS:          0
cpu0_DTLB PREFETCH  REQUESTED:          0  ISSUED:          0  USEFUL:          0  USELESS:          0
cpu0_DTLB AVERAGE MISS LATENCY: 10.7171 cycles
cpu0_ITLB TOTAL     ACCESS:  144609553  HIT:  144609549  MISS:          4
cpu0_ITLB LOAD      ACCESS:  144609553  HIT:  144609549  MISS:          4
cpu0_ITLB RFO       ACCESS:          0  HIT:          0  MISS:          0
cpu0_ITLB PREFETCH  ACCESS:          0  HIT:          0  MISS:          0
cpu0_ITLB WRITEBACK ACCESS:          0  HIT:          0  MISS:          0
cpu0_ITLB TRANSLATION ACCESS:          0  HIT:          0  MISS:          0
cpu0_ITLB PREFETCH  REQUESTED:          0  ISSUED:          0  USEFUL:          0  USELESS:          0
cpu0_ITLB AVERAGE MISS LATENCY: 219.75 cycles
cpu0_L1I TOTAL     ACCESS:   24190135  HIT:   24188298  MISS:       1837
cpu0_L1I LOAD      ACCESS:   24190135  HIT:   24188298  MISS:       1837
cpu0_L1I RFO       ACCESS:          0  HIT:          0  MISS:          0
cpu0_L1I PREFETCH  ACCESS:          0  HIT:          0  MISS:          0
cpu0_L1I WRITEBACK ACCESS:          0  HIT:          0  MISS:          0
cpu0_L1I TRANSLATION ACCESS:          0  HIT:          0  MISS:          0
cpu0_L1I PREFETCH  REQUESTED:          0  ISSUED:          0  USEFUL:          0  USELESS:          0
cpu0_L1I AVERAGE MISS LATENCY: 54.3489 cycles
cpu0_STLB TOTAL     ACCESS:    7651961  HIT:    6476206  MISS:    1175755
cpu0_STLB LOAD      ACCESS:    6294510  HIT:    5157517  MISS:    1136993
cpu0_STLB RFO       ACCESS:    1357451  HIT:    1318689  MISS:      38762
cpu0_STLB PREFETCH  ACCESS:          0  HIT:          0  MISS:          0
cpu0_STLB WRITEBACK ACCESS:          0  HIT:          0  MISS:          0
cpu0_STLB TRANSLATION ACCESS:          0  HIT:          0  MISS:          0
cpu0_STLB PREFETCH  REQUESTED:          0  ISSUED:          0  USEFUL:          0  USELESS:          0
cpu0_STLB AVERAGE MISS LATENCY: 11.132 cycles
cpu0_L1D TOTAL     ACCESS:  324729007  HIT:  316237779  MISS:    8491228
cpu0_L1D LOAD      ACCESS:  211249598  HIT:  203835674  MISS:    7413924
cpu0_L1D RFO       ACCESS:  112307344  HIT:  111238422  MISS:    1068922
cpu0_L1D PREFETCH  ACCESS:          0  HIT:          0  MISS:          0
cpu0_L1D WRITEBACK ACCESS:          0  HIT:          0  MISS:          0
cpu0_L1D TRANSLATION ACCESS:    1172065  HIT:    1163683  MISS:       8382
cpu0_L1D PREFETCH  REQUESTED:          0  ISSUED:          0  USEFUL:          0  USELESS:          0
cpu0_L1D AVERAGE MISS LATENCY: 67.7238 cycles
cpu0_L2C TOTAL     ACCESS:   14083220  HIT:    9902264  MISS:    4180956
cpu0_L2C LOAD      ACCESS:    7415696  HIT:    3681167  MISS:    3734529
cpu0_L2C RFO       ACCESS:    1068570  HIT:     633810  MISS:     434760
cpu0_L2C PREFETCH  ACCESS:          0  HIT:          0  MISS:          0
cpu0_L2C WRITEBACK ACCESS:    5590572  HIT:    5579694  MISS:      10878
cpu0_L2C TRANSLATION ACCESS:       8382  HIT:       7593  MISS:        789
cpu0_L2C PREFETCH  REQUESTED:          0  ISSUED:          0  USEFUL:          0  USELESS:          0
cpu0_L2C AVERAGE MISS LATENCY: 115.167 cycles
LLC TOTAL     ACCESS:    7081349  HIT:    5316190  MISS:    1765159
LLC LOAD      ACCESS:    3734526  HIT:    2281758  MISS:    1452768
LLC RFO       ACCESS:     434752  HIT:     129012  MISS:     305740
LLC PREFETCH  ACCESS:          0  HIT:          0  MISS:          0
LLC WRITEBACK ACCESS:    2911282  HIT:    2904725  MISS:       6557
LLC TRANSLATION ACCESS:        789  HIT:        695  MISS:         94
LLC PREFETCH  REQUESTED:          0  ISSUED:          0  USEFUL:          0  USELESS:          0
LLC AVERAGE MISS LATENCY: 223.172 cycles
~~~~~~~~~~Reuse Distance Profiler output~~~~~~~~~~
0	0	0
1	0	0
2	0	0
3	0	0
4	0	0
5	0	0
6	0	0
7	0	0
8	0	0
9	0	0
10	0	0
11	0	0
12	0	0
13	0	0
14	0	0
15	0	0
16	0	0
17	0	0
18	0	0
19	0	0
20	0	0
21	0	0
22	0	0
23	0	0
24	0	0
25	0	0
26	0	0
27	0	0
28	0	0
29	0	0
30	0	0
31	0	0
32	0	0
33	0	0
34	0	0
35	0	0
36	0	0
37	0	0
38	0	0
39	0	0
40	0	0
41	0	0
42	0	0
43	0	0
44	0	0
45	0	0
46	0	0
47	0	0
48	0	0
49	0	0
50	0	0
51	0	0
52	0	0
53	0	0
54	0	0
55	0	0
56	0	0
57	0	0
58	0	0
59	0	0
60	0	0
61	0	0
62	0	0
63	0	0
64	0	0
66	0	0
68	0	0
70	0	0
72	0	0
74	0	0
76	0	0
78	0	0
80	0	0
82	0	0
84	0	0
86	0	0
88	0	0
90	0	0
92	0	0
94	0	0
96	0	0
98	0	0
100	0	0
102	0	0
104	0	0
106	0	0
108	0	0
110	0	0
112	0	0
114	0	0
116	0	0
118	0	0
120	0	0
122	0	0
124	0	0
126	0	0
128	0	0
132	0	0
136	0	0
140	0	0
144	0	0
148	0	0
152	0	0
156	0	0
160	0	0
164	0	0
168	0	0
172	0	0
176	0	0
180	0	0
184	0	0
188	0	0
192	0	0
196	0	0
200	0	0
204	0	0
208	0	0
212	0	0
216	0	0
220	0	0
224	0	0
228	0	0
232	0	0
236	0	0
240	0	0
244	0	0
248	0	0
252	0	0
256	0	0
264	0	0
272	0	0
280	0	0
288	0	0
296	0	0
304	0	0
312	0	0
320	0	0
328	0	0
336	0	0
344	0	0
352	0	0
360	0	0
368	0	0
376	0	0
384	0	0
392	0	0
400	0	0
408	0	0
416	0	0
424	0	0
432	0	0
440	0	0
448	0	0
456	0	0
464	0	0
472	0	0
480	0	0
488	0	0
496	0	0
504	0	0
512	0	0
528	0	0
544	0	0
560	0	0
576	0	0
592	0	0
608	0	0
624	0	0
640	0	0
656	0	0
672	0	0
688	0	0
704	0	0
720	0	0
736	0	0
752	0	0
768	0	0
784	0	0
800	0	0
816	0	0
832	0	0
848	0	0
864	0	0
880	0	0
896	0	0
912	0	0
928	0	0
944	0	0
960	0	0
976	0	0
992	0	0
1008	0	0
1024	0	0
1056	0	0
1088	0	0
1120	0	0
1152	0	0
1184	0	0
1216	0	0
1248	0	0
1280	0	0
1312	0	0
1344	0	0
1376	0	0
1408	0	0
1440	0	0
1472	0	0
1504	0	0
1536	0	0
1568	0	0
1600	0	0
1632	0	0
1664	0	0
1696	0	0
1728	0	0
1760	0	0
1792	0	0
1824	0	0
1856	0	0
1888	0	0
1920	0	0
1952	0	0
1984	0	0
2016	0	0
2048	0	0
2112	0	0
2176	0	0
2240	0	0
2304	0	0
2368	0	0
2432	0	0
2496	0	0
2560	0	0
2624	0	0
2688	0	0
2752	0	0
2816	0	0
2880	0	0
2944	0	0
3008	0	0
3072	0	0
3136	0	0
3200	0	0
3264	0	0
3328	0	0
3392	0	0
3456	0	0
3520	0	0
3584	0	0
3648	0	0
3712	0	0
3776	0	0
3840	0	0
3904	0	0
3968	0	0
4032	0	0
4096	0	0
4224	0	0
4352	0	0
4480	0	0
4608	0	0
4736	0	0
4864	0	0
4992	0	0
5120	0	0
5248	0	0
5376	0	0
5504	0	0
5632	0	0
5760	0	0
5888	0	0
6016	0	0
6144	0	0
6272	0	0
6400	0	0
6528	0	0
6656	0	0
6784	0	0
6912	0	0
7040	0	0
7168	0	0
7296	0	0
7424	0	0
7552	0	0
7680	0	0
7808	0	0
7936	0	0
8064	0	0
8192	0	0
8448	0	0
8704	0	0
8960	0	0
9216	0	0
9472	0	0
9728	0	0
9984	0	0
10240	0	0
10496	0	0
10752	0	0
11008	0	0
11264	0	0
11520	0	0
11776	0	0
12032	0	0
12288	0	0
12544	0	0
12800	0	0
13056	0	0
13312	0	0
13568	0	0
13824	0	0
14080	0	0
14336	0	0
14592	0	0
14848	0	0
15104	0	0
15360	0	0
15616	0	0
15872	0	0
16128	0	0
16384	0	0
16896	0	0
17408	0	0
17920	0	0
18432	0	0
18944	0	0
19456	0	0
19968	0	0
20480	0	0
20992	0	0
21504	0	0
22016	0	0
22528	0	0
23040	0	0
23552	0	0
24064	0	0
24576	0	0
25088	0	0
25600	0	0
26112	0	0
26624	0	0
27136	0	0
27648	0	0
28160	0	0
28672	0	0
29184	0	0
29696	0	0
30208	0	0
30720	0	0
31232	0	0
31744	0	0
32256	0	0
32768	0	0
33792	0	0
34816	0	0
35840	0	0
36864	0	0
37888	0	0
38912	0	0
39936	0	0
40960	0	0
41984	0	0
43008	0	0
44032	0	0
45056	0	0
46080	0	0
47104	0	0
48128	0	0
49152	0	0
50176	0	0
51200	0	0
52224	0	0
53248	0	0
54272	0	0
55296	0	0
56320	0	0
57344	0	0
58368	0	0
59392	0	0
60416	0	0
61440	0	0
62464	0	0
63488	0	0
64512	0	0
65536	0	0
67584	0	0
69632	0	0
71680	0	0
73728	0	0
75776	0	0
77824	0	0
79872	0	0
81920	0	0
83968	0	0
86016	0	0
88064	0	0
90112	0	0
92160	0	0
94208	0	0
96256	0	0
98304	0	0
100352	0	0
102400	0	0
104448	0	0
106496	0	0
108544	0	0
110592	0	0
112640	0	0
114688	0	0
116736	0	0
118784	0	0
120832	0	0
122880	0	0
124928	0	0
126976	0	0
129024	0	0
131072	0	0
135168	0	0
139264	0	0
143360	0	0
147456	0	0
151552	0	0
155648	0	0
159744	0	0
163840	0	0
167936	0	0
172032	0	0
176128	0	0
180224	0	0
184320	0	0
188416	0	0
192512	0	0
196608	0	0
200704	0	0
204800	0	0
208896	0	0
212992	0	0
217088	0	0
221184	0	0
225280	0	0
229376	0	0
233472	0	0
237568	0	0
241664	0	0
245760	0	0
249856	0	0
253952	0	0
258048	0	0
262144	0	0
270336	0	0
278528	0	0
286720	0	0
294912	0	0
303104	0	0
311296	0	0
319488	0	0
327680	0	0
335872	0	0
344064	0	0
352256	0	0
360448	0	0
368640	0	0
376832	0	0
385024	0	0
393216	0	0
401408	0	0
409600	0	0
417792	0	0
425984	0	0
434176	0	0
442368	0	0
450560	0	0
458752	0	0
466944	0	0
475136	0	0
483328	0	0
491520	0	0
499712	0	0
507904	0	0
516096	0	0
524288	0	0
540672	0	0
557056	0	0
573440	0	0
589824	0	0
606208	0	0
622592	0	0
638976	0	0
655360	0	0
671744	0	0
688128	0	0
704512	0	0
720896	0	0
737280	0	0
753664	0	0
770048	0	0
786432	0	0
802816	0	0
819200	0	0
835584	0	0
851968	0	0
868352	0	0
884736	0	0
901120	0	0
917504	0	0
933888	0	0
950272	0	0
966656	0	0
983040	0	0
999424	0	0
1015808	0	0
1032192	0	0
1048576	0	0
1081344	0	0
1114112	0	0
1146880	0	0
1179648	0	0
1212416	0	0
1245184	0	0
1277952	0	0
1310720	0	0
1343488	0	0
1376256	0	0
1409024	0	0
1441792	0	0
1474560	0	0
1507328	0	0
1540096	0	0
1572864	0	0
1605632	0	0
1638400	0	0
1671168	0	0
1703936	0	0
1736704	0	0
1769472	0	0
1802240	0	0
1835008	0	0
1867776	0	0
1900544	0	0
1933312	0	0
1966080	0	0
1998848	0	0
2031616	0	0
2064384	0	0
2097152	0	0
2162688	0	0
2228224	0	0
2293760	0	0
2359296	0	0
2424832	0	0
2490368	0	0
2555904	0	0
2621440	0	0
2686976	0	0
2752512	0	0
2818048	0	0
2883584	0	0
2949120	0	0
3014656	0	0
3080192	0	0
3145728	0	0
3211264	0	0
3276800	0	0
3342336	0	0
3407872	0	0
3473408	0	0
3538944	0	0
3604480	0	0
3670016	0	0
3735552	0	0
3801088	0	0
3866624	0	0
3932160	0	0
3997696	0	0
4063232	0	0
4128768	0	0
4194304	0	0
4325376	0	0
4456448	0	0
4587520	0	0
4718592	0	0
4849664	0	0
4980736	0	0
5111808	0	0
5242880	0	0
5373952	0	0
5505024	0	0
5636096	0	0
5767168	0	0
5898240	0	0
6029312	0	0
6160384	0	0
6291456	0	0
6422528	0	0
6553600	0	0
6684672	0	0
6815744	0	0
6946816	0	0
7077888	0	0
7208960	0	0
7340032	0	0
7471104	0	0
7602176	0	0
7733248	0	0
7864320	0	0
7995392	0	0
8126464	0	0
8257536	0	0
8388608	0	0
8650752	0	0
8912896	0	0
9175040	0	0
9437184	0	0
9699328	0	0
9961472	0	0
10223616	0	0
10485760	0	0
10747904	0	0
11010048	0	0
11272192	0	0
11534336	0	0
11796480	0	0
12058624	0	0
12320768	0	0
12582912	0	0
12845056	0	0
13107200	0	0
13369344	0	0
13631488	0	0
13893632	0	0
14155776	0	0
14417920	0	0
14680064	0	0
14942208	0	0
15204352	0	0
15466496	0	0
15728640	0	0
15990784	0	0
16252928	0	0
16515072	0	0
16777216	0	0
17301504	0	0
17825792	0	0
18350080	0	0
18874368	0	0
19398656	0	0
19922944	0	0
20447232	0	0
20971520	0	0
21495808	0	0
22020096	0	0
22544384	0	0
23068672	0	0
23592960	0	0
24117248	0	0
24641536	0	0
25165824	0	0
25690112	0	0
26214400	0	0
26738688	0	0
27262976	0	0
27787264	0	0
28311552	0	0
28835840	0	0
29360128	0	0
29884416	0	0
30408704	0	0
30932992	0	0
31457280	0	0
31981568	0	0
32505856	0	0
33030144	0	0
33554432	0	0
34603008	0	0
35651584	0	0
36700160	0	0
37748736	0	0
38797312	0	0
39845888	0	0
40894464	0	0
41943040	0	0
42991616	0	0
44040192	0	0
45088768	0	0
46137344	0	0
47185920	0	0
48234496	0	0
49283072	0	0
50331648	0	0
51380224	0	0
52428800	0	0
53477376	0	0
54525952	0	0
55574528	0	0
56623104	0	0
57671680	0	0
58720256	0	0
59768832	0	0
60817408	0	0
61865984	0	0
62914560	0	0
63963136	0	0
65011712	0	0
66060288	0	0
67108864	0	0
69206016	0	0
71303168	0	0
73400320	0	0
75497472	0	0
77594624	0	0
79691776	0	0
81788928	0	0
83886080	0	0
85983232	0	0
88080384	0	0
90177536	0	0
92274688	0	0
94371840	0	0
96468992	0	0
98566144	0	0
100663296	0	0
102760448	0	0
104857600	0	0
106954752	0	0
109051904	0	0
111149056	0	0
113246208	0	0
115343360	0	0
117440512	0	0
119537664	0	0
121634816	0	0
123731968	0	0
125829120	0	0
127926272	0	0
130023424	0	0
132120576	0	0
134217728	0	0
138412032	0	0
142606336	0	0
146800640	0	0
150994944	0	0
155189248	0	0
159383552	0	0
163577856	0	0
167772160	0	0
171966464	0	0
176160768	0	0
180355072	0	0
184549376	0	0
188743680	0	0
192937984	0	0
197132288	0	0
201326592	0	0
205520896	0	0
209715200	0	0
213909504	0	0
218103808	0	0
222298112	0	0
226492416	0	0
230686720	0	0
234881024	0	0
239075328	0	0
243269632	0	0
247463936	0	0
251658240	0	0
255852544	0	0
260046848	0	0
264241152	0	0
268435456	0	0
276824064	0	0
285212672	0	0
293601280	0	0
301989888	0	0
310378496	0	0
318767104	0	0
327155712	0	0
335544320	0	0
343932928	0	0
352321536	0	0
360710144	0	0
369098752	0	0
377487360	0	0
385875968	0	0
394264576	0	0
402653184	0	0
411041792	0	0
419430400	0	0
427819008	0	0
436207616	0	0
444596224	0	0
452984832	0	0
461373440	0	0
469762048	0	0
478150656	0	0
486539264	0	0
494927872	0	0
503316480	0	0
511705088	0	0
520093696	0	0
528482304	0	0
536870912	0	0
553648128	0	0
570425344	0	0
587202560	0	0
603979776	0	0
620756992	0	0
637534208	0	0
654311424	0	0
671088640	0	0
687865856	0	0
704643072	0	0
721420288	0	0
738197504	0	0
754974720	0	0
771751936	0	0
788529152	0	0
805306368	0	0
822083584	0	0
838860800	0	0
855638016	0	0
872415232	0	0
889192448	0	0
905969664	0	0
922746880	0	0
939524096	0	0
956301312	0	0
973078528	0	0
989855744	0	0
1006632960	0	0
1023410176	0	0
1040187392	0	0
1056964608	0	0
1073741824	0	0
1107296256	0	0
1140850688	0	0
1174405120	0	0
1207959552	0	0
1241513984	0	0
1275068416	0	0
1308622848	0	0
1342177280	0	0
1375731712	0	0
1409286144	0	0
1442840576	0	0
1476395008	0	0
1509949440	0	0
1543503872	0	0
1577058304	0	0
1610612736	0	0
1644167168	0	0
1677721600	0	0
1711276032	0	0
1744830464	0	0
1778384896	0	0
1811939328	0	0
1845493760	0	0
1879048192	0	0
1912602624	0	0
1946157056	0	0
1979711488	0	0
2013265920	0	0
2046820352	0	0
2080374784	0	0
2113929216	0	0
2147483648	0	0
2214592512	0	0
2281701376	0	0
2348810240	0	0
2415919104	0	0
2483027968	0	0
2550136832	0	0
2617245696	0	0
2684354560	0	0
2751463424	0	0
2818572288	0	0
2885681152	0	0
2952790016	0	0
3019898880	0	0
3087007744	0	0
3154116608	0	0
3221225472	0	0
3288334336	0	0
3355443200	0	0
3422552064	0	0
3489660928	0	0
3556769792	0	0
3623878656	0	0
3690987520	0	0
3758096384	0	0
3825205248	0	0
3892314112	0	0
3959422976	0	0
4026531840	0	0
4093640704	0	0
4160749568	0	0
4227858432	0	0
~~~~~~~~~~Reuse Distance Profiler output end~~~~~~~~~~

Sampler size:0

DRAM Statistics
 CHANNEL 0
 RQ ROW_BUFFER_HIT:      57268  ROW_BUFFER_MISS:    1701322
 DBUS AVG_CONGESTED_CYCLE:    3.86883
 WQ ROW_BUFFER_HIT:     301660  ROW_BUFFER_MISS:    1059479  FULL:          0


CPU 0 Branch Prediction Accuracy: 84.2883% MPKI: 20.8779 Average ROB Occupancy at Mispredict: 28.4923
Branch type MPKI
BRANCH_DIRECT_JUMP: 2e-06
BRANCH_INDIRECT: 0.950121
BRANCH_CONDITIONAL: 19.9257
BRANCH_DIRECT_CALL: 6.66667e-07
BRANCH_INDIRECT_CALL: 0.002056
BRANCH_RETURN: 6.66667e-07

