
*** ChampSim Multicore Out-of-Order Simulator ***

Warmup Instructions: 50000000
Simulation Instructions: 1500000000
Number of CPUs: 1
Off-chip DRAM Size: 4 GiB Channels: 1 Width: 64-bit Data Rate: 3200 MT/s

VirtualMemory physical capacity: 8588881920 num_ppages: 2096895
VirtualMemory page size: 4096 log2_page_size: 12

CPU 0 runs /s/traces/champsim_traces/401.bzip2-7B.champsimtrace.xz
CPU 0 Bimodal branch predictor
Basic BTB sets: 1024 ways: 8 indirect buffer size: 4096 RAS size: 64
Initializing LRU.
Initializing LRU.
Initializing LRU.
Initializing LRU.
Initializing rdLRU.
Initializing LRU.
Heartbeat CPU 0 instructions: 2000001 cycles: 612027 heartbeat IPC: 3.26783 cumulative IPC: 3.26783 (Simulation time: 0 hr 0 min 57 sec) 
Heartbeat CPU 0 instructions: 4000004 cycles: 1207282 heartbeat IPC: 3.35991 cumulative IPC: 3.31323 (Simulation time: 0 hr 1 min 52 sec) 
Heartbeat CPU 0 instructions: 6000002 cycles: 1801574 heartbeat IPC: 3.36535 cumulative IPC: 3.33042 (Simulation time: 0 hr 2 min 46 sec) 
Heartbeat CPU 0 instructions: 8000002 cycles: 2422373 heartbeat IPC: 3.22165 cumulative IPC: 3.30255 (Simulation time: 0 hr 3 min 43 sec) 
Heartbeat CPU 0 instructions: 10000000 cycles: 2993460 heartbeat IPC: 3.50209 cumulative IPC: 3.34062 (Simulation time: 0 hr 4 min 33 sec) 
Heartbeat CPU 0 instructions: 12000001 cycles: 3588957 heartbeat IPC: 3.35854 cumulative IPC: 3.34359 (Simulation time: 0 hr 5 min 26 sec) 
Heartbeat CPU 0 instructions: 14000001 cycles: 4167585 heartbeat IPC: 3.45645 cumulative IPC: 3.35926 (Simulation time: 0 hr 6 min 17 sec) 
Heartbeat CPU 0 instructions: 16000001 cycles: 4740685 heartbeat IPC: 3.48979 cumulative IPC: 3.37504 (Simulation time: 0 hr 7 min 7 sec) 
Heartbeat CPU 0 instructions: 18000001 cycles: 5283465 heartbeat IPC: 3.68473 cumulative IPC: 3.40686 (Simulation time: 0 hr 7 min 53 sec) 
Heartbeat CPU 0 instructions: 20000003 cycles: 5799706 heartbeat IPC: 3.87416 cumulative IPC: 3.44845 (Simulation time: 0 hr 8 min 34 sec) 
Heartbeat CPU 0 instructions: 22000000 cycles: 6306599 heartbeat IPC: 3.9456 cumulative IPC: 3.48841 (Simulation time: 0 hr 9 min 16 sec) 
Heartbeat CPU 0 instructions: 24000001 cycles: 6834587 heartbeat IPC: 3.78797 cumulative IPC: 3.51155 (Simulation time: 0 hr 10 min 1 sec) 
Heartbeat CPU 0 instructions: 26000003 cycles: 7336611 heartbeat IPC: 3.98388 cumulative IPC: 3.54387 (Simulation time: 0 hr 10 min 44 sec) 
Heartbeat CPU 0 instructions: 28000001 cycles: 7867188 heartbeat IPC: 3.76948 cumulative IPC: 3.55909 (Simulation time: 0 hr 11 min 26 sec) 
Heartbeat CPU 0 instructions: 30000000 cycles: 8389956 heartbeat IPC: 3.82579 cumulative IPC: 3.5757 (Simulation time: 0 hr 12 min 9 sec) 
Heartbeat CPU 0 instructions: 32000002 cycles: 8954332 heartbeat IPC: 3.54374 cumulative IPC: 3.57369 (Simulation time: 0 hr 12 min 58 sec) 
Heartbeat CPU 0 instructions: 34000000 cycles: 9543857 heartbeat IPC: 3.39256 cumulative IPC: 3.5625 (Simulation time: 0 hr 13 min 49 sec) 
Heartbeat CPU 0 instructions: 36000003 cycles: 10112361 heartbeat IPC: 3.51801 cumulative IPC: 3.56 (Simulation time: 0 hr 14 min 39 sec) 
Heartbeat CPU 0 instructions: 38000001 cycles: 10661085 heartbeat IPC: 3.64482 cumulative IPC: 3.56437 (Simulation time: 0 hr 15 min 31 sec) 
Heartbeat CPU 0 instructions: 40000000 cycles: 11326790 heartbeat IPC: 3.00433 cumulative IPC: 3.53145 (Simulation time: 0 hr 16 min 36 sec) 
Heartbeat CPU 0 instructions: 42000002 cycles: 12032638 heartbeat IPC: 2.83347 cumulative IPC: 3.49051 (Simulation time: 0 hr 17 min 41 sec) 
Heartbeat CPU 0 instructions: 44000000 cycles: 12725970 heartbeat IPC: 2.88462 cumulative IPC: 3.4575 (Simulation time: 0 hr 18 min 46 sec) 
Heartbeat CPU 0 instructions: 46000003 cycles: 13317580 heartbeat IPC: 3.38061 cumulative IPC: 3.45408 (Simulation time: 0 hr 19 min 38 sec) 
Heartbeat CPU 0 instructions: 48000001 cycles: 13883934 heartbeat IPC: 3.53136 cumulative IPC: 3.45723 (Simulation time: 0 hr 20 min 32 sec) 
Heartbeat CPU 0 instructions: 50000001 cycles: 14455349 heartbeat IPC: 3.50008 cumulative IPC: 3.45893 (Simulation time: 0 hr 21 min 24 sec) 

Warmup complete CPU 0 instructions: 50000001 cycles: 14455349 (Simulation time: 0 hr 21 min 24 sec) 

Heartbeat CPU 0 instructions: 52000000 cycles: 16047253 heartbeat IPC: 1.25636 cumulative IPC: 1.25636 (Simulation time: 0 hr 22 min 6 sec) 

Region of Interest Statistics
cpu0_DTLB TOTAL     ACCESS:     545488  HIT:     545052  MISS:        436
cpu0_DTLB LOAD      ACCESS:     394458  HIT:     394023  MISS:        435
cpu0_DTLB RFO       ACCESS:     151030  HIT:     151029  MISS:          1
cpu0_DTLB PREFETCH  ACCESS:          0  HIT:          0  MISS:          0
cpu0_DTLB WRITEBACK ACCESS:          0  HIT:          0  MISS:          0
cpu0_ITLB TOTAL     ACCESS:     228201  HIT:     228201  MISS:          0
cpu0_ITLB LOAD      ACCESS:     228201  HIT:     228201  MISS:          0
cpu0_ITLB RFO       ACCESS:          0  HIT:          0  MISS:          0
cpu0_ITLB PREFETCH  ACCESS:          0  HIT:          0  MISS:          0
cpu0_ITLB WRITEBACK ACCESS:          0  HIT:          0  MISS:          0
cpu0_L1I TOTAL     ACCESS:         86  HIT:         86  MISS:          0
cpu0_L1I LOAD      ACCESS:         86  HIT:         86  MISS:          0
cpu0_L1I RFO       ACCESS:          0  HIT:          0  MISS:          0
cpu0_L1I PREFETCH  ACCESS:          0  HIT:          0  MISS:          0
cpu0_L1I WRITEBACK ACCESS:          0  HIT:          0  MISS:          0
cpu0_STLB TOTAL     ACCESS:        436  HIT:        436  MISS:          0
cpu0_STLB LOAD      ACCESS:        435  HIT:        435  MISS:          0
cpu0_STLB RFO       ACCESS:          1  HIT:          1  MISS:          0
cpu0_STLB PREFETCH  ACCESS:          0  HIT:          0  MISS:          0
cpu0_STLB WRITEBACK ACCESS:          0  HIT:          0  MISS:          0
cpu0_L1D TOTAL     ACCESS:     757543  HIT:     742205  MISS:      15338
cpu0_L1D LOAD      ACCESS:     457321  HIT:     441988  MISS:      15333
cpu0_L1D RFO       ACCESS:     300222  HIT:     300217  MISS:          5
cpu0_L1D PREFETCH  ACCESS:          0  HIT:          0  MISS:          0
cpu0_L1D WRITEBACK ACCESS:          0  HIT:          0  MISS:          0
cpu0_L2C TOTAL     ACCESS:      16432  HIT:      16432  MISS:          0
cpu0_L2C LOAD      ACCESS:      15333  HIT:      15333  MISS:          0
cpu0_L2C RFO       ACCESS:          5  HIT:          5  MISS:          0
cpu0_L2C PREFETCH  ACCESS:          0  HIT:          0  MISS:          0
cpu0_L2C WRITEBACK ACCESS:       1094  HIT:       1094  MISS:          0
Heartbeat CPU 0 instructions: 54000002 cycles: 17632229 heartbeat IPC: 1.26185 cumulative IPC: 1.2591 (Simulation time: 0 hr 22 min 50 sec) 

Region of Interest Statistics
cpu0_DTLB TOTAL     ACCESS:    1081461  HIT:    1080165  MISS:       1296
cpu0_DTLB LOAD      ACCESS:     783727  HIT:     782434  MISS:       1293
cpu0_DTLB RFO       ACCESS:     297734  HIT:     297731  MISS:          3
cpu0_DTLB PREFETCH  ACCESS:          0  HIT:          0  MISS:          0
cpu0_DTLB WRITEBACK ACCESS:          0  HIT:          0  MISS:          0
cpu0_ITLB TOTAL     ACCESS:     450903  HIT:     450903  MISS:          0
cpu0_ITLB LOAD      ACCESS:     450903  HIT:     450903  MISS:          0
cpu0_ITLB RFO       ACCESS:          0  HIT:          0  MISS:          0
cpu0_ITLB PREFETCH  ACCESS:          0  HIT:          0  MISS:          0
cpu0_ITLB WRITEBACK ACCESS:          0  HIT:          0  MISS:          0
cpu0_L1I TOTAL     ACCESS:        173  HIT:        173  MISS:          0
cpu0_L1I LOAD      ACCESS:        173  HIT:        173  MISS:          0
cpu0_L1I RFO       ACCESS:          0  HIT:          0  MISS:          0
cpu0_L1I PREFETCH  ACCESS:          0  HIT:          0  MISS:          0
cpu0_L1I WRITEBACK ACCESS:          0  HIT:          0  MISS:          0
cpu0_STLB TOTAL     ACCESS:       1296  HIT:       1296  MISS:          0
cpu0_STLB LOAD      ACCESS:       1293  HIT:       1293  MISS:          0
cpu0_STLB RFO       ACCESS:          3  HIT:          3  MISS:          0
cpu0_STLB PREFETCH  ACCESS:          0  HIT:          0  MISS:          0
cpu0_STLB WRITEBACK ACCESS:          0  HIT:          0  MISS:          0
cpu0_L1D TOTAL     ACCESS:    1494212  HIT:    1462189  MISS:      32023
cpu0_L1D LOAD      ACCESS:     902200  HIT:     870193  MISS:      32007
cpu0_L1D RFO       ACCESS:     592012  HIT:     591996  MISS:         16
cpu0_L1D PREFETCH  ACCESS:          0  HIT:          0  MISS:          0
cpu0_L1D WRITEBACK ACCESS:          0  HIT:          0  MISS:          0
cpu0_L2C TOTAL     ACCESS:      34368  HIT:      34134  MISS:        234
cpu0_L2C LOAD      ACCESS:      32006  HIT:      31772  MISS:        234
cpu0_L2C RFO       ACCESS:         16  HIT:         16  MISS:          0
cpu0_L2C PREFETCH  ACCESS:          0  HIT:          0  MISS:          0
cpu0_L2C WRITEBACK ACCESS:       2346  HIT:       2346  MISS:          0
LLC TOTAL     ACCESS:        399  HIT:        367  MISS:         32
LLC LOAD      ACCESS:        234  HIT:        202  MISS:         32
LLC RFO       ACCESS:          0  HIT:          0  MISS:          0
LLC PREFETCH  ACCESS:          0  HIT:          0  MISS:          0
LLC WRITEBACK ACCESS:        165  HIT:        165  MISS:          0
Heartbeat CPU 0 instructions: 56000002 cycles: 18811781 heartbeat IPC: 1.69556 cumulative IPC: 1.37727 (Simulation time: 0 hr 23 min 35 sec) 

Region of Interest Statistics
cpu0_DTLB TOTAL     ACCESS:    1535195  HIT:    1529479  MISS:       5716
cpu0_DTLB LOAD      ACCESS:    1144163  HIT:    1139646  MISS:       4517
cpu0_DTLB RFO       ACCESS:     391032  HIT:     389833  MISS:       1199
cpu0_DTLB PREFETCH  ACCESS:          0  HIT:          0  MISS:          0
cpu0_DTLB WRITEBACK ACCESS:          0  HIT:          0  MISS:          0
cpu0_ITLB TOTAL     ACCESS:     633205  HIT:     633205  MISS:          0
cpu0_ITLB LOAD      ACCESS:     633205  HIT:     633205  MISS:          0
cpu0_ITLB RFO       ACCESS:          0  HIT:          0  MISS:          0
cpu0_ITLB PREFETCH  ACCESS:          0  HIT:          0  MISS:          0
cpu0_ITLB WRITEBACK ACCESS:          0  HIT:          0  MISS:          0
cpu0_L1I TOTAL     ACCESS:        308  HIT:        308  MISS:          0
cpu0_L1I LOAD      ACCESS:        308  HIT:        308  MISS:          0
cpu0_L1I RFO       ACCESS:          0  HIT:          0  MISS:          0
cpu0_L1I PREFETCH  ACCESS:          0  HIT:          0  MISS:          0
cpu0_L1I WRITEBACK ACCESS:          0  HIT:          0  MISS:          0
cpu0_STLB TOTAL     ACCESS:       5716  HIT:       5714  MISS:          2
cpu0_STLB LOAD      ACCESS:       4517  HIT:       4515  MISS:          2
cpu0_STLB RFO       ACCESS:       1199  HIT:       1199  MISS:          0
cpu0_STLB PREFETCH  ACCESS:          0  HIT:          0  MISS:          0
cpu0_STLB WRITEBACK ACCESS:          0  HIT:          0  MISS:          0
cpu0_L1D TOTAL     ACCESS:    2001430  HIT:    1940624  MISS:      60806
cpu0_L1D LOAD      ACCESS:    1228193  HIT:    1175454  MISS:      52739
cpu0_L1D RFO       ACCESS:     773235  HIT:     765170  MISS:       8065
cpu0_L1D PREFETCH  ACCESS:          0  HIT:          0  MISS:          0
cpu0_L1D WRITEBACK ACCESS:          0  HIT:          0  MISS:          0
cpu0_L2C TOTAL     ACCESS:      72164  HIT:      59138  MISS:      13026
cpu0_L2C LOAD      ACCESS:      52738  HIT:      47271  MISS:       5467
cpu0_L2C RFO       ACCESS:       8065  HIT:        508  MISS:       7557
cpu0_L2C PREFETCH  ACCESS:          0  HIT:          0  MISS:          0
cpu0_L2C WRITEBACK ACCESS:      11359  HIT:      11358  MISS:          1
LLC TOTAL     ACCESS:      19656  HIT:      19307  MISS:        349
LLC LOAD      ACCESS:       5467  HIT:       5163  MISS:        304
LLC RFO       ACCESS:       7555  HIT:       7510  MISS:         45
LLC PREFETCH  ACCESS:          0  HIT:          0  MISS:          0
LLC WRITEBACK ACCESS:       6633  HIT:       6633  MISS:          0
Heartbeat CPU 0 instructions: 58000003 cycles: 19988697 heartbeat IPC: 1.69936 cumulative IPC: 1.44578 (Simulation time: 0 hr 24 min 21 sec) 

Region of Interest Statistics
cpu0_DTLB TOTAL     ACCESS:    1990594  HIT:    1978586  MISS:      12008
cpu0_DTLB LOAD      ACCESS:    1502682  HIT:    1494168  MISS:       8514
cpu0_DTLB RFO       ACCESS:     487912  HIT:     484418  MISS:       3494
cpu0_DTLB PREFETCH  ACCESS:          0  HIT:          0  MISS:          0
cpu0_DTLB WRITEBACK ACCESS:          0  HIT:          0  MISS:          0
cpu0_ITLB TOTAL     ACCESS:     818997  HIT:     818997  MISS:          0
cpu0_ITLB LOAD      ACCESS:     818997  HIT:     818997  MISS:          0
cpu0_ITLB RFO       ACCESS:          0  HIT:          0  MISS:          0
cpu0_ITLB PREFETCH  ACCESS:          0  HIT:          0  MISS:          0
cpu0_ITLB WRITEBACK ACCESS:          0  HIT:          0  MISS:          0
cpu0_L1I TOTAL     ACCESS:        495  HIT:        495  MISS:          0
cpu0_L1I LOAD      ACCESS:        495  HIT:        495  MISS:          0
cpu0_L1I RFO       ACCESS:          0  HIT:          0  MISS:          0
cpu0_L1I PREFETCH  ACCESS:          0  HIT:          0  MISS:          0
cpu0_L1I WRITEBACK ACCESS:          0  HIT:          0  MISS:          0
cpu0_STLB TOTAL     ACCESS:      12008  HIT:      11995  MISS:         13
cpu0_STLB LOAD      ACCESS:       8514  HIT:       8508  MISS:          6
cpu0_STLB RFO       ACCESS:       3494  HIT:       3487  MISS:          7
cpu0_STLB PREFETCH  ACCESS:          0  HIT:          0  MISS:          0
cpu0_STLB WRITEBACK ACCESS:          0  HIT:          0  MISS:          0
cpu0_L1D TOTAL     ACCESS:    2492995  HIT:    2404864  MISS:      88131
cpu0_L1D LOAD      ACCESS:    1543110  HIT:    1470845  MISS:      72265
cpu0_L1D RFO       ACCESS:     949873  HIT:     934013  MISS:      15860
cpu0_L1D PREFETCH  ACCESS:          0  HIT:          0  MISS:          0
cpu0_L1D WRITEBACK ACCESS:          0  HIT:          0  MISS:          0
cpu0_L2C TOTAL     ACCESS:     108288  HIT:      84460  MISS:      23828
cpu0_L2C LOAD      ACCESS:      72262  HIT:      62036  MISS:      10226
cpu0_L2C RFO       ACCESS:      15860  HIT:       2262  MISS:      13598
cpu0_L2C PREFETCH  ACCESS:          0  HIT:          0  MISS:          0
cpu0_L2C WRITEBACK ACCESS:      20160  HIT:      20158  MISS:          2
LLC TOTAL     ACCESS:      36720  HIT:      35593  MISS:       1127
LLC LOAD      ACCESS:      10226  HIT:       9642  MISS:        584
LLC RFO       ACCESS:      13595  HIT:      13052  MISS:        543
LLC PREFETCH  ACCESS:          0  HIT:          0  MISS:          0
LLC WRITEBACK ACCESS:      12897  HIT:      12897  MISS:          0
Heartbeat CPU 0 instructions: 60000000 cycles: 21209822 heartbeat IPC: 1.63783 cumulative IPC: 1.4805 (Simulation time: 0 hr 25 min 7 sec) 

Region of Interest Statistics
cpu0_DTLB TOTAL     ACCESS:    2447785  HIT:    2429928  MISS:      17857
cpu0_DTLB LOAD      ACCESS:    1858984  HIT:    1846699  MISS:      12285
cpu0_DTLB RFO       ACCESS:     588801  HIT:     583229  MISS:       5572
cpu0_DTLB PREFETCH  ACCESS:          0  HIT:          0  MISS:          0
cpu0_DTLB WRITEBACK ACCESS:          0  HIT:          0  MISS:          0
cpu0_ITLB TOTAL     ACCESS:    1015132  HIT:    1015132  MISS:          0
cpu0_ITLB LOAD      ACCESS:    1015132  HIT:    1015132  MISS:          0
cpu0_ITLB RFO       ACCESS:          0  HIT:          0  MISS:          0
cpu0_ITLB PREFETCH  ACCESS:          0  HIT:          0  MISS:          0
cpu0_ITLB WRITEBACK ACCESS:          0  HIT:          0  MISS:          0
cpu0_L1I TOTAL     ACCESS:        621  HIT:        621  MISS:          0
cpu0_L1I LOAD      ACCESS:        621  HIT:        621  MISS:          0
cpu0_L1I RFO       ACCESS:          0  HIT:          0  MISS:          0
cpu0_L1I PREFETCH  ACCESS:          0  HIT:          0  MISS:          0
cpu0_L1I WRITEBACK ACCESS:          0  HIT:          0  MISS:          0
cpu0_STLB TOTAL     ACCESS:      17857  HIT:      17835  MISS:         22
cpu0_STLB LOAD      ACCESS:      12285  HIT:      12276  MISS:          9
cpu0_STLB RFO       ACCESS:       5572  HIT:       5559  MISS:         13
cpu0_STLB PREFETCH  ACCESS:          0  HIT:          0  MISS:          0
cpu0_STLB WRITEBACK ACCESS:          0  HIT:          0  MISS:          0
cpu0_L1D TOTAL     ACCESS:    3001059  HIT:    2888742  MISS:     112317
cpu0_L1D LOAD      ACCESS:    1864361  HIT:    1775555  MISS:      88806
cpu0_L1D RFO       ACCESS:    1136677  HIT:    1113177  MISS:      23500
cpu0_L1D PREFETCH  ACCESS:          0  HIT:          0  MISS:          0
cpu0_L1D WRITEBACK ACCESS:          0  HIT:          0  MISS:          0
cpu0_L2C TOTAL     ACCESS:     140947  HIT:     106679  MISS:      34268
cpu0_L2C LOAD      ACCESS:      88800  HIT:      73854  MISS:      14946
cpu0_L2C RFO       ACCESS:      23499  HIT:       4182  MISS:      19317
cpu0_L2C PREFETCH  ACCESS:          0  HIT:          0  MISS:          0
cpu0_L2C WRITEBACK ACCESS:      28637  HIT:      28635  MISS:          2
LLC TOTAL     ACCESS:      53357  HIT:      51482  MISS:       1875
LLC LOAD      ACCESS:      14946  HIT:      14095  MISS:        851
LLC RFO       ACCESS:      19314  HIT:      18290  MISS:       1024
LLC PREFETCH  ACCESS:          0  HIT:          0  MISS:          0
LLC WRITEBACK ACCESS:      19094  HIT:      19094  MISS:          0
Heartbeat CPU 0 instructions: 62000004 cycles: 22426621 heartbeat IPC: 1.64366 cumulative IPC: 1.50541 (Simulation time: 0 hr 25 min 54 sec) 

Region of Interest Statistics
cpu0_DTLB TOTAL     ACCESS:    2900050  HIT:    2869440  MISS:      30610
cpu0_DTLB LOAD      ACCESS:    2213595  HIT:    2191284  MISS:      22311
cpu0_DTLB RFO       ACCESS:     686455  HIT:     678156  MISS:       8299
cpu0_DTLB PREFETCH  ACCESS:          0  HIT:          0  MISS:          0
cpu0_DTLB WRITEBACK ACCESS:          0  HIT:          0  MISS:          0
cpu0_ITLB TOTAL     ACCESS:    1205121  HIT:    1205121  MISS:          0
cpu0_ITLB LOAD      ACCESS:    1205121  HIT:    1205121  MISS:          0
cpu0_ITLB RFO       ACCESS:          0  HIT:          0  MISS:          0
cpu0_ITLB PREFETCH  ACCESS:          0  HIT:          0  MISS:          0
cpu0_ITLB WRITEBACK ACCESS:          0  HIT:          0  MISS:          0
cpu0_L1I TOTAL     ACCESS:       1922  HIT:       1922  MISS:          0
cpu0_L1I LOAD      ACCESS:       1922  HIT:       1922  MISS:          0
cpu0_L1I RFO       ACCESS:          0  HIT:          0  MISS:          0
cpu0_L1I PREFETCH  ACCESS:          0  HIT:          0  MISS:          0
cpu0_L1I WRITEBACK ACCESS:          0  HIT:          0  MISS:          0
cpu0_STLB TOTAL     ACCESS:      30610  HIT:      30572  MISS:         38
cpu0_STLB LOAD      ACCESS:      22311  HIT:      22300  MISS:         11
cpu0_STLB RFO       ACCESS:       8299  HIT:       8272  MISS:         27
cpu0_STLB PREFETCH  ACCESS:          0  HIT:          0  MISS:          0
cpu0_STLB WRITEBACK ACCESS:          0  HIT:          0  MISS:          0
cpu0_L1D TOTAL     ACCESS:    3503661  HIT:    3370344  MISS:     133317
cpu0_L1D LOAD      ACCESS:    2186269  HIT:    2082561  MISS:     103708
cpu0_L1D RFO       ACCESS:    1317356  HIT:    1287766  MISS:      29590
cpu0_L1D PREFETCH  ACCESS:          0  HIT:          0  MISS:          0
cpu0_L1D WRITEBACK ACCESS:          0  HIT:          0  MISS:          0
cpu0_L2C TOTAL     ACCESS:     168072  HIT:     123841  MISS:      44231
cpu0_L2C LOAD      ACCESS:     103701  HIT:      83548  MISS:      20153
cpu0_L2C RFO       ACCESS:      29586  HIT:       5513  MISS:      24073
cpu0_L2C PREFETCH  ACCESS:          0  HIT:          0  MISS:          0
cpu0_L2C WRITEBACK ACCESS:      34766  HIT:      34764  MISS:          2
LLC TOTAL     ACCESS:      68806  HIT:      66208  MISS:       2598
LLC LOAD      ACCESS:      20152  HIT:      19021  MISS:       1131
LLC RFO       ACCESS:      24071  HIT:      22604  MISS:       1467
LLC PREFETCH  ACCESS:          0  HIT:          0  MISS:          0
LLC WRITEBACK ACCESS:      24580  HIT:      24580  MISS:          0
Heartbeat CPU 0 instructions: 64000002 cycles: 23599606 heartbeat IPC: 1.70505 cumulative IPC: 1.53102 (Simulation time: 0 hr 26 min 42 sec) 

Region of Interest Statistics
cpu0_DTLB TOTAL     ACCESS:    3336350  HIT:    3297972  MISS:      38378
cpu0_DTLB LOAD      ACCESS:    2560854  HIT:    2532291  MISS:      28563
cpu0_DTLB RFO       ACCESS:     775496  HIT:     765681  MISS:       9815
cpu0_DTLB PREFETCH  ACCESS:          0  HIT:          0  MISS:          0
cpu0_DTLB WRITEBACK ACCESS:          0  HIT:          0  MISS:          0
cpu0_ITLB TOTAL     ACCESS:    1386735  HIT:    1386735  MISS:          0
cpu0_ITLB LOAD      ACCESS:    1386735  HIT:    1386735  MISS:          0
cpu0_ITLB RFO       ACCESS:          0  HIT:          0  MISS:          0
cpu0_ITLB PREFETCH  ACCESS:          0  HIT:          0  MISS:          0
cpu0_ITLB WRITEBACK ACCESS:          0  HIT:          0  MISS:          0
cpu0_L1I TOTAL     ACCESS:       2071  HIT:       2071  MISS:          0
cpu0_L1I LOAD      ACCESS:       2071  HIT:       2071  MISS:          0
cpu0_L1I RFO       ACCESS:          0  HIT:          0  MISS:          0
cpu0_L1I PREFETCH  ACCESS:          0  HIT:          0  MISS:          0
cpu0_L1I WRITEBACK ACCESS:          0  HIT:          0  MISS:          0
cpu0_STLB TOTAL     ACCESS:      38378  HIT:      38337  MISS:         41
cpu0_STLB LOAD      ACCESS:      28563  HIT:      28549  MISS:         14
cpu0_STLB RFO       ACCESS:       9815  HIT:       9788  MISS:         27
cpu0_STLB PREFETCH  ACCESS:          0  HIT:          0  MISS:          0
cpu0_STLB WRITEBACK ACCESS:          0  HIT:          0  MISS:          0
cpu0_L1D TOTAL     ACCESS:    3993610  HIT:    3844295  MISS:     149315
cpu0_L1D LOAD      ACCESS:    2498295  HIT:    2381368  MISS:     116927
cpu0_L1D RFO       ACCESS:    1495276  HIT:    1462909  MISS:      32367
cpu0_L1D PREFETCH  ACCESS:          0  HIT:          0  MISS:          0
cpu0_L1D WRITEBACK ACCESS:          0  HIT:          0  MISS:          0
cpu0_L2C TOTAL     ACCESS:     188211  HIT:     138417  MISS:      49794
cpu0_L2C LOAD      ACCESS:     116918  HIT:      93029  MISS:      23889
cpu0_L2C RFO       ACCESS:      32363  HIT:       6465  MISS:      25898
cpu0_L2C PREFETCH  ACCESS:          0  HIT:          0  MISS:          0
cpu0_L2C WRITEBACK ACCESS:      38909  HIT:      38906  MISS:          3
LLC TOTAL     ACCESS:      77972  HIT:      75110  MISS:       2862
LLC LOAD      ACCESS:      23888  HIT:      22493  MISS:       1395
LLC RFO       ACCESS:      25894  HIT:      24427  MISS:       1467
LLC PREFETCH  ACCESS:          0  HIT:          0  MISS:          0
LLC WRITEBACK ACCESS:      28186  HIT:      28186  MISS:          0
Heartbeat CPU 0 instructions: 66000001 cycles: 24669081 heartbeat IPC: 1.87008 cumulative IPC: 1.56652 (Simulation time: 0 hr 27 min 33 sec) 

Region of Interest Statistics
cpu0_DTLB TOTAL     ACCESS:    3803730  HIT:    3754685  MISS:      49045
cpu0_DTLB LOAD      ACCESS:    2926359  HIT:    2892189  MISS:      34170
cpu0_DTLB RFO       ACCESS:     877371  HIT:     862496  MISS:      14875
cpu0_DTLB PREFETCH  ACCESS:          0  HIT:          0  MISS:          0
cpu0_DTLB WRITEBACK ACCESS:          0  HIT:          0  MISS:          0
cpu0_ITLB TOTAL     ACCESS:    1561758  HIT:    1561758  MISS:          0
cpu0_ITLB LOAD      ACCESS:    1561758  HIT:    1561758  MISS:          0
cpu0_ITLB RFO       ACCESS:          0  HIT:          0  MISS:          0
cpu0_ITLB PREFETCH  ACCESS:          0  HIT:          0  MISS:          0
cpu0_ITLB WRITEBACK ACCESS:          0  HIT:          0  MISS:          0
cpu0_L1I TOTAL     ACCESS:       4102  HIT:       4102  MISS:          0
cpu0_L1I LOAD      ACCESS:       4102  HIT:       4102  MISS:          0
cpu0_L1I RFO       ACCESS:          0  HIT:          0  MISS:          0
cpu0_L1I PREFETCH  ACCESS:          0  HIT:          0  MISS:          0
cpu0_L1I WRITEBACK ACCESS:          0  HIT:          0  MISS:          0
cpu0_STLB TOTAL     ACCESS:      49045  HIT:      48986  MISS:         59
cpu0_STLB LOAD      ACCESS:      34170  HIT:      34153  MISS:         17
cpu0_STLB RFO       ACCESS:      14875  HIT:      14833  MISS:         42
cpu0_STLB PREFETCH  ACCESS:          0  HIT:          0  MISS:          0
cpu0_STLB WRITEBACK ACCESS:          0  HIT:          0  MISS:          0
cpu0_L1D TOTAL     ACCESS:    4460524  HIT:    4265322  MISS:     195202
cpu0_L1D LOAD      ACCESS:    2806621  HIT:    2664672  MISS:     141949
cpu0_L1D RFO       ACCESS:    1653846  HIT:    1600627  MISS:      53219
cpu0_L1D PREFETCH  ACCESS:          0  HIT:          0  MISS:          0
cpu0_L1D WRITEBACK ACCESS:          0  HIT:          0  MISS:          0
cpu0_L2C TOTAL     ACCESS:     255863  HIT:     177767  MISS:      78096
cpu0_L2C LOAD      ACCESS:     141940  HIT:     106436  MISS:      35504
cpu0_L2C RFO       ACCESS:      53208  HIT:      10627  MISS:      42581
cpu0_L2C PREFETCH  ACCESS:          0  HIT:          0  MISS:          0
cpu0_L2C WRITEBACK ACCESS:      60681  HIT:      60676  MISS:          5
LLC TOTAL     ACCESS:     121962  HIT:     117920  MISS:       4042
LLC LOAD      ACCESS:      35503  HIT:      33863  MISS:       1640
LLC RFO       ACCESS:      42577  HIT:      40175  MISS:       2402
LLC PREFETCH  ACCESS:          0  HIT:          0  MISS:          0
LLC WRITEBACK ACCESS:      43876  HIT:      43876  MISS:          0
Heartbeat CPU 0 instructions: 68000000 cycles: 25909540 heartbeat IPC: 1.61231 cumulative IPC: 1.57148 (Simulation time: 0 hr 28 min 20 sec) 

Region of Interest Statistics
cpu0_DTLB TOTAL     ACCESS:    4264003  HIT:    4207260  MISS:      56743
cpu0_DTLB LOAD      ACCESS:    3291000  HIT:    3249537  MISS:      41463
cpu0_DTLB RFO       ACCESS:     973003  HIT:     957723  MISS:      15280
cpu0_DTLB PREFETCH  ACCESS:          0  HIT:          0  MISS:          0
cpu0_DTLB WRITEBACK ACCESS:          0  HIT:          0  MISS:          0
cpu0_ITLB TOTAL     ACCESS:    1753995  HIT:    1753995  MISS:          0
cpu0_ITLB LOAD      ACCESS:    1753995  HIT:    1753995  MISS:          0
cpu0_ITLB RFO       ACCESS:          0  HIT:          0  MISS:          0
cpu0_ITLB PREFETCH  ACCESS:          0  HIT:          0  MISS:          0
cpu0_ITLB WRITEBACK ACCESS:          0  HIT:          0  MISS:          0
cpu0_L1I TOTAL     ACCESS:       4278  HIT:       4278  MISS:          0
cpu0_L1I LOAD      ACCESS:       4278  HIT:       4278  MISS:          0
cpu0_L1I RFO       ACCESS:          0  HIT:          0  MISS:          0
cpu0_L1I PREFETCH  ACCESS:          0  HIT:          0  MISS:          0
cpu0_L1I WRITEBACK ACCESS:          0  HIT:          0  MISS:          0
cpu0_STLB TOTAL     ACCESS:      56743  HIT:      56675  MISS:         68
cpu0_STLB LOAD      ACCESS:      41463  HIT:      41444  MISS:         19
cpu0_STLB RFO       ACCESS:      15280  HIT:      15231  MISS:         49
cpu0_STLB PREFETCH  ACCESS:          0  HIT:          0  MISS:          0
cpu0_STLB WRITEBACK ACCESS:          0  HIT:          0  MISS:          0
cpu0_L1D TOTAL     ACCESS:    4960567  HIT:    4747960  MISS:     212607
cpu0_L1D LOAD      ACCESS:    3133112  HIT:    2976048  MISS:     157064
cpu0_L1D RFO       ACCESS:    1827389  HIT:    1771885  MISS:      55504
cpu0_L1D PREFETCH  ACCESS:          0  HIT:          0  MISS:          0
cpu0_L1D WRITEBACK ACCESS:          0  HIT:          0  MISS:          0
cpu0_L2C TOTAL     ACCESS:     275580  HIT:     189991  MISS:      85589
cpu0_L2C LOAD      ACCESS:     157055  HIT:     115696  MISS:      41359
cpu0_L2C RFO       ACCESS:      55493  HIT:      11274  MISS:      44219
cpu0_L2C PREFETCH  ACCESS:          0  HIT:          0  MISS:          0
cpu0_L2C WRITEBACK ACCESS:      62993  HIT:      62988  MISS:          5
LLC TOTAL     ACCESS:     134477  HIT:     129641  MISS:       4836
LLC LOAD      ACCESS:      41358  HIT:      39463  MISS:       1895
LLC RFO       ACCESS:      44215  HIT:      41274  MISS:       2941
LLC PREFETCH  ACCESS:          0  HIT:          0  MISS:          0
LLC WRITEBACK ACCESS:      48898  HIT:      48898  MISS:          0
Heartbeat CPU 0 instructions: 70000000 cycles: 27092568 heartbeat IPC: 1.69058 cumulative IPC: 1.58263 (Simulation time: 0 hr 29 min 7 sec) 

Region of Interest Statistics
cpu0_DTLB TOTAL     ACCESS:    4703643  HIT:    4639200  MISS:      64443
cpu0_DTLB LOAD      ACCESS:    3641374  HIT:    3595686  MISS:      45688
cpu0_DTLB RFO       ACCESS:    1062269  HIT:    1043514  MISS:      18755
cpu0_DTLB PREFETCH  ACCESS:          0  HIT:          0  MISS:          0
cpu0_DTLB WRITEBACK ACCESS:          0  HIT:          0  MISS:          0
cpu0_ITLB TOTAL     ACCESS:    1944040  HIT:    1944040  MISS:          0
cpu0_ITLB LOAD      ACCESS:    1944040  HIT:    1944040  MISS:          0
cpu0_ITLB RFO       ACCESS:          0  HIT:          0  MISS:          0
cpu0_ITLB PREFETCH  ACCESS:          0  HIT:          0  MISS:          0
cpu0_ITLB WRITEBACK ACCESS:          0  HIT:          0  MISS:          0
cpu0_L1I TOTAL     ACCESS:       4431  HIT:       4431  MISS:          0
cpu0_L1I LOAD      ACCESS:       4431  HIT:       4431  MISS:          0
cpu0_L1I RFO       ACCESS:          0  HIT:          0  MISS:          0
cpu0_L1I PREFETCH  ACCESS:          0  HIT:          0  MISS:          0
cpu0_L1I WRITEBACK ACCESS:          0  HIT:          0  MISS:          0
cpu0_STLB TOTAL     ACCESS:      64443  HIT:      64372  MISS:         71
cpu0_STLB LOAD      ACCESS:      45688  HIT:      45666  MISS:         22
cpu0_STLB RFO       ACCESS:      18755  HIT:      18706  MISS:         49
cpu0_STLB PREFETCH  ACCESS:          0  HIT:          0  MISS:          0
cpu0_STLB WRITEBACK ACCESS:          0  HIT:          0  MISS:          0
cpu0_L1D TOTAL     ACCESS:    5443143  HIT:    5208392  MISS:     234751
cpu0_L1D LOAD      ACCESS:    3438550  HIT:    3267952  MISS:     170598
cpu0_L1D RFO       ACCESS:    2004524  HIT:    1940412  MISS:      64112
cpu0_L1D PREFETCH  ACCESS:          0  HIT:          0  MISS:          0
cpu0_L1D WRITEBACK ACCESS:          0  HIT:          0  MISS:          0
cpu0_L2C TOTAL     ACCESS:     307693  HIT:     211158  MISS:      96535
cpu0_L2C LOAD      ACCESS:     170587  HIT:     124740  MISS:      45847
cpu0_L2C RFO       ACCESS:      64100  HIT:      13425  MISS:      50675
cpu0_L2C PREFETCH  ACCESS:          0  HIT:          0  MISS:          0
cpu0_L2C WRITEBACK ACCESS:      72965  HIT:      72959  MISS:          6
LLC TOTAL     ACCESS:     151936  HIT:     146829  MISS:       5107
LLC LOAD      ACCESS:      45846  HIT:      43680  MISS:       2166
LLC RFO       ACCESS:      50669  HIT:      47728  MISS:       2941
LLC PREFETCH  ACCESS:          0  HIT:          0  MISS:          0
LLC WRITEBACK ACCESS:      55414  HIT:      55414  MISS:          0
Heartbeat CPU 0 instructions: 72000001 cycles: 27890427 heartbeat IPC: 2.50671 cumulative IPC: 1.6375 (Simulation time: 0 hr 30 min 1 sec) 

Region of Interest Statistics
cpu0_DTLB TOTAL     ACCESS:    5144621  HIT:    5073077  MISS:      71544
cpu0_DTLB LOAD      ACCESS:    4006152  HIT:    3957192  MISS:      48960
cpu0_DTLB RFO       ACCESS:    1138469  HIT:    1115885  MISS:      22584
cpu0_DTLB PREFETCH  ACCESS:          0  HIT:          0  MISS:          0
cpu0_DTLB WRITEBACK ACCESS:          0  HIT:          0  MISS:          0
cpu0_ITLB TOTAL     ACCESS:    2046896  HIT:    2046896  MISS:          0
cpu0_ITLB LOAD      ACCESS:    2046896  HIT:    2046896  MISS:          0
cpu0_ITLB RFO       ACCESS:          0  HIT:          0  MISS:          0
cpu0_ITLB PREFETCH  ACCESS:          0  HIT:          0  MISS:          0
cpu0_ITLB WRITEBACK ACCESS:          0  HIT:          0  MISS:          0
cpu0_L1I TOTAL     ACCESS:       5136  HIT:       5136  MISS:          0
cpu0_L1I LOAD      ACCESS:       5136  HIT:       5136  MISS:          0
cpu0_L1I RFO       ACCESS:          0  HIT:          0  MISS:          0
cpu0_L1I PREFETCH  ACCESS:          0  HIT:          0  MISS:          0
cpu0_L1I WRITEBACK ACCESS:          0  HIT:          0  MISS:          0
cpu0_STLB TOTAL     ACCESS:      71544  HIT:      71455  MISS:         89
cpu0_STLB LOAD      ACCESS:      48960  HIT:      48925  MISS:         35
cpu0_STLB RFO       ACCESS:      22584  HIT:      22530  MISS:         54
cpu0_STLB PREFETCH  ACCESS:          0  HIT:          0  MISS:          0
cpu0_STLB WRITEBACK ACCESS:          0  HIT:          0  MISS:          0
cpu0_L1D TOTAL     ACCESS:    5817735  HIT:    5523632  MISS:     294103
cpu0_L1D LOAD      ACCESS:    3688674  HIT:    3471020  MISS:     217654
cpu0_L1D RFO       ACCESS:    2128974  HIT:    2052571  MISS:      76403
cpu0_L1D PREFETCH  ACCESS:          0  HIT:          0  MISS:          0
cpu0_L1D WRITEBACK ACCESS:          0  HIT:          0  MISS:          0
cpu0_L2C TOTAL     ACCESS:     383260  HIT:     255157  MISS:     128103
cpu0_L2C LOAD      ACCESS:     217642  HIT:     147660  MISS:      69982
cpu0_L2C RFO       ACCESS:      76387  HIT:      18280  MISS:      58107
cpu0_L2C PREFETCH  ACCESS:          0  HIT:          0  MISS:          0
cpu0_L2C WRITEBACK ACCESS:      89185  HIT:      89179  MISS:          6
LLC TOTAL     ACCESS:     196178  HIT:     189679  MISS:       6499
LLC LOAD      ACCESS:      69981  HIT:      66785  MISS:       3196
LLC RFO       ACCESS:      58100  HIT:      54797  MISS:       3303
LLC PREFETCH  ACCESS:          0  HIT:          0  MISS:          0
LLC WRITEBACK ACCESS:      68089  HIT:      68089  MISS:          0
Heartbeat CPU 0 instructions: 74000002 cycles: 28911207 heartbeat IPC: 1.95929 cumulative IPC: 1.66023 (Simulation time: 0 hr 30 min 46 sec) 

Region of Interest Statistics
cpu0_DTLB TOTAL     ACCESS:    5577842  HIT:    5506198  MISS:      71644
cpu0_DTLB LOAD      ACCESS:    4357389  HIT:    4308330  MISS:      49059
cpu0_DTLB RFO       ACCESS:    1220453  HIT:    1197868  MISS:      22585
cpu0_DTLB PREFETCH  ACCESS:          0  HIT:          0  MISS:          0
cpu0_DTLB WRITEBACK ACCESS:          0  HIT:          0  MISS:          0
cpu0_ITLB TOTAL     ACCESS:    2216482  HIT:    2216482  MISS:          0
cpu0_ITLB LOAD      ACCESS:    2216482  HIT:    2216482  MISS:          0
cpu0_ITLB RFO       ACCESS:          0  HIT:          0  MISS:          0
cpu0_ITLB PREFETCH  ACCESS:          0  HIT:          0  MISS:          0
cpu0_ITLB WRITEBACK ACCESS:          0  HIT:          0  MISS:          0
cpu0_L1I TOTAL     ACCESS:       5227  HIT:       5227  MISS:          0
cpu0_L1I LOAD      ACCESS:       5227  HIT:       5227  MISS:          0
cpu0_L1I RFO       ACCESS:          0  HIT:          0  MISS:          0
cpu0_L1I PREFETCH  ACCESS:          0  HIT:          0  MISS:          0
cpu0_L1I WRITEBACK ACCESS:          0  HIT:          0  MISS:          0
cpu0_STLB TOTAL     ACCESS:      71644  HIT:      71555  MISS:         89
cpu0_STLB LOAD      ACCESS:      49059  HIT:      49024  MISS:         35
cpu0_STLB RFO       ACCESS:      22585  HIT:      22531  MISS:         54
cpu0_STLB PREFETCH  ACCESS:          0  HIT:          0  MISS:          0
cpu0_STLB WRITEBACK ACCESS:          0  HIT:          0  MISS:          0
cpu0_L1D TOTAL     ACCESS:    6279272  HIT:    5967928  MISS:     311344
cpu0_L1D LOAD      ACCESS:    3986708  HIT:    3751840  MISS:     234868
cpu0_L1D RFO       ACCESS:    2292477  HIT:    2216047  MISS:      76430
cpu0_L1D PREFETCH  ACCESS:          0  HIT:          0  MISS:          0
cpu0_L1D WRITEBACK ACCESS:          0  HIT:          0  MISS:          0
cpu0_L2C TOTAL     ACCESS:     402161  HIT:     271161  MISS:     131000
cpu0_L2C LOAD      ACCESS:     234856  HIT:     161977  MISS:      72879
cpu0_L2C RFO       ACCESS:      76414  HIT:      18307  MISS:      58107
cpu0_L2C PREFETCH  ACCESS:          0  HIT:          0  MISS:          0
cpu0_L2C WRITEBACK ACCESS:      90845  HIT:      90839  MISS:          6
LLC TOTAL     ACCESS:     199464  HIT:     192965  MISS:       6499
LLC LOAD      ACCESS:      72878  HIT:      69682  MISS:       3196
LLC RFO       ACCESS:      58100  HIT:      54797  MISS:       3303
LLC PREFETCH  ACCESS:          0  HIT:          0  MISS:          0
LLC WRITEBACK ACCESS:      68478  HIT:      68478  MISS:          0
Heartbeat CPU 0 instructions: 76000001 cycles: 29915281 heartbeat IPC: 1.99188 cumulative IPC: 1.68177 (Simulation time: 0 hr 31 min 30 sec) 

Region of Interest Statistics
cpu0_DTLB TOTAL     ACCESS:    6010639  HIT:    5938831  MISS:      71808
cpu0_DTLB LOAD      ACCESS:    4706494  HIT:    4657273  MISS:      49221
cpu0_DTLB RFO       ACCESS:    1304145  HIT:    1281558  MISS:      22587
cpu0_DTLB PREFETCH  ACCESS:          0  HIT:          0  MISS:          0
cpu0_DTLB WRITEBACK ACCESS:          0  HIT:          0  MISS:          0
cpu0_ITLB TOTAL     ACCESS:    2408419  HIT:    2408419  MISS:          0
cpu0_ITLB LOAD      ACCESS:    2408419  HIT:    2408419  MISS:          0
cpu0_ITLB RFO       ACCESS:          0  HIT:          0  MISS:          0
cpu0_ITLB PREFETCH  ACCESS:          0  HIT:          0  MISS:          0
cpu0_ITLB WRITEBACK ACCESS:          0  HIT:          0  MISS:          0
cpu0_L1I TOTAL     ACCESS:       5234  HIT:       5234  MISS:          0
cpu0_L1I LOAD      ACCESS:       5234  HIT:       5234  MISS:          0
cpu0_L1I RFO       ACCESS:          0  HIT:          0  MISS:          0
cpu0_L1I PREFETCH  ACCESS:          0  HIT:          0  MISS:          0
cpu0_L1I WRITEBACK ACCESS:          0  HIT:          0  MISS:          0
cpu0_STLB TOTAL     ACCESS:      71808  HIT:      71719  MISS:         89
cpu0_STLB LOAD      ACCESS:      49221  HIT:      49186  MISS:         35
cpu0_STLB RFO       ACCESS:      22587  HIT:      22533  MISS:         54
cpu0_STLB PREFETCH  ACCESS:          0  HIT:          0  MISS:          0
cpu0_STLB WRITEBACK ACCESS:          0  HIT:          0  MISS:          0
cpu0_L1D TOTAL     ACCESS:    6747650  HIT:    6412457  MISS:     335193
cpu0_L1D LOAD      ACCESS:    4284688  HIT:    4026032  MISS:     258656
cpu0_L1D RFO       ACCESS:    2462875  HIT:    2386384  MISS:      76491
cpu0_L1D PREFETCH  ACCESS:          0  HIT:          0  MISS:          0
cpu0_L1D WRITEBACK ACCESS:          0  HIT:          0  MISS:          0
cpu0_L2C TOTAL     ACCESS:     427737  HIT:     293262  MISS:     134475
cpu0_L2C LOAD      ACCESS:     258644  HIT:     182290  MISS:      76354
cpu0_L2C RFO       ACCESS:      76475  HIT:      18368  MISS:      58107
cpu0_L2C PREFETCH  ACCESS:          0  HIT:          0  MISS:          0
cpu0_L2C WRITEBACK ACCESS:      92572  HIT:      92566  MISS:          6
LLC TOTAL     ACCESS:     203278  HIT:     196779  MISS:       6499
LLC LOAD      ACCESS:      76353  HIT:      73157  MISS:       3196
LLC RFO       ACCESS:      58100  HIT:      54797  MISS:       3303
LLC PREFETCH  ACCESS:          0  HIT:          0  MISS:          0
LLC WRITEBACK ACCESS:      68817  HIT:      68817  MISS:          0
Heartbeat CPU 0 instructions: 78000002 cycles: 30871052 heartbeat IPC: 2.09255 cumulative IPC: 1.70568 (Simulation time: 0 hr 32 min 21 sec) 

Region of Interest Statistics
cpu0_DTLB TOTAL     ACCESS:    6446347  HIT:    6374136  MISS:      72211
cpu0_DTLB LOAD      ACCESS:    5057556  HIT:    5007939  MISS:      49617
cpu0_DTLB RFO       ACCESS:    1388791  HIT:    1366197  MISS:      22594
cpu0_DTLB PREFETCH  ACCESS:          0  HIT:          0  MISS:          0
cpu0_DTLB WRITEBACK ACCESS:          0  HIT:          0  MISS:          0
cpu0_ITLB TOTAL     ACCESS:    2518248  HIT:    2518248  MISS:          0
cpu0_ITLB LOAD      ACCESS:    2518248  HIT:    2518248  MISS:          0
cpu0_ITLB RFO       ACCESS:          0  HIT:          0  MISS:          0
cpu0_ITLB PREFETCH  ACCESS:          0  HIT:          0  MISS:          0
cpu0_ITLB WRITEBACK ACCESS:          0  HIT:          0  MISS:          0
cpu0_L1I TOTAL     ACCESS:       6531  HIT:       6531  MISS:          0
cpu0_L1I LOAD      ACCESS:       6531  HIT:       6531  MISS:          0
cpu0_L1I RFO       ACCESS:          0  HIT:          0  MISS:          0
cpu0_L1I PREFETCH  ACCESS:          0  HIT:          0  MISS:          0
cpu0_L1I WRITEBACK ACCESS:          0  HIT:          0  MISS:          0
cpu0_STLB TOTAL     ACCESS:      72211  HIT:      72122  MISS:         89
cpu0_STLB LOAD      ACCESS:      49617  HIT:      49582  MISS:         35
cpu0_STLB RFO       ACCESS:      22594  HIT:      22540  MISS:         54
cpu0_STLB PREFETCH  ACCESS:          0  HIT:          0  MISS:          0
cpu0_STLB WRITEBACK ACCESS:          0  HIT:          0  MISS:          0
cpu0_L1D TOTAL     ACCESS:    7190437  HIT:    6810571  MISS:     379866
cpu0_L1D LOAD      ACCESS:    4567562  HIT:    4264258  MISS:     303304
cpu0_L1D RFO       ACCESS:    2622788  HIT:    2546272  MISS:      76516
cpu0_L1D PREFETCH  ACCESS:          0  HIT:          0  MISS:          0
cpu0_L1D WRITEBACK ACCESS:          0  HIT:          0  MISS:          0
cpu0_L2C TOTAL     ACCESS:     476743  HIT:     340567  MISS:     136176
cpu0_L2C LOAD      ACCESS:     303292  HIT:     225237  MISS:      78055
cpu0_L2C RFO       ACCESS:      76500  HIT:      18393  MISS:      58107
cpu0_L2C PREFETCH  ACCESS:          0  HIT:          0  MISS:          0
cpu0_L2C WRITEBACK ACCESS:      96905  HIT:      96899  MISS:          6
LLC TOTAL     ACCESS:     205692  HIT:     199193  MISS:       6499
LLC LOAD      ACCESS:      78052  HIT:      74856  MISS:       3196
LLC RFO       ACCESS:      58100  HIT:      54797  MISS:       3303
LLC PREFETCH  ACCESS:          0  HIT:          0  MISS:          0
LLC WRITEBACK ACCESS:      69532  HIT:      69532  MISS:          0
Heartbeat CPU 0 instructions: 80000000 cycles: 32279140 heartbeat IPC: 1.42036 cumulative IPC: 1.68314 (Simulation time: 0 hr 33 min 6 sec) 

Region of Interest Statistics
cpu0_DTLB TOTAL     ACCESS:    6904622  HIT:    6831429  MISS:      73193
cpu0_DTLB LOAD      ACCESS:    5423656  HIT:    5373057  MISS:      50599
cpu0_DTLB RFO       ACCESS:    1480966  HIT:    1458372  MISS:      22594
cpu0_DTLB PREFETCH  ACCESS:          0  HIT:          0  MISS:          0
cpu0_DTLB WRITEBACK ACCESS:          0  HIT:          0  MISS:          0
cpu0_ITLB TOTAL     ACCESS:    2727548  HIT:    2727548  MISS:          0
cpu0_ITLB LOAD      ACCESS:    2727548  HIT:    2727548  MISS:          0
cpu0_ITLB RFO       ACCESS:          0  HIT:          0  MISS:          0
cpu0_ITLB PREFETCH  ACCESS:          0  HIT:          0  MISS:          0
cpu0_ITLB WRITEBACK ACCESS:          0  HIT:          0  MISS:          0
cpu0_L1I TOTAL     ACCESS:       6732  HIT:       6732  MISS:          0
cpu0_L1I LOAD      ACCESS:       6732  HIT:       6732  MISS:          0
cpu0_L1I RFO       ACCESS:          0  HIT:          0  MISS:          0
cpu0_L1I PREFETCH  ACCESS:          0  HIT:          0  MISS:          0
cpu0_L1I WRITEBACK ACCESS:          0  HIT:          0  MISS:          0
cpu0_STLB TOTAL     ACCESS:      73193  HIT:      73104  MISS:         89
cpu0_STLB LOAD      ACCESS:      50599  HIT:      50564  MISS:         35
cpu0_STLB RFO       ACCESS:      22594  HIT:      22540  MISS:         54
cpu0_STLB PREFETCH  ACCESS:          0  HIT:          0  MISS:          0
cpu0_STLB WRITEBACK ACCESS:          0  HIT:          0  MISS:          0
cpu0_L1D TOTAL     ACCESS:    7688217  HIT:    7278998  MISS:     409219
cpu0_L1D LOAD      ACCESS:    4881711  HIT:    4549054  MISS:     332657
cpu0_L1D RFO       ACCESS:    2806419  HIT:    2729903  MISS:      76516
cpu0_L1D PREFETCH  ACCESS:          0  HIT:          0  MISS:          0
cpu0_L1D WRITEBACK ACCESS:          0  HIT:          0  MISS:          0
cpu0_L2C TOTAL     ACCESS:     508634  HIT:     372232  MISS:     136402
cpu0_L2C LOAD      ACCESS:     332644  HIT:     254363  MISS:      78281
cpu0_L2C RFO       ACCESS:      76500  HIT:      18393  MISS:      58107
cpu0_L2C PREFETCH  ACCESS:          0  HIT:          0  MISS:          0
cpu0_L2C WRITEBACK ACCESS:      99444  HIT:      99438  MISS:          6
LLC TOTAL     ACCESS:     206006  HIT:     199507  MISS:       6499
LLC LOAD      ACCESS:      78278  HIT:      75082  MISS:       3196
LLC RFO       ACCESS:      58100  HIT:      54797  MISS:       3303
LLC PREFETCH  ACCESS:          0  HIT:          0  MISS:          0
LLC WRITEBACK ACCESS:      69620  HIT:      69620  MISS:          0
Heartbeat CPU 0 instructions: 82000001 cycles: 33535280 heartbeat IPC: 1.59218 cumulative IPC: 1.67715 (Simulation time: 0 hr 33 min 55 sec) 

Region of Interest Statistics
cpu0_DTLB TOTAL     ACCESS:    7360887  HIT:    7286614  MISS:      74273
cpu0_DTLB LOAD      ACCESS:    5794669  HIT:    5742990  MISS:      51679
cpu0_DTLB RFO       ACCESS:    1566218  HIT:    1543624  MISS:      22594
cpu0_DTLB PREFETCH  ACCESS:          0  HIT:          0  MISS:          0
cpu0_DTLB WRITEBACK ACCESS:          0  HIT:          0  MISS:          0
cpu0_ITLB TOTAL     ACCESS:    2929505  HIT:    2929505  MISS:          0
cpu0_ITLB LOAD      ACCESS:    2929505  HIT:    2929505  MISS:          0
cpu0_ITLB RFO       ACCESS:          0  HIT:          0  MISS:          0
cpu0_ITLB PREFETCH  ACCESS:          0  HIT:          0  MISS:          0
cpu0_ITLB WRITEBACK ACCESS:          0  HIT:          0  MISS:          0
cpu0_L1I TOTAL     ACCESS:       6754  HIT:       6754  MISS:          0
cpu0_L1I LOAD      ACCESS:       6754  HIT:       6754  MISS:          0
cpu0_L1I RFO       ACCESS:          0  HIT:          0  MISS:          0
cpu0_L1I PREFETCH  ACCESS:          0  HIT:          0  MISS:          0
cpu0_L1I WRITEBACK ACCESS:          0  HIT:          0  MISS:          0
cpu0_STLB TOTAL     ACCESS:      74273  HIT:      74184  MISS:         89
cpu0_STLB LOAD      ACCESS:      51679  HIT:      51644  MISS:         35
cpu0_STLB RFO       ACCESS:      22594  HIT:      22540  MISS:         54
cpu0_STLB PREFETCH  ACCESS:          0  HIT:          0  MISS:          0
cpu0_STLB WRITEBACK ACCESS:          0  HIT:          0  MISS:          0
cpu0_L1D TOTAL     ACCESS:    8175715  HIT:    7755418  MISS:     420297
cpu0_L1D LOAD      ACCESS:    5198147  HIT:    4854412  MISS:     343735
cpu0_L1D RFO       ACCESS:    2977481  HIT:    2900965  MISS:      76516
cpu0_L1D PREFETCH  ACCESS:          0  HIT:          0  MISS:          0
cpu0_L1D WRITEBACK ACCESS:          0  HIT:          0  MISS:          0
cpu0_L2C TOTAL     ACCESS:     520459  HIT:     383858  MISS:     136601
cpu0_L2C LOAD      ACCESS:     343722  HIT:     265242  MISS:      78480
cpu0_L2C RFO       ACCESS:      76500  HIT:      18393  MISS:      58107
cpu0_L2C PREFETCH  ACCESS:          0  HIT:          0  MISS:          0
cpu0_L2C WRITEBACK ACCESS:     100191  HIT:     100185  MISS:          6
LLC TOTAL     ACCESS:     206325  HIT:     199826  MISS:       6499
LLC LOAD      ACCESS:      78477  HIT:      75281  MISS:       3196
LLC RFO       ACCESS:      58100  HIT:      54797  MISS:       3303
LLC PREFETCH  ACCESS:          0  HIT:          0  MISS:          0
LLC WRITEBACK ACCESS:      69740  HIT:      69740  MISS:          0
Heartbeat CPU 0 instructions: 84000002 cycles: 34754177 heartbeat IPC: 1.64083 cumulative IPC: 1.67497 (Simulation time: 0 hr 34 min 46 sec) 

Region of Interest Statistics
cpu0_DTLB TOTAL     ACCESS:    7813963  HIT:    7739033  MISS:      74930
cpu0_DTLB LOAD      ACCESS:    6166407  HIT:    6114071  MISS:      52336
cpu0_DTLB RFO       ACCESS:    1647556  HIT:    1624962  MISS:      22594
cpu0_DTLB PREFETCH  ACCESS:          0  HIT:          0  MISS:          0
cpu0_DTLB WRITEBACK ACCESS:          0  HIT:          0  MISS:          0
cpu0_ITLB TOTAL     ACCESS:    3128702  HIT:    3128702  MISS:          0
cpu0_ITLB LOAD      ACCESS:    3128702  HIT:    3128702  MISS:          0
cpu0_ITLB RFO       ACCESS:          0  HIT:          0  MISS:          0
cpu0_ITLB PREFETCH  ACCESS:          0  HIT:          0  MISS:          0
cpu0_ITLB WRITEBACK ACCESS:          0  HIT:          0  MISS:          0
cpu0_L1I TOTAL     ACCESS:       6763  HIT:       6763  MISS:          0
cpu0_L1I LOAD      ACCESS:       6763  HIT:       6763  MISS:          0
cpu0_L1I RFO       ACCESS:          0  HIT:          0  MISS:          0
cpu0_L1I PREFETCH  ACCESS:          0  HIT:          0  MISS:          0
cpu0_L1I WRITEBACK ACCESS:          0  HIT:          0  MISS:          0
cpu0_STLB TOTAL     ACCESS:      74930  HIT:      74841  MISS:         89
cpu0_STLB LOAD      ACCESS:      52336  HIT:      52301  MISS:         35
cpu0_STLB RFO       ACCESS:      22594  HIT:      22540  MISS:         54
cpu0_STLB PREFETCH  ACCESS:          0  HIT:          0  MISS:          0
cpu0_STLB WRITEBACK ACCESS:          0  HIT:          0  MISS:          0
cpu0_L1D TOTAL     ACCESS:    8651860  HIT:    8225595  MISS:     426265
cpu0_L1D LOAD      ACCESS:    5510302  HIT:    5160599  MISS:     349703
cpu0_L1D RFO       ACCESS:    3141471  HIT:    3064955  MISS:      76516
cpu0_L1D PREFETCH  ACCESS:          0  HIT:          0  MISS:          0
cpu0_L1D WRITEBACK ACCESS:          0  HIT:          0  MISS:          0
cpu0_L2C TOTAL     ACCESS:     526860  HIT:     390059  MISS:     136801
cpu0_L2C LOAD      ACCESS:     349690  HIT:     271010  MISS:      78680
cpu0_L2C RFO       ACCESS:      76500  HIT:      18393  MISS:      58107
cpu0_L2C PREFETCH  ACCESS:          0  HIT:          0  MISS:          0
cpu0_L2C WRITEBACK ACCESS:     100624  HIT:     100618  MISS:          6
LLC TOTAL     ACCESS:     206637  HIT:     200138  MISS:       6499
LLC LOAD      ACCESS:      78677  HIT:      75481  MISS:       3196
LLC RFO       ACCESS:      58100  HIT:      54797  MISS:       3303
LLC PREFETCH  ACCESS:          0  HIT:          0  MISS:          0
LLC WRITEBACK ACCESS:      69852  HIT:      69852  MISS:          0
Heartbeat CPU 0 instructions: 86000002 cycles: 35941406 heartbeat IPC: 1.68459 cumulative IPC: 1.67551 (Simulation time: 0 hr 35 min 38 sec) 

Region of Interest Statistics
cpu0_DTLB TOTAL     ACCESS:    8265508  HIT:    8190136  MISS:      75372
cpu0_DTLB LOAD      ACCESS:    6539322  HIT:    6486544  MISS:      52778
cpu0_DTLB RFO       ACCESS:    1726186  HIT:    1703592  MISS:      22594
cpu0_DTLB PREFETCH  ACCESS:          0  HIT:          0  MISS:          0
cpu0_DTLB WRITEBACK ACCESS:          0  HIT:          0  MISS:          0
cpu0_ITLB TOTAL     ACCESS:    3324282  HIT:    3324282  MISS:          0
cpu0_ITLB LOAD      ACCESS:    3324282  HIT:    3324282  MISS:          0
cpu0_ITLB RFO       ACCESS:          0  HIT:          0  MISS:          0
cpu0_ITLB PREFETCH  ACCESS:          0  HIT:          0  MISS:          0
cpu0_ITLB WRITEBACK ACCESS:          0  HIT:          0  MISS:          0
cpu0_L1I TOTAL     ACCESS:       6763  HIT:       6763  MISS:          0
cpu0_L1I LOAD      ACCESS:       6763  HIT:       6763  MISS:          0
cpu0_L1I RFO       ACCESS:          0  HIT:          0  MISS:          0
cpu0_L1I PREFETCH  ACCESS:          0  HIT:          0  MISS:          0
cpu0_L1I WRITEBACK ACCESS:          0  HIT:          0  MISS:          0
cpu0_STLB TOTAL     ACCESS:      75372  HIT:      75283  MISS:         89
cpu0_STLB LOAD      ACCESS:      52778  HIT:      52743  MISS:         35
cpu0_STLB RFO       ACCESS:      22594  HIT:      22540  MISS:         54
cpu0_STLB PREFETCH  ACCESS:          0  HIT:          0  MISS:          0
cpu0_STLB WRITEBACK ACCESS:          0  HIT:          0  MISS:          0
cpu0_L1D TOTAL     ACCESS:    9114209  HIT:    8682622  MISS:     431587
cpu0_L1D LOAD      ACCESS:    5814317  HIT:    5459292  MISS:     355025
cpu0_L1D RFO       ACCESS:    3299805  HIT:    3223289  MISS:      76516
cpu0_L1D PREFETCH  ACCESS:          0  HIT:          0  MISS:          0
cpu0_L1D WRITEBACK ACCESS:          0  HIT:          0  MISS:          0
cpu0_L2C TOTAL     ACCESS:     532569  HIT:     395602  MISS:     136967
cpu0_L2C LOAD      ACCESS:     355012  HIT:     276166  MISS:      78846
cpu0_L2C RFO       ACCESS:      76500  HIT:      18393  MISS:      58107
cpu0_L2C PREFETCH  ACCESS:          0  HIT:          0  MISS:          0
cpu0_L2C WRITEBACK ACCESS:     101011  HIT:     101005  MISS:          6
LLC TOTAL     ACCESS:     206867  HIT:     200368  MISS:       6499
LLC LOAD      ACCESS:      78843  HIT:      75647  MISS:       3196
LLC RFO       ACCESS:      58100  HIT:      54797  MISS:       3303
LLC PREFETCH  ACCESS:          0  HIT:          0  MISS:          0
LLC WRITEBACK ACCESS:      69916  HIT:      69916  MISS:          0
Heartbeat CPU 0 instructions: 88000002 cycles: 37140911 heartbeat IPC: 1.66735 cumulative IPC: 1.67507 (Simulation time: 0 hr 36 min 27 sec) 

Region of Interest Statistics
cpu0_DTLB TOTAL     ACCESS:    8702143  HIT:    8626487  MISS:      75656
cpu0_DTLB LOAD      ACCESS:    6896790  HIT:    6843728  MISS:      53062
cpu0_DTLB RFO       ACCESS:    1805353  HIT:    1782759  MISS:      22594
cpu0_DTLB PREFETCH  ACCESS:          0  HIT:          0  MISS:          0
cpu0_DTLB WRITEBACK ACCESS:          0  HIT:          0  MISS:          0
cpu0_ITLB TOTAL     ACCESS:    3526067  HIT:    3526067  MISS:          0
cpu0_ITLB LOAD      ACCESS:    3526067  HIT:    3526067  MISS:          0
cpu0_ITLB RFO       ACCESS:          0  HIT:          0  MISS:          0
cpu0_ITLB PREFETCH  ACCESS:          0  HIT:          0  MISS:          0
cpu0_ITLB WRITEBACK ACCESS:          0  HIT:          0  MISS:          0
cpu0_L1I TOTAL     ACCESS:       6763  HIT:       6763  MISS:          0
cpu0_L1I LOAD      ACCESS:       6763  HIT:       6763  MISS:          0
cpu0_L1I RFO       ACCESS:          0  HIT:          0  MISS:          0
cpu0_L1I PREFETCH  ACCESS:          0  HIT:          0  MISS:          0
cpu0_L1I WRITEBACK ACCESS:          0  HIT:          0  MISS:          0
cpu0_STLB TOTAL     ACCESS:      75656  HIT:      75567  MISS:         89
cpu0_STLB LOAD      ACCESS:      53062  HIT:      53027  MISS:         35
cpu0_STLB RFO       ACCESS:      22594  HIT:      22540  MISS:         54
cpu0_STLB PREFETCH  ACCESS:          0  HIT:          0  MISS:          0
cpu0_STLB WRITEBACK ACCESS:          0  HIT:          0  MISS:          0
cpu0_L1D TOTAL     ACCESS:    9562745  HIT:    9124460  MISS:     438285
cpu0_L1D LOAD      ACCESS:    6104598  HIT:    5742875  MISS:     361723
cpu0_L1D RFO       ACCESS:    3458060  HIT:    3381544  MISS:      76516
cpu0_L1D PREFETCH  ACCESS:          0  HIT:          0  MISS:          0
cpu0_L1D WRITEBACK ACCESS:          0  HIT:          0  MISS:          0
cpu0_L2C TOTAL     ACCESS:     539741  HIT:     402469  MISS:     137272
cpu0_L2C LOAD      ACCESS:     361710  HIT:     282559  MISS:      79151
cpu0_L2C RFO       ACCESS:      76500  HIT:      18393  MISS:      58107
cpu0_L2C PREFETCH  ACCESS:          0  HIT:          0  MISS:          0
cpu0_L2C WRITEBACK ACCESS:     101485  HIT:     101479  MISS:          6
LLC TOTAL     ACCESS:     207345  HIT:     200846  MISS:       6499
LLC LOAD      ACCESS:      79148  HIT:      75952  MISS:       3196
LLC RFO       ACCESS:      58100  HIT:      54797  MISS:       3303
LLC PREFETCH  ACCESS:          0  HIT:          0  MISS:          0
LLC WRITEBACK ACCESS:      70089  HIT:      70089  MISS:          0
Heartbeat CPU 0 instructions: 90000000 cycles: 38111391 heartbeat IPC: 2.06083 cumulative IPC: 1.6909 (Simulation time: 0 hr 37 min 20 sec) 

Region of Interest Statistics
cpu0_DTLB TOTAL     ACCESS:    9148924  HIT:    9071338  MISS:      77586
cpu0_DTLB LOAD      ACCESS:    7251066  HIT:    7197287  MISS:      53779
cpu0_DTLB RFO       ACCESS:    1897858  HIT:    1874051  MISS:      23807
cpu0_DTLB PREFETCH  ACCESS:          0  HIT:          0  MISS:          0
cpu0_DTLB WRITEBACK ACCESS:          0  HIT:          0  MISS:          0
cpu0_ITLB TOTAL     ACCESS:    3689132  HIT:    3689132  MISS:          0
cpu0_ITLB LOAD      ACCESS:    3689132  HIT:    3689132  MISS:          0
cpu0_ITLB RFO       ACCESS:          0  HIT:          0  MISS:          0
cpu0_ITLB PREFETCH  ACCESS:          0  HIT:          0  MISS:          0
cpu0_ITLB WRITEBACK ACCESS:          0  HIT:          0  MISS:          0
cpu0_L1I TOTAL     ACCESS:       8494  HIT:       8494  MISS:          0
cpu0_L1I LOAD      ACCESS:       8494  HIT:       8494  MISS:          0
cpu0_L1I RFO       ACCESS:          0  HIT:          0  MISS:          0
cpu0_L1I PREFETCH  ACCESS:          0  HIT:          0  MISS:          0
cpu0_L1I WRITEBACK ACCESS:          0  HIT:          0  MISS:          0
cpu0_STLB TOTAL     ACCESS:      77586  HIT:      77467  MISS:        119
cpu0_STLB LOAD      ACCESS:      53779  HIT:      53729  MISS:         50
cpu0_STLB RFO       ACCESS:      23807  HIT:      23738  MISS:         69
cpu0_STLB PREFETCH  ACCESS:          0  HIT:          0  MISS:          0
cpu0_STLB WRITEBACK ACCESS:          0  HIT:          0  MISS:          0
cpu0_L1D TOTAL     ACCESS:    9974020  HIT:    9494500  MISS:     479520
cpu0_L1D LOAD      ACCESS:    6374306  HIT:    5986079  MISS:     388227
cpu0_L1D RFO       ACCESS:    3599598  HIT:    3508360  MISS:      91238
cpu0_L1D PREFETCH  ACCESS:          0  HIT:          0  MISS:          0
cpu0_L1D WRITEBACK ACCESS:          0  HIT:          0  MISS:          0
cpu0_L2C TOTAL     ACCESS:     597041  HIT:     430113  MISS:     166928
cpu0_L2C LOAD      ACCESS:     388214  HIT:     293941  MISS:      94273
cpu0_L2C RFO       ACCESS:      91222  HIT:      18584  MISS:      72638
cpu0_L2C PREFETCH  ACCESS:          0  HIT:          0  MISS:          0
cpu0_L2C WRITEBACK ACCESS:     117550  HIT:     117543  MISS:          7
LLC TOTAL     ACCESS:     252724  HIT:     244053  MISS:       8671
LLC LOAD      ACCESS:      94270  HIT:      89868  MISS:       4402
LLC RFO       ACCESS:      72631  HIT:      68362  MISS:       4269
LLC PREFETCH  ACCESS:          0  HIT:          0  MISS:          0
LLC WRITEBACK ACCESS:      85813  HIT:      85813  MISS:          0
Heartbeat CPU 0 instructions: 92000002 cycles: 39110709 heartbeat IPC: 2.00137 cumulative IPC: 1.70348 (Simulation time: 0 hr 38 min 4 sec) 

Region of Interest Statistics
cpu0_DTLB TOTAL     ACCESS:    9587574  HIT:    9509904  MISS:      77670
cpu0_DTLB LOAD      ACCESS:    7596617  HIT:    7542755  MISS:      53862
cpu0_DTLB RFO       ACCESS:    1990957  HIT:    1967149  MISS:      23808
cpu0_DTLB PREFETCH  ACCESS:          0  HIT:          0  MISS:          0
cpu0_DTLB WRITEBACK ACCESS:          0  HIT:          0  MISS:          0
cpu0_ITLB TOTAL     ACCESS:    3833705  HIT:    3833705  MISS:          0
cpu0_ITLB LOAD      ACCESS:    3833705  HIT:    3833705  MISS:          0
cpu0_ITLB RFO       ACCESS:          0  HIT:          0  MISS:          0
cpu0_ITLB PREFETCH  ACCESS:          0  HIT:          0  MISS:          0
cpu0_ITLB WRITEBACK ACCESS:          0  HIT:          0  MISS:          0
cpu0_L1I TOTAL     ACCESS:       8846  HIT:       8846  MISS:          0
cpu0_L1I LOAD      ACCESS:       8846  HIT:       8846  MISS:          0
cpu0_L1I RFO       ACCESS:          0  HIT:          0  MISS:          0
cpu0_L1I PREFETCH  ACCESS:          0  HIT:          0  MISS:          0
cpu0_L1I WRITEBACK ACCESS:          0  HIT:          0  MISS:          0
cpu0_STLB TOTAL     ACCESS:      77670  HIT:      77551  MISS:        119
cpu0_STLB LOAD      ACCESS:      53862  HIT:      53812  MISS:         50
cpu0_STLB RFO       ACCESS:      23808  HIT:      23739  MISS:         69
cpu0_STLB PREFETCH  ACCESS:          0  HIT:          0  MISS:          0
cpu0_STLB WRITEBACK ACCESS:          0  HIT:          0  MISS:          0
cpu0_L1D TOTAL     ACCESS:   10463758  HIT:    9969294  MISS:     494464
cpu0_L1D LOAD      ACCESS:    6677999  HIT:    6274861  MISS:     403138
cpu0_L1D RFO       ACCESS:    3785643  HIT:    3694372  MISS:      91271
cpu0_L1D PREFETCH  ACCESS:          0  HIT:          0  MISS:          0
cpu0_L1D WRITEBACK ACCESS:          0  HIT:          0  MISS:          0
cpu0_L2C TOTAL     ACCESS:     614253  HIT:     444921  MISS:     169332
cpu0_L2C LOAD      ACCESS:     403124  HIT:     306448  MISS:      96676
cpu0_L2C RFO       ACCESS:      91255  HIT:      18616  MISS:      72639
cpu0_L2C PREFETCH  ACCESS:          0  HIT:          0  MISS:          0
cpu0_L2C WRITEBACK ACCESS:     119819  HIT:     119812  MISS:          7
LLC TOTAL     ACCESS:     255533  HIT:     246862  MISS:       8671
LLC LOAD      ACCESS:      96673  HIT:      92271  MISS:       4402
LLC RFO       ACCESS:      72632  HIT:      68363  MISS:       4269
LLC PREFETCH  ACCESS:          0  HIT:          0  MISS:          0
LLC WRITEBACK ACCESS:      86218  HIT:      86218  MISS:          0
Heartbeat CPU 0 instructions: 94000000 cycles: 40054886 heartbeat IPC: 2.11824 cumulative IPC: 1.71878 (Simulation time: 0 hr 38 min 53 sec) 

Region of Interest Statistics
cpu0_DTLB TOTAL     ACCESS:   10008140  HIT:    9930207  MISS:      77933
cpu0_DTLB LOAD      ACCESS:    7935734  HIT:    7881613  MISS:      54121
cpu0_DTLB RFO       ACCESS:    2072406  HIT:    2048594  MISS:      23812
cpu0_DTLB PREFETCH  ACCESS:          0  HIT:          0  MISS:          0
cpu0_DTLB WRITEBACK ACCESS:          0  HIT:          0  MISS:          0
cpu0_ITLB TOTAL     ACCESS:    3975408  HIT:    3975408  MISS:          0
cpu0_ITLB LOAD      ACCESS:    3975408  HIT:    3975408  MISS:          0
cpu0_ITLB RFO       ACCESS:          0  HIT:          0  MISS:          0
cpu0_ITLB PREFETCH  ACCESS:          0  HIT:          0  MISS:          0
cpu0_ITLB WRITEBACK ACCESS:          0  HIT:          0  MISS:          0
cpu0_L1I TOTAL     ACCESS:      10099  HIT:      10099  MISS:          0
cpu0_L1I LOAD      ACCESS:      10099  HIT:      10099  MISS:          0
cpu0_L1I RFO       ACCESS:          0  HIT:          0  MISS:          0
cpu0_L1I PREFETCH  ACCESS:          0  HIT:          0  MISS:          0
cpu0_L1I WRITEBACK ACCESS:          0  HIT:          0  MISS:          0
cpu0_STLB TOTAL     ACCESS:      77933  HIT:      77814  MISS:        119
cpu0_STLB LOAD      ACCESS:      54121  HIT:      54071  MISS:         50
cpu0_STLB RFO       ACCESS:      23812  HIT:      23743  MISS:         69
cpu0_STLB PREFETCH  ACCESS:          0  HIT:          0  MISS:          0
cpu0_STLB WRITEBACK ACCESS:          0  HIT:          0  MISS:          0
cpu0_L1D TOTAL     ACCESS:   10926376  HIT:   10412056  MISS:     514320
cpu0_L1D LOAD      ACCESS:    6976681  HIT:    6553713  MISS:     422968
cpu0_L1D RFO       ACCESS:    3949579  HIT:    3858282  MISS:      91297
cpu0_L1D PREFETCH  ACCESS:          0  HIT:          0  MISS:          0
cpu0_L1D WRITEBACK ACCESS:          0  HIT:          0  MISS:          0
cpu0_L2C TOTAL     ACCESS:     636176  HIT:     462670  MISS:     173506
cpu0_L2C LOAD      ACCESS:     422954  HIT:     322104  MISS:     100850
cpu0_L2C RFO       ACCESS:      91281  HIT:      18642  MISS:      72639
cpu0_L2C PREFETCH  ACCESS:          0  HIT:          0  MISS:          0
cpu0_L2C WRITEBACK ACCESS:     121886  HIT:     121879  MISS:          7
LLC TOTAL     ACCESS:     260028  HIT:     251357  MISS:       8671
LLC LOAD      ACCESS:     100847  HIT:      96445  MISS:       4402
LLC RFO       ACCESS:      72632  HIT:      68363  MISS:       4269
LLC PREFETCH  ACCESS:          0  HIT:          0  MISS:          0
LLC WRITEBACK ACCESS:      86539  HIT:      86539  MISS:          0
Heartbeat CPU 0 instructions: 96000000 cycles: 41046767 heartbeat IPC: 2.01637 cumulative IPC: 1.72988 (Simulation time: 0 hr 39 min 46 sec) 

Region of Interest Statistics
cpu0_DTLB TOTAL     ACCESS:   10458520  HIT:   10380067  MISS:      78453
cpu0_DTLB LOAD      ACCESS:    8291823  HIT:    8237190  MISS:      54633
cpu0_DTLB RFO       ACCESS:    2166697  HIT:    2142877  MISS:      23820
cpu0_DTLB PREFETCH  ACCESS:          0  HIT:          0  MISS:          0
cpu0_DTLB WRITEBACK ACCESS:          0  HIT:          0  MISS:          0
cpu0_ITLB TOTAL     ACCESS:    4083603  HIT:    4083603  MISS:          0
cpu0_ITLB LOAD      ACCESS:    4083603  HIT:    4083603  MISS:          0
cpu0_ITLB RFO       ACCESS:          0  HIT:          0  MISS:          0
cpu0_ITLB PREFETCH  ACCESS:          0  HIT:          0  MISS:          0
cpu0_ITLB WRITEBACK ACCESS:          0  HIT:          0  MISS:          0
cpu0_L1I TOTAL     ACCESS:      10704  HIT:      10704  MISS:          0
cpu0_L1I LOAD      ACCESS:      10704  HIT:      10704  MISS:          0
cpu0_L1I RFO       ACCESS:          0  HIT:          0  MISS:          0
cpu0_L1I PREFETCH  ACCESS:          0  HIT:          0  MISS:          0
cpu0_L1I WRITEBACK ACCESS:          0  HIT:          0  MISS:          0
cpu0_STLB TOTAL     ACCESS:      78453  HIT:      78334  MISS:        119
cpu0_STLB LOAD      ACCESS:      54633  HIT:      54583  MISS:         50
cpu0_STLB RFO       ACCESS:      23820  HIT:      23751  MISS:         69
cpu0_STLB PREFETCH  ACCESS:          0  HIT:          0  MISS:          0
cpu0_STLB WRITEBACK ACCESS:          0  HIT:          0  MISS:          0
cpu0_L1D TOTAL     ACCESS:   11409460  HIT:   10842349  MISS:     567111
cpu0_L1D LOAD      ACCESS:    7282192  HIT:    6806459  MISS:     475733
cpu0_L1D RFO       ACCESS:    4127152  HIT:    4035829  MISS:      91323
cpu0_L1D PREFETCH  ACCESS:          0  HIT:          0  MISS:          0
cpu0_L1D WRITEBACK ACCESS:          0  HIT:          0  MISS:          0
cpu0_L2C TOTAL     ACCESS:     694110  HIT:     520603  MISS:     173507
cpu0_L2C LOAD      ACCESS:     475719  HIT:     374868  MISS:     100851
cpu0_L2C RFO       ACCESS:      91307  HIT:      18668  MISS:      72639
cpu0_L2C PREFETCH  ACCESS:          0  HIT:          0  MISS:          0
cpu0_L2C WRITEBACK ACCESS:     127029  HIT:     127022  MISS:          7
LLC TOTAL     ACCESS:     260029  HIT:     251358  MISS:       8671
LLC LOAD      ACCESS:     100848  HIT:      96446  MISS:       4402
LLC RFO       ACCESS:      72632  HIT:      68363  MISS:       4269
LLC PREFETCH  ACCESS:          0  HIT:          0  MISS:          0
LLC WRITEBACK ACCESS:      86539  HIT:      86539  MISS:          0
Heartbeat CPU 0 instructions: 98000000 cycles: 42553469 heartbeat IPC: 1.3274 cumulative IPC: 1.7083 (Simulation time: 0 hr 40 min 30 sec) 

Region of Interest Statistics
cpu0_DTLB TOTAL     ACCESS:   10951436  HIT:   10871500  MISS:      79936
cpu0_DTLB LOAD      ACCESS:    8671317  HIT:    8615201  MISS:      56116
cpu0_DTLB RFO       ACCESS:    2280119  HIT:    2256299  MISS:      23820
cpu0_DTLB PREFETCH  ACCESS:          0  HIT:          0  MISS:          0
cpu0_DTLB WRITEBACK ACCESS:          0  HIT:          0  MISS:          0
cpu0_ITLB TOTAL     ACCESS:    4311138  HIT:    4311138  MISS:          0
cpu0_ITLB LOAD      ACCESS:    4311138  HIT:    4311138  MISS:          0
cpu0_ITLB RFO       ACCESS:          0  HIT:          0  MISS:          0
cpu0_ITLB PREFETCH  ACCESS:          0  HIT:          0  MISS:          0
cpu0_ITLB WRITEBACK ACCESS:          0  HIT:          0  MISS:          0
cpu0_L1I TOTAL     ACCESS:      10803  HIT:      10803  MISS:          0
cpu0_L1I LOAD      ACCESS:      10803  HIT:      10803  MISS:          0
cpu0_L1I RFO       ACCESS:          0  HIT:          0  MISS:          0
cpu0_L1I PREFETCH  ACCESS:          0  HIT:          0  MISS:          0
cpu0_L1I WRITEBACK ACCESS:          0  HIT:          0  MISS:          0
cpu0_STLB TOTAL     ACCESS:      79936  HIT:      79817  MISS:        119
cpu0_STLB LOAD      ACCESS:      56116  HIT:      56066  MISS:         50
cpu0_STLB RFO       ACCESS:      23820  HIT:      23751  MISS:         69
cpu0_STLB PREFETCH  ACCESS:          0  HIT:          0  MISS:          0
cpu0_STLB WRITEBACK ACCESS:          0  HIT:          0  MISS:          0
cpu0_L1D TOTAL     ACCESS:   12003750  HIT:   11405680  MISS:     598070
cpu0_L1D LOAD      ACCESS:    7650263  HIT:    7143571  MISS:     506692
cpu0_L1D RFO       ACCESS:    4353371  HIT:    4262048  MISS:      91323
cpu0_L1D PREFETCH  ACCESS:          0  HIT:          0  MISS:          0
cpu0_L1D WRITEBACK ACCESS:          0  HIT:          0  MISS:          0
cpu0_L2C TOTAL     ACCESS:     727675  HIT:     554168  MISS:     173507
cpu0_L2C LOAD      ACCESS:     506677  HIT:     405826  MISS:     100851
cpu0_L2C RFO       ACCESS:      91307  HIT:      18668  MISS:      72639
cpu0_L2C PREFETCH  ACCESS:          0  HIT:          0  MISS:          0
cpu0_L2C WRITEBACK ACCESS:     129636  HIT:     129629  MISS:          7
LLC TOTAL     ACCESS:     260029  HIT:     251358  MISS:       8671
LLC LOAD      ACCESS:     100848  HIT:      96446  MISS:       4402
LLC RFO       ACCESS:      72632  HIT:      68363  MISS:       4269
LLC PREFETCH  ACCESS:          0  HIT:          0  MISS:          0
LLC WRITEBACK ACCESS:      86539  HIT:      86539  MISS:          0
Heartbeat CPU 0 instructions: 100000000 cycles: 43885131 heartbeat IPC: 1.50188 cumulative IPC: 1.69896 (Simulation time: 0 hr 41 min 17 sec) 

Region of Interest Statistics
cpu0_DTLB TOTAL     ACCESS:   11442200  HIT:   11361214  MISS:      80986
cpu0_DTLB LOAD      ACCESS:    9057969  HIT:    9000803  MISS:      57166
cpu0_DTLB RFO       ACCESS:    2384231  HIT:    2360411  MISS:      23820
cpu0_DTLB PREFETCH  ACCESS:          0  HIT:          0  MISS:          0
cpu0_DTLB WRITEBACK ACCESS:          0  HIT:          0  MISS:          0
cpu0_ITLB TOTAL     ACCESS:    4531982  HIT:    4531982  MISS:          0
cpu0_ITLB LOAD      ACCESS:    4531982  HIT:    4531982  MISS:          0
cpu0_ITLB RFO       ACCESS:          0  HIT:          0  MISS:          0
cpu0_ITLB PREFETCH  ACCESS:          0  HIT:          0  MISS:          0
cpu0_ITLB WRITEBACK ACCESS:          0  HIT:          0  MISS:          0
cpu0_L1I TOTAL     ACCESS:      10803  HIT:      10803  MISS:          0
cpu0_L1I LOAD      ACCESS:      10803  HIT:      10803  MISS:          0
cpu0_L1I RFO       ACCESS:          0  HIT:          0  MISS:          0
cpu0_L1I PREFETCH  ACCESS:          0  HIT:          0  MISS:          0
cpu0_L1I WRITEBACK ACCESS:          0  HIT:          0  MISS:          0
cpu0_STLB TOTAL     ACCESS:      80986  HIT:      80867  MISS:        119
cpu0_STLB LOAD      ACCESS:      57166  HIT:      57116  MISS:         50
cpu0_STLB RFO       ACCESS:      23820  HIT:      23751  MISS:         69
cpu0_STLB PREFETCH  ACCESS:          0  HIT:          0  MISS:          0
cpu0_STLB WRITEBACK ACCESS:          0  HIT:          0  MISS:          0
cpu0_L1D TOTAL     ACCESS:   12576110  HIT:   11969739  MISS:     606371
cpu0_L1D LOAD      ACCESS:    8012836  HIT:    7497843  MISS:     514993
cpu0_L1D RFO       ACCESS:    4563158  HIT:    4471835  MISS:      91323
cpu0_L1D PREFETCH  ACCESS:          0  HIT:          0  MISS:          0
cpu0_L1D WRITEBACK ACCESS:          0  HIT:          0  MISS:          0
cpu0_L2C TOTAL     ACCESS:     736602  HIT:     563095  MISS:     173507
cpu0_L2C LOAD      ACCESS:     514977  HIT:     414126  MISS:     100851
cpu0_L2C RFO       ACCESS:      91307  HIT:      18668  MISS:      72639
cpu0_L2C PREFETCH  ACCESS:          0  HIT:          0  MISS:          0
cpu0_L2C WRITEBACK ACCESS:     130263  HIT:     130256  MISS:          7
LLC TOTAL     ACCESS:     260029  HIT:     251358  MISS:       8671
LLC LOAD      ACCESS:     100848  HIT:      96446  MISS:       4402
LLC RFO       ACCESS:      72632  HIT:      68363  MISS:       4269
LLC PREFETCH  ACCESS:          0  HIT:          0  MISS:          0
LLC WRITEBACK ACCESS:      86539  HIT:      86539  MISS:          0
Heartbeat CPU 0 instructions: 102000000 cycles: 45180596 heartbeat IPC: 1.54385 cumulative IPC: 1.69242 (Simulation time: 0 hr 42 min 4 sec) 

Region of Interest Statistics
cpu0_DTLB TOTAL     ACCESS:   11925713  HIT:   11844204  MISS:      81509
cpu0_DTLB LOAD      ACCESS:    9442191  HIT:    9384502  MISS:      57689
cpu0_DTLB RFO       ACCESS:    2483522  HIT:    2459702  MISS:      23820
cpu0_DTLB PREFETCH  ACCESS:          0  HIT:          0  MISS:          0
cpu0_DTLB WRITEBACK ACCESS:          0  HIT:          0  MISS:          0
cpu0_ITLB TOTAL     ACCESS:    4750414  HIT:    4750414  MISS:          0
cpu0_ITLB LOAD      ACCESS:    4750414  HIT:    4750414  MISS:          0
cpu0_ITLB RFO       ACCESS:          0  HIT:          0  MISS:          0
cpu0_ITLB PREFETCH  ACCESS:          0  HIT:          0  MISS:          0
cpu0_ITLB WRITEBACK ACCESS:          0  HIT:          0  MISS:          0
cpu0_L1I TOTAL     ACCESS:      10803  HIT:      10803  MISS:          0
cpu0_L1I LOAD      ACCESS:      10803  HIT:      10803  MISS:          0
cpu0_L1I RFO       ACCESS:          0  HIT:          0  MISS:          0
cpu0_L1I PREFETCH  ACCESS:          0  HIT:          0  MISS:          0
cpu0_L1I WRITEBACK ACCESS:          0  HIT:          0  MISS:          0
cpu0_STLB TOTAL     ACCESS:      81509  HIT:      81390  MISS:        119
cpu0_STLB LOAD      ACCESS:      57689  HIT:      57639  MISS:         50
cpu0_STLB RFO       ACCESS:      23820  HIT:      23751  MISS:         69
cpu0_STLB PREFETCH  ACCESS:          0  HIT:          0  MISS:          0
cpu0_STLB WRITEBACK ACCESS:          0  HIT:          0  MISS:          0
cpu0_L1D TOTAL     ACCESS:   13132693  HIT:   12519691  MISS:     613002
cpu0_L1D LOAD      ACCESS:    8370167  HIT:    7848543  MISS:     521624
cpu0_L1D RFO       ACCESS:    4762410  HIT:    4671087  MISS:      91323
cpu0_L1D PREFETCH  ACCESS:          0  HIT:          0  MISS:          0
cpu0_L1D WRITEBACK ACCESS:          0  HIT:          0  MISS:          0
cpu0_L2C TOTAL     ACCESS:     743721  HIT:     570210  MISS:     173511
cpu0_L2C LOAD      ACCESS:     521608  HIT:     420753  MISS:     100855
cpu0_L2C RFO       ACCESS:      91307  HIT:      18668  MISS:      72639
cpu0_L2C PREFETCH  ACCESS:          0  HIT:          0  MISS:          0
cpu0_L2C WRITEBACK ACCESS:     130751  HIT:     130744  MISS:          7
LLC TOTAL     ACCESS:     260033  HIT:     251362  MISS:       8671
LLC LOAD      ACCESS:     100852  HIT:      96450  MISS:       4402
LLC RFO       ACCESS:      72632  HIT:      68363  MISS:       4269
LLC PREFETCH  ACCESS:          0  HIT:          0  MISS:          0
LLC WRITEBACK ACCESS:      86539  HIT:      86539  MISS:          0
Heartbeat CPU 0 instructions: 104000003 cycles: 46471253 heartbeat IPC: 1.5496 cumulative IPC: 1.68666 (Simulation time: 0 hr 42 min 49 sec) 

Region of Interest Statistics
cpu0_DTLB TOTAL     ACCESS:   12386239  HIT:   12304503  MISS:      81736
cpu0_DTLB LOAD      ACCESS:    9806228  HIT:    9748312  MISS:      57916
cpu0_DTLB RFO       ACCESS:    2580011  HIT:    2556191  MISS:      23820
cpu0_DTLB PREFETCH  ACCESS:          0  HIT:          0  MISS:          0
cpu0_DTLB WRITEBACK ACCESS:          0  HIT:          0  MISS:          0
cpu0_ITLB TOTAL     ACCESS:    4968655  HIT:    4968655  MISS:          0
cpu0_ITLB LOAD      ACCESS:    4968655  HIT:    4968655  MISS:          0
cpu0_ITLB RFO       ACCESS:          0  HIT:          0  MISS:          0
cpu0_ITLB PREFETCH  ACCESS:          0  HIT:          0  MISS:          0
cpu0_ITLB WRITEBACK ACCESS:          0  HIT:          0  MISS:          0
cpu0_L1I TOTAL     ACCESS:      10803  HIT:      10803  MISS:          0
cpu0_L1I LOAD      ACCESS:      10803  HIT:      10803  MISS:          0
cpu0_L1I RFO       ACCESS:          0  HIT:          0  MISS:          0
cpu0_L1I PREFETCH  ACCESS:          0  HIT:          0  MISS:          0
cpu0_L1I WRITEBACK ACCESS:          0  HIT:          0  MISS:          0
cpu0_STLB TOTAL     ACCESS:      81736  HIT:      81617  MISS:        119
cpu0_STLB LOAD      ACCESS:      57916  HIT:      57866  MISS:         50
cpu0_STLB RFO       ACCESS:      23820  HIT:      23751  MISS:         69
cpu0_STLB PREFETCH  ACCESS:          0  HIT:          0  MISS:          0
cpu0_STLB WRITEBACK ACCESS:          0  HIT:          0  MISS:          0
cpu0_L1D TOTAL     ACCESS:   13670294  HIT:   13049392  MISS:     620902
cpu0_L1D LOAD      ACCESS:    8711373  HIT:    8181849  MISS:     529524
cpu0_L1D RFO       ACCESS:    4958805  HIT:    4867482  MISS:      91323
cpu0_L1D PREFETCH  ACCESS:          0  HIT:          0  MISS:          0
cpu0_L1D WRITEBACK ACCESS:          0  HIT:          0  MISS:          0
cpu0_L2C TOTAL     ACCESS:     752201  HIT:     578682  MISS:     173519
cpu0_L2C LOAD      ACCESS:     529508  HIT:     428645  MISS:     100863
cpu0_L2C RFO       ACCESS:      91307  HIT:      18668  MISS:      72639
cpu0_L2C PREFETCH  ACCESS:          0  HIT:          0  MISS:          0
cpu0_L2C WRITEBACK ACCESS:     131331  HIT:     131324  MISS:          7
LLC TOTAL     ACCESS:     260042  HIT:     251371  MISS:       8671
LLC LOAD      ACCESS:     100860  HIT:      96458  MISS:       4402
LLC RFO       ACCESS:      72632  HIT:      68363  MISS:       4269
LLC PREFETCH  ACCESS:          0  HIT:          0  MISS:          0
LLC WRITEBACK ACCESS:      86540  HIT:      86540  MISS:          0
Heartbeat CPU 0 instructions: 106000000 cycles: 47676849 heartbeat IPC: 1.65893 cumulative IPC: 1.68566 (Simulation time: 0 hr 43 min 39 sec) 

Region of Interest Statistics
cpu0_DTLB TOTAL     ACCESS:   12864091  HIT:   12780207  MISS:      83884
cpu0_DTLB LOAD      ACCESS:   10175133  HIT:   10116316  MISS:      58817
cpu0_DTLB RFO       ACCESS:    2688958  HIT:    2663891  MISS:      25067
cpu0_DTLB PREFETCH  ACCESS:          0  HIT:          0  MISS:          0
cpu0_DTLB WRITEBACK ACCESS:          0  HIT:          0  MISS:          0
cpu0_ITLB TOTAL     ACCESS:    5120525  HIT:    5120525  MISS:          0
cpu0_ITLB LOAD      ACCESS:    5120525  HIT:    5120525  MISS:          0
cpu0_ITLB RFO       ACCESS:          0  HIT:          0  MISS:          0
cpu0_ITLB PREFETCH  ACCESS:          0  HIT:          0  MISS:          0
cpu0_ITLB WRITEBACK ACCESS:          0  HIT:          0  MISS:          0
cpu0_L1I TOTAL     ACCESS:      11359  HIT:      11359  MISS:          0
cpu0_L1I LOAD      ACCESS:      11359  HIT:      11359  MISS:          0
cpu0_L1I RFO       ACCESS:          0  HIT:          0  MISS:          0
cpu0_L1I PREFETCH  ACCESS:          0  HIT:          0  MISS:          0
cpu0_L1I WRITEBACK ACCESS:          0  HIT:          0  MISS:          0
cpu0_STLB TOTAL     ACCESS:      83884  HIT:      83734  MISS:        150
cpu0_STLB LOAD      ACCESS:      58817  HIT:      58752  MISS:         65
cpu0_STLB RFO       ACCESS:      25067  HIT:      24982  MISS:         85
cpu0_STLB PREFETCH  ACCESS:          0  HIT:          0  MISS:          0
cpu0_STLB WRITEBACK ACCESS:          0  HIT:          0  MISS:          0
cpu0_L1D TOTAL     ACCESS:   14128339  HIT:   13453640  MISS:     674699
cpu0_L1D LOAD      ACCESS:    9002827  HIT:    8434281  MISS:     568546
cpu0_L1D RFO       ACCESS:    5125366  HIT:    5019277  MISS:     106089
cpu0_L1D PREFETCH  ACCESS:          0  HIT:          0  MISS:          0
cpu0_L1D WRITEBACK ACCESS:          0  HIT:          0  MISS:          0
cpu0_L2C TOTAL     ACCESS:     823881  HIT:     616573  MISS:     207308
cpu0_L2C LOAD      ACCESS:     568529  HIT:     448521  MISS:     120008
cpu0_L2C RFO       ACCESS:     106073  HIT:      18792  MISS:      87281
cpu0_L2C PREFETCH  ACCESS:          0  HIT:          0  MISS:          0
cpu0_L2C WRITEBACK ACCESS:     149215  HIT:     149208  MISS:          7
LLC TOTAL     ACCESS:     309829  HIT:     298985  MISS:      10844
LLC LOAD      ACCESS:     120005  HIT:     114401  MISS:       5604
LLC RFO       ACCESS:      87274  HIT:      82034  MISS:       5240
LLC PREFETCH  ACCESS:          0  HIT:          0  MISS:          0
LLC WRITEBACK ACCESS:     102538  HIT:     102538  MISS:          0
[...]
cpu0_DTLB PREFETCH  REQUESTED:          0  ISSUED:          0  USEFUL:          0  USELESS:          0
cpu0_DTLB AVERAGE MISS LATENCY: 9.111 cycles
cpu0_ITLB TOTAL     ACCESS:  114888501  HIT:  114888493  MISS:          8
cpu0_ITLB LOAD      ACCESS:  114888501  HIT:  114888493  MISS:          8
cpu0_ITLB RFO       ACCESS:          0  HIT:          0  MISS:          0
cpu0_ITLB PREFETCH  ACCESS:          0  HIT:          0  MISS:          0
cpu0_ITLB WRITEBACK ACCESS:          0  HIT:          0  MISS:          0
cpu0_ITLB TRANSLATION ACCESS:          0  HIT:          0  MISS:          0
cpu0_ITLB PREFETCH  REQUESTED:          0  ISSUED:          0  USEFUL:          0  USELESS:          0
cpu0_ITLB AVERAGE MISS LATENCY: 229.25 cycles
cpu0_L1I TOTAL     ACCESS:   14471334  HIT:   14471071  MISS:        263
cpu0_L1I LOAD      ACCESS:   14471334  HIT:   14471071  MISS:        263
cpu0_L1I RFO       ACCESS:          0  HIT:          0  MISS:          0
cpu0_L1I PREFETCH  ACCESS:          0  HIT:          0  MISS:          0
cpu0_L1I WRITEBACK ACCESS:          0  HIT:          0  MISS:          0
cpu0_L1I TRANSLATION ACCESS:          0  HIT:          0  MISS:          0
cpu0_L1I PREFETCH  REQUESTED:          0  ISSUED:          0  USEFUL:          0  USELESS:          0
cpu0_L1I AVERAGE MISS LATENCY: 168.863 cycles
cpu0_STLB TOTAL     ACCESS:    4720424  HIT:    4719313  MISS:       1111
cpu0_STLB LOAD      ACCESS:    2841046  HIT:    2840151  MISS:        895
cpu0_STLB RFO       ACCESS:    1879378  HIT:    1879162  MISS:        216
cpu0_STLB PREFETCH  ACCESS:          0  HIT:          0  MISS:          0
cpu0_STLB WRITEBACK ACCESS:          0  HIT:          0  MISS:          0
cpu0_STLB TRANSLATION ACCESS:          0  HIT:          0  MISS:          0
cpu0_STLB PREFETCH  REQUESTED:          0  ISSUED:          0  USEFUL:          0  USELESS:          0
cpu0_STLB AVERAGE MISS LATENCY: 209.683 cycles
cpu0_L1D TOTAL     ACCESS:  393760103  HIT:  375077546  MISS:   18682557
cpu0_L1D LOAD      ACCESS:  234164499  HIT:  218401572  MISS:   15762927
cpu0_L1D RFO       ACCESS:  159594499  HIT:  156674996  MISS:    2919503
cpu0_L1D PREFETCH  ACCESS:          0  HIT:          0  MISS:          0
cpu0_L1D WRITEBACK ACCESS:          0  HIT:          0  MISS:          0
cpu0_L1D TRANSLATION ACCESS:       1105  HIT:        978  MISS:        127
cpu0_L1D PREFETCH  REQUESTED:          0  ISSUED:          0  USEFUL:          0  USELESS:          0
cpu0_L1D AVERAGE MISS LATENCY: 19.5782 cycles
cpu0_L2C TOTAL     ACCESS:   22874801  HIT:   15618853  MISS:    7255948
cpu0_L2C LOAD      ACCESS:   15762742  HIT:   10945544  MISS:    4817198
cpu0_L2C RFO       ACCESS:    2919284  HIT:     482773  MISS:    2436511
cpu0_L2C PREFETCH  ACCESS:          0  HIT:          0  MISS:          0
cpu0_L2C WRITEBACK ACCESS:    4192648  HIT:    4190451  MISS:       2197
cpu0_L2C TRANSLATION ACCESS:        127  HIT:         85  MISS:         42
cpu0_L2C PREFETCH  REQUESTED:          0  ISSUED:          0  USEFUL:          0  USELESS:          0
cpu0_L2C AVERAGE MISS LATENCY: 21.9456 cycles
LLC TOTAL     ACCESS:   10115490  HIT:   10039042  MISS:      76448
LLC LOAD      ACCESS:    4807630  HIT:    4748183  MISS:      59447
LLC RFO       ACCESS:    2436417  HIT:    2419617  MISS:      16800
LLC PREFETCH  ACCESS:          0  HIT:          0  MISS:          0
LLC WRITEBACK ACCESS:    2871401  HIT:    2871204  MISS:        197
LLC TRANSLATION ACCESS:         42  HIT:         38  MISS:          4
LLC PREFETCH  REQUESTED:          0  ISSUED:          0  USEFUL:          0  USELESS:          0
LLC AVERAGE MISS LATENCY: 92.8505 cycles
~~~~~~~~~~Reuse Distance Profiler output~~~~~~~~~~
0	52003968	12046768
1	39142976	18025856
2	39600272	24981104
3	34864080	25582160
4	22920528	16090352
5	18441792	12632160
6	14490592	9051248
7	13903648	8637904
8	13423504	7500272
9	12159280	8294912
10	9446832	5966656
11	10857984	4923712
12	7662128	4813216
13	17879344	9303424
14	5524192	3706640
15	4607568	2936464
16	4074048	2523056
17	3227536	1936160
18	2813120	1660784
19	2481552	1384368
20	2170128	1116912
21	1993680	1120816
22	1885120	1082768
23	1724704	845344
24	1528880	744224
25	1254176	700048
26	1052656	602784
27	1420832	833408
28	890080	509952
29	734384	420144
30	642768	385232
31	587296	368736
32	596080	376176
33	553920	365216
34	494800	329920
35	487376	295760
36	411504	290176
37	365744	263504
38	376224	276000
39	339104	263552
40	312880	231264
41	663184	336112
42	243648	197520
43	224960	184672
44	200656	171792
45	199328	173664
46	188032	168080
47	184032	164976
48	164720	149456
49	169408	153488
50	160336	144400
51	164000	138064
52	155600	145120
53	144000	134464
54	143072	129376
55	312480	236640
56	135040	127008
57	138896	125968
58	175808	160112
59	127920	121008
60	125728	119536
61	120448	113952
62	120400	113568
63	118752	111328
64	230864	215808
66	234736	216480
68	327024	312192
70	212016	202624
72	203168	192096
74	229680	202528
76	219488	199328
78	233184	207456
80	269632	223760
82	362880	326992
84	260752	241792
86	272672	247280
88	321056	294016
90	399648	367488
92	441808	415296
94	509696	482608
96	648256	554032
98	520336	483312
100	517952	477088
102	479584	441568
104	465088	427840
106	445408	409968
108	418720	387024
110	460496	429152
112	331968	304976
114	294176	270224
116	256608	233056
118	239632	210384
120	216560	186512
122	227888	185968
124	318640	262272
126	229296	160944
128	472832	259360
132	559776	235184
136	774240	305120
140	518336	200976
144	417040	197168
148	335696	190768
152	337952	248848
156	212144	162528
160	195936	156544
164	240448	221744
168	165168	143872
172	163744	139248
176	160992	139712
180	215904	195664
184	145472	125248
188	140672	119872
192	196848	173952
196	141696	117856
200	139616	109952
204	140464	107120
208	199232	163232
212	141648	102256
216	140480	96112
220	194512	149264
224	136080	95904
228	127984	92928
232	119056	88288
236	160800	135056
240	102016	82304
244	97568	84608
248	142112	132592
252	97392	88416
256	195200	169712
264	234976	206176
272	251392	219392
280	214768	179168
288	250832	219536
296	199232	178320
304	216752	191616
312	171280	136528
320	206832	160800
328	214000	156544
336	228960	146624
344	290096	188416
352	218640	156528
360	202992	174752
368	121584	112096
376	132800	127664
384	127952	124432
392	99664	95472
400	121360	116448
408	95904	89696
416	117344	112992
424	90384	87440
432	105392	102816
440	104304	102128
448	89808	86656
456	110864	108144
464	96864	93824
472	124176	120384
480	95936	92944
488	117312	114144
496	120816	117488
504	111152	104256
512	215008	209136
528	211040	194288
544	219696	210480
560	196000	189536
576	146064	141568
592	135408	131792
608	130224	127168
624	130480	127056
640	128272	124320
656	133792	130304
672	120368	114784
688	115424	110720
704	108688	105808
720	105760	102448
736	113648	110784
752	104608	101424
768	114176	111344
784	114256	111728
800	100464	97664
816	97248	92608
832	110064	107792
848	103040	101136
864	94112	92096
880	96864	94784
896	90096	87744
912	89200	87088
928	92640	90496
944	94688	91440
960	84992	81584
976	85744	83824
992	95024	93008
1008	80256	78352
1024	160320	156512
1056	146256	142320
1088	134336	128784
1120	120320	115024
1152	117920	114272
1184	113216	109824
1216	111312	105536
1248	105056	100800
1280	118960	113296
1312	108704	105664
1344	105392	99200
1376	102800	98160
1408	94544	91120
1440	91472	88336
1472	97776	93712
1504	85248	80208
1536	77184	74064
1568	75136	72528
1600	73824	70720
1632	70576	65792
1664	80512	77296
1696	105920	103056
1728	70448	66800
1760	73040	68448
1792	73920	70432
1824	66144	63280
1856	69200	64784
1888	76192	70368
1920	68528	60768
1952	69760	67072
1984	89152	85536
2016	68784	64544
2048	122464	114592
2112	149600	139904
2176	157280	118112
2240	123616	116880
2304	124096	110080
2368	131248	122416
2432	114272	105824
2496	104640	98560
2560	104192	98400
2624	115200	110816
2688	162592	156560
2752	124576	119840
2816	156096	150800
2880	161216	155264
2944	145872	140752
3008	141344	135216
3072	110496	106480
3136	128096	122432
3200	119264	115056
3264	90048	85776
3328	84240	80880
3392	72544	66416
3456	68448	62160
3520	81744	72800
3584	76800	66928
3648	72224	62496
3712	64624	57280
3776	66032	61184
3840	62256	57568
3904	59440	54544
3968	55104	50800
4032	55680	51552
4096	113728	105616
4224	114848	102128
4352	109072	102832
4480	97392	91216
4608	91088	84480
4736	84192	78512
4864	78752	73152
4992	80176	74000
5120	76384	71024
5248	74992	70032
5376	77392	72128
5504	76416	71184
5632	70928	65344
5760	70528	65392
5888	70720	65856
6016	75648	70736
6144	76848	71440
6272	76384	71808
6400	71488	66816
6528	70240	66032
6656	66416	61968
6784	62912	58512
6912	59872	56576
7040	59984	56848
7168	60240	55120
7296	56784	52640
7424	63136	59664
7552	61584	57872
7680	58912	55536
7808	59360	55504
7936	148864	142080
8064	87200	81232
8192	121520	105680
8448	105968	96992
8704	97168	89584
8960	90432	83552
9216	88160	81360
9472	88560	82352
9728	83120	76768
9984	77824	70800
10240	74032	68256
10496	73344	66144
10752	72304	64816
11008	75104	69520
11264	70560	65072
11520	70896	65200
11776	67824	61600
12032	65760	59920
12288	64864	59264
12544	66096	61456
12800	82416	60880
13056	79536	74288
13312	67984	64352
13568	66288	61104
13824	59760	56048
14080	65872	59296
14336	59920	56272
14592	57616	54080
14848	60432	57184
15104	63328	59712
15360	62176	59312
15616	59872	56800
15872	60000	57168
16128	60544	57152
16384	343152	336704
16896	106816	101392
17408	96912	91312
17920	96992	91504
18432	133184	128352
18944	235248	230544
19456	91376	86656
19968	107472	103632
20480	100288	96016
20992	143312	138576
21504	116048	111856
22016	101936	97152
22528	103664	99328
23040	148864	144656
23552	91680	88016
24064	100240	94336
24576	80096	76384
25088	87600	84576
25600	71056	67440
26112	64080	61248
26624	149344	146400
27136	231712	229024
27648	105376	102528
28160	75056	72096
28672	63920	61808
29184	65104	62544
29696	204608	202720
30208	69392	66928
30720	63056	61264
31232	58560	56800
31744	70000	67712
32256	66320	64512
32768	127312	123936
33792	134800	130608
34816	157024	153408
35840	500432	496864
36864	206512	201488
37888	417824	414816
38912	280784	277760
39936	472480	469920
40960	160880	152800
41984	142672	140480
43008	99808	97840
44032	99424	93376
45056	89920	87920
46080	96768	94832
47104	89008	86496
48128	85504	83472
49152	83920	82032
50176	79312	77552
51200	77584	75264
52224	71344	68592
53248	66192	63344
54272	63904	61408
55296	59728	57200
56320	96016	59200
57344	57376	54336
58368	57024	54272
59392	56576	52976
60416	75456	53472
61440	75136	55072
62464	66160	51456
63488	64928	51056
64512	46448	44128
65536	93744	88752
67584	106608	92224
69632	90272	84080
71680	105440	81280
73728	83888	81216
75776	111632	88368
77824	108736	95280
79872	83104	68896
81920	68416	65584
83968	84800	69056
86016	91536	64832
88064	66032	61664
90112	65664	61136
92160	62048	58000
94208	72080	51248
96256	56880	52896
98304	53104	49120
100352	54624	50048
102400	54544	49376
104448	56416	42768
106496	55904	47696
108544	63568	50208
110592	56144	50896
112640	53184	47440
114688	66144	46896
116736	50672	44096
118784	48976	41600
120832	45168	37312
122880	45984	37136
124928	39408	33136
126976	37200	33680
129024	36560	32256
131072	75712	59392
135168	67152	55920
139264	54192	50576
143360	59744	56240
147456	64400	59856
151552	73280	69600
155648	71360	54944
159744	59552	56192
163840	51824	48224
167936	48304	44048
172032	51440	47232
176128	59664	43664
180224	45952	41936
184320	47872	42896
188416	45072	39760
192512	42768	39072
196608	43440	39552
200704	48336	42896
204800	39392	37600
208896	37472	36512
212992	36400	35152
217088	40208	38608
221184	36960	35216
225280	42464	40544
229376	44944	42624
233472	42976	41744
237568	39520	36384
241664	42240	40992
245760	48800	42224
249856	40256	38976
253952	37280	35600
258048	36752	33328
262144	63808	60880
270336	54000	51872
278528	56016	53232
286720	51616	48176
294912	53328	51184
303104	46432	44144
311296	46688	44416
319488	43200	40704
327680	48832	46304
335872	44304	41936
344064	44160	41856
352256	62336	45936
360448	43968	41280
368640	54016	51744
376832	50176	43312
385024	43664	40304
393216	44128	35824
401408	41760	35920
409600	38432	35040
417792	44256	31040
425984	35680	31680
434176	35104	25088
442368	33184	28400
450560	55376	32672
458752	28832	25168
466944	29680	25744
475136	31344	26480
483328	28112	22096
491520	27984	24832
499712	29568	25760
507904	29424	23104
516096	31776	24608
524288	53904	42480
540672	71504	52224
557056	61792	43024
573440	62048	48864
589824	64976	46448
606208	64208	45168
622592	51664	36832
638976	50432	34928
655360	46992	33536
671744	48144	27712
688128	40368	27248
704512	38544	27648
720896	45232	28192
737280	39248	28864
753664	43792	33088
770048	38032	30080
786432	45072	28944
802816	32304	28096
819200	42368	29104
835584	46672	37456
851968	29056	26352
868352	29216	25376
884736	51856	31984
901120	25280	19152
917504	31568	22880
933888	51728	43424
950272	25264	22624
966656	27024	19104
983040	17712	15760
999424	26240	14160
1015808	17744	15392
1032192	30512	26016
1048576	41328	25792
1081344	31968	19664
1114112	39520	32608
1146880	30528	16560
1179648	27152	16288
1212416	45872	16656
1245184	46112	19008
1277952	46080	17648
1310720	33632	16128
1343488	44144	16912
1376256	37552	16144
1409024	39824	12464
1441792	17872	10800
1474560	53904	16512
1507328	66432	17648
1540096	35872	13280
1572864	19408	14512
1605632	22912	17648
1638400	16864	10992
1671168	12528	9344
1703936	27984	10816
1736704	16048	10064
1769472	13776	10912
1802240	14240	11264
1835008	16544	9552
1867776	14224	10368
1900544	16896	11600
1933312	19456	13264
1966080	18048	15984
1998848	19920	16944
2031616	25584	11392
2064384	11344	8864
2097152	30240	22096
2162688	30592	19152
2228224	24048	16496
2293760	19104	12480
2359296	18912	9888
2424832	15856	9408
2490368	25168	10368
2555904	19600	13600
2621440	17456	11120
2686976	20432	11424
2752512	20288	11440
2818048	15312	9664
2883584	13040	7616
2949120	11264	7296
3014656	11872	8960
3080192	15072	9712
3145728	11232	7232
3211264	13648	5312
3276800	12784	5568
3342336	9568	6352
3407872	10928	7712
3473408	9376	7088
3538944	8224	4624
3604480	5248	4080
3670016	8096	4512
3735552	12768	5440
3801088	26112	5456
3866624	32816	5184
3932160	23664	5696
3997696	20736	2736
4063232	5136	3264
4128768	4368	2944
4194304	38224	8224
4325376	25616	6256
4456448	17040	5472
4587520	25808	6704
4718592	17824	4112
4849664	7408	4176
4980736	7920	4176
5111808	23008	4880
5242880	12576	7696
5373952	23904	7872
5505024	15264	9792
5636096	34768	7888
5767168	30064	8048
5898240	16208	6672
6029312	20944	7040
6160384	12096	7344
6291456	17376	6688
6422528	15808	6560
6553600	8032	4080
6684672	14240	3040
6815744	11088	3408
6946816	11376	2448
7077888	8048	3584
7208960	8288	3424
7340032	7808	4048
7471104	5424	2384
7602176	5456	2896
7733248	5808	1952
7864320	6304	2688
7995392	3440	1888
8126464	8176	2672
8257536	5792	2416
8388608	13632	5296
8650752	12288	4848
8912896	13280	4672
9175040	9312	4096
9437184	10272	3840
9699328	8688	3232
9961472	10320	2480
10223616	11168	4656
10485760	9456	1968
10747904	8480	2016
11010048	10016	2640
11272192	8640	2784
11534336	8656	3248
11796480	7616	2576
12058624	4928	944
12320768	7312	3744
12582912	6928	4080
12845056	7600	4816
13107200	7392	4688
13369344	5424	4224
13631488	4880	3744
13893632	3456	2272
14155776	5456	2640
14417920	9344	2848
14680064	10400	2464
14942208	13040	2912
15204352	21632	2608
15466496	22304	2432
15728640	25744	1760
15990784	27104	2512
16252928	27328	848
16515072	23184	2272
16777216	40416	4864
17301504	30096	1760
17825792	21296	768
18350080	13168	2960
18874368	6816	3200
19398656	3056	1248
19922944	4912	2992
20447232	3728	2192
20971520	5488	3696
21495808	7504	5744
22020096	7696	5872
22544384	8624	5760
23068672	7056	5232
23592960	6336	4672
24117248	7216	5760
24641536	4352	3168
25165824	5248	3568
25690112	3968	3200
26214400	3296	1664
26738688	4176	2864
27262976	3232	2240
27787264	1840	1280
28311552	1760	1424
28835840	2208	1824
29360128	2400	1904
29884416	2192	1264
30408704	1776	1136
30932992	1200	1168
31457280	2000	1680
31981568	3200	2496
32505856	2576	1936
33030144	1776	1136
33554432	7536	6304
34603008	14656	12192
35651584	6688	4928
36700160	8112	7552
37748736	7280	6800
38797312	5728	5632
39845888	7328	6736
40894464	5616	3808
41943040	6224	4512
42991616	5248	5024
44040192	5328	4784
45088768	5392	3552
46137344	6848	5344
47185920	5056	2448
48234496	4800	2528
49283072	1808	1616
50331648	768	656
51380224	2272	2112
52428800	2544	2416
53477376	2320	2192
54525952	1472	1264
55574528	1344	800
56623104	992	464
57671680	2880	448
58720256	1024	272
59768832	1568	16
60817408	128	16
61865984	1376	0
62914560	544	0
63963136	96	0
65011712	16	0
66060288	96	0
67108864	144	48
69206016	1936	0
71303168	1760	0
73400320	208	0
75497472	192	0
77594624	0	0
79691776	0	0
81788928	0	0
83886080	0	0
85983232	0	0
88080384	0	0
90177536	0	0
92274688	0	0
94371840	0	0
96468992	0	0
98566144	0	0
100663296	0	0
102760448	0	0
104857600	0	0
106954752	0	0
109051904	0	0
111149056	0	0
113246208	0	0
115343360	0	0
117440512	0	0
119537664	0	0
121634816	0	0
123731968	0	0
125829120	0	0
127926272	32	0
130023424	0	0
132120576	0	0
134217728	0	0
138412032	0	0
142606336	0	0
146800640	0	0
150994944	0	0
155189248	0	0
159383552	0	0
163577856	0	0
167772160	0	0
171966464	0	0
176160768	0	0
180355072	0	0
184549376	0	0
188743680	0	0
192937984	0	0
197132288	0	0
201326592	0	0
205520896	0	0
209715200	0	0
213909504	0	0
218103808	0	0
222298112	0	0
226492416	0	0
230686720	0	0
234881024	0	0
239075328	0	0
243269632	0	0
247463936	0	0
251658240	0	0
255852544	0	0
260046848	0	0
264241152	0	0
268435456	0	0
276824064	0	0
285212672	0	0
293601280	0	0
301989888	0	0
310378496	0	0
318767104	0	0
327155712	0	0
335544320	0	0
343932928	0	0
352321536	0	0
360710144	0	0
369098752	0	0
377487360	0	0
385875968	0	0
394264576	0	0
402653184	0	0
411041792	0	0
419430400	0	0
427819008	0	0
436207616	0	0
444596224	0	0
452984832	0	0
461373440	0	0
469762048	0	0
478150656	0	0
486539264	0	0
494927872	0	0
503316480	0	0
511705088	0	0
520093696	0	0
528482304	0	0
536870912	0	0
553648128	0	0
570425344	0	0
587202560	0	0
603979776	0	0
620756992	0	0
637534208	0	0
654311424	0	0
671088640	0	0
687865856	0	0
704643072	0	0
721420288	0	0
738197504	0	0
754974720	0	0
771751936	0	0
788529152	0	0
805306368	0	0
822083584	0	0
838860800	0	0
855638016	0	0
872415232	0	0
889192448	0	0
905969664	0	0
922746880	0	0
939524096	0	0
956301312	0	0
973078528	0	0
989855744	0	0
1006632960	0	0
1023410176	0	0
1040187392	0	0
1056964608	0	0
1073741824	0	0
1107296256	0	0
1140850688	0	0
1174405120	0	0
1207959552	0	0
1241513984	0	0
1275068416	0	0
1308622848	0	0
1342177280	0	0
1375731712	0	0
1409286144	0	0
1442840576	0	0
1476395008	0	0
1509949440	0	0
1543503872	0	0
1577058304	0	0
1610612736	0	0
1644167168	0	0
1677721600	0	0
1711276032	0	0
1744830464	0	0
1778384896	0	0
1811939328	0	0
1845493760	0	0
1879048192	0	0
1912602624	0	0
1946157056	0	0
1979711488	0	0
2013265920	0	0
2046820352	0	0
2080374784	0	0
2113929216	0	0
2147483648	0	0
2214592512	0	0
2281701376	0	0
2348810240	0	0
2415919104	0	0
2483027968	0	0
2550136832	0	0
2617245696	0	0
2684354560	0	0
2751463424	0	0
2818572288	0	0
2885681152	0	0
2952790016	0	0
3019898880	0	0
3087007744	0	0
3154116608	0	0
3221225472	0	0
3288334336	0	0
3355443200	0	0
3422552064	0	0
3489660928	0	0
3556769792	0	0
3623878656	0	0
3690987520	0	0
3758096384	0	0
3825205248	0	0
3892314112	0	0
3959422976	0	0
4026531840	0	0
4093640704	0	0
4160749568	0	0
4227858432	0	0
~~~~~~~~~~Reuse Distance Profiler output end~~~~~~~~~~

Sampler size:7015

DRAM Statistics
 CHANNEL 0
 RQ ROW_BUFFER_HIT:      60526  ROW_BUFFER_MISS:      15725
 DBUS AVG_CONGESTED_CYCLE:     3.7231
 WQ ROW_BUFFER_HIT:        342  ROW_BUFFER_MISS:       1134  FULL:          0


CPU 0 Branch Prediction Accuracy: 93.4576% MPKI: 9.78123 Average ROB Occupancy at Mispredict: 49.9179
Branch type MPKI
BRANCH_DIRECT_JUMP: 2.66667e-05
BRANCH_INDIRECT: 0
BRANCH_CONDITIONAL: 9.78108
BRANCH_DIRECT_CALL: 6.06667e-05
BRANCH_INDIRECT_CALL: 0
BRANCH_RETURN: 6.2e-05

