
*** ChampSim Multicore Out-of-Order Simulator ***

Warmup Instructions: 50000000
Simulation Instructions: 1500000000
Number of CPUs: 1
Off-chip DRAM Size: 4 GiB Channels: 1 Width: 64-bit Data Rate: 3200 MT/s

VirtualMemory physical capacity: 8588881920 num_ppages: 2096895
VirtualMemory page size: 4096 log2_page_size: 12

CPU 0 runs /s/traces/champsim_traces/410.bwaves-1963B.champsimtrace.xz
CPU 0 Bimodal branch predictor
Basic BTB sets: 1024 ways: 8 indirect buffer size: 4096 RAS size: 64
Initializing LRU.
Initializing LRU.
Initializing LRU.
Initializing LRU.
Initializing rdLRU.
Initializing LRU.
Heartbeat CPU 0 instructions: 2000000 cycles: 881377 heartbeat IPC: 2.26918 cumulative IPC: 2.26918 (Simulation time: 0 hr 2 min 20 sec) 
Heartbeat CPU 0 instructions: 4000000 cycles: 1762632 heartbeat IPC: 2.26949 cumulative IPC: 2.26933 (Simulation time: 0 hr 4 min 30 sec) 
Heartbeat CPU 0 instructions: 6000000 cycles: 2643888 heartbeat IPC: 2.26949 cumulative IPC: 2.26939 (Simulation time: 0 hr 6 min 52 sec) 
Heartbeat CPU 0 instructions: 8000002 cycles: 3525137 heartbeat IPC: 2.26951 cumulative IPC: 2.26942 (Simulation time: 0 hr 9 min 7 sec) 
Heartbeat CPU 0 instructions: 10000000 cycles: 4406384 heartbeat IPC: 2.26951 cumulative IPC: 2.26943 (Simulation time: 0 hr 11 min 26 sec) 
Heartbeat CPU 0 instructions: 12000001 cycles: 5287641 heartbeat IPC: 2.26949 cumulative IPC: 2.26944 (Simulation time: 0 hr 13 min 47 sec) 
Heartbeat CPU 0 instructions: 14000004 cycles: 6168899 heartbeat IPC: 2.26949 cumulative IPC: 2.26945 (Simulation time: 0 hr 16 min 2 sec) 
Heartbeat CPU 0 instructions: 16000001 cycles: 7050156 heartbeat IPC: 2.26948 cumulative IPC: 2.26945 (Simulation time: 0 hr 18 min 23 sec) 
Heartbeat CPU 0 instructions: 18000002 cycles: 7931387 heartbeat IPC: 2.26955 cumulative IPC: 2.26946 (Simulation time: 0 hr 20 min 45 sec) 
Heartbeat CPU 0 instructions: 20000001 cycles: 8812653 heartbeat IPC: 2.26946 cumulative IPC: 2.26946 (Simulation time: 0 hr 23 min 7 sec) 
Heartbeat CPU 0 instructions: 22000000 cycles: 9693902 heartbeat IPC: 2.26951 cumulative IPC: 2.26947 (Simulation time: 0 hr 25 min 27 sec) 
Heartbeat CPU 0 instructions: 24000002 cycles: 10575152 heartbeat IPC: 2.26951 cumulative IPC: 2.26947 (Simulation time: 0 hr 27 min 48 sec) 
Heartbeat CPU 0 instructions: 26000003 cycles: 11456410 heartbeat IPC: 2.26948 cumulative IPC: 2.26947 (Simulation time: 0 hr 30 min 8 sec) 
Heartbeat CPU 0 instructions: 28000000 cycles: 12337672 heartbeat IPC: 2.26947 cumulative IPC: 2.26947 (Simulation time: 0 hr 32 min 28 sec) 
Heartbeat CPU 0 instructions: 30000000 cycles: 13218897 heartbeat IPC: 2.26957 cumulative IPC: 2.26948 (Simulation time: 0 hr 34 min 44 sec) 
Heartbeat CPU 0 instructions: 32000001 cycles: 14100147 heartbeat IPC: 2.2695 cumulative IPC: 2.26948 (Simulation time: 0 hr 37 min 0 sec) 
Heartbeat CPU 0 instructions: 34000003 cycles: 14981412 heartbeat IPC: 2.26947 cumulative IPC: 2.26948 (Simulation time: 0 hr 39 min 6 sec) 
Heartbeat CPU 0 instructions: 36000003 cycles: 15862668 heartbeat IPC: 2.26949 cumulative IPC: 2.26948 (Simulation time: 0 hr 41 min 15 sec) 
Heartbeat CPU 0 instructions: 38000002 cycles: 16743917 heartbeat IPC: 2.26951 cumulative IPC: 2.26948 (Simulation time: 0 hr 43 min 25 sec) 
Heartbeat CPU 0 instructions: 40000000 cycles: 17625169 heartbeat IPC: 2.2695 cumulative IPC: 2.26948 (Simulation time: 0 hr 45 min 35 sec) 
Heartbeat CPU 0 instructions: 42000002 cycles: 18506415 heartbeat IPC: 2.26952 cumulative IPC: 2.26948 (Simulation time: 0 hr 47 min 48 sec) 
Heartbeat CPU 0 instructions: 44000000 cycles: 19387665 heartbeat IPC: 2.2695 cumulative IPC: 2.26948 (Simulation time: 0 hr 49 min 57 sec) 
Heartbeat CPU 0 instructions: 46000004 cycles: 20268926 heartbeat IPC: 2.26948 cumulative IPC: 2.26948 (Simulation time: 0 hr 52 min 10 sec) 
Heartbeat CPU 0 instructions: 48000003 cycles: 21150173 heartbeat IPC: 2.26951 cumulative IPC: 2.26949 (Simulation time: 0 hr 54 min 19 sec) 
Heartbeat CPU 0 instructions: 50000000 cycles: 22031435 heartbeat IPC: 2.26947 cumulative IPC: 2.26948 (Simulation time: 0 hr 56 min 27 sec) 

Warmup complete CPU 0 instructions: 50000004 cycles: 22031436 (Simulation time: 0 hr 56 min 27 sec) 

Heartbeat CPU 0 instructions: 52000001 cycles: 27790695 heartbeat IPC: 0.347267 cumulative IPC: 0.347266 (Simulation time: 1 hr 1 min 51 sec) 

Region of Interest Statistics
cpu0_DTLB TOTAL     ACCESS:     698342  HIT:     696845  MISS:       1497
cpu0_DTLB LOAD      ACCESS:     643592  HIT:     642235  MISS:       1357
cpu0_DTLB RFO       ACCESS:      54750  HIT:      54610  MISS:        140
cpu0_DTLB PREFETCH  ACCESS:          0  HIT:          0  MISS:          0
cpu0_DTLB WRITEBACK ACCESS:          0  HIT:          0  MISS:          0
cpu0_ITLB TOTAL     ACCESS:     184995  HIT:     184995  MISS:          0
cpu0_ITLB LOAD      ACCESS:     184995  HIT:     184995  MISS:          0
cpu0_ITLB RFO       ACCESS:          0  HIT:          0  MISS:          0
cpu0_ITLB PREFETCH  ACCESS:          0  HIT:          0  MISS:          0
cpu0_ITLB WRITEBACK ACCESS:          0  HIT:          0  MISS:          0
cpu0_STLB TOTAL     ACCESS:       1497  HIT:        940  MISS:        557
cpu0_STLB LOAD      ACCESS:       1357  HIT:        814  MISS:        543
cpu0_STLB RFO       ACCESS:        140  HIT:        126  MISS:         14
cpu0_STLB PREFETCH  ACCESS:          0  HIT:          0  MISS:          0
cpu0_STLB WRITEBACK ACCESS:          0  HIT:          0  MISS:          0
cpu0_L1D TOTAL     ACCESS:     819777  HIT:     781146  MISS:      38631
cpu0_L1D LOAD      ACCESS:     670245  HIT:     632598  MISS:      37647
cpu0_L1D RFO       ACCESS:     148975  HIT:     148034  MISS:        941
cpu0_L1D PREFETCH  ACCESS:          0  HIT:          0  MISS:          0
cpu0_L1D WRITEBACK ACCESS:          0  HIT:          0  MISS:          0
cpu0_L2C TOTAL     ACCESS:      39575  HIT:       2868  MISS:      36707
cpu0_L2C LOAD      ACCESS:      37647  HIT:       1882  MISS:      35765
cpu0_L2C RFO       ACCESS:        941  HIT:          0  MISS:        941
cpu0_L2C PREFETCH  ACCESS:          0  HIT:          0  MISS:          0
cpu0_L2C WRITEBACK ACCESS:        944  HIT:        944  MISS:          0
LLC TOTAL     ACCESS:      37675  HIT:        968  MISS:      36707
LLC LOAD      ACCESS:      35765  HIT:          0  MISS:      35765
LLC RFO       ACCESS:        941  HIT:          0  MISS:        941
LLC PREFETCH  ACCESS:          0  HIT:          0  MISS:          0
LLC WRITEBACK ACCESS:        968  HIT:        968  MISS:          0
Heartbeat CPU 0 instructions: 54000003 cycles: 33550975 heartbeat IPC: 0.347206 cumulative IPC: 0.347236 (Simulation time: 1 hr 7 min 12 sec) 

Region of Interest Statistics
cpu0_DTLB TOTAL     ACCESS:    1397232  HIT:    1394226  MISS:       3006
cpu0_DTLB LOAD      ACCESS:    1287636  HIT:    1284907  MISS:       2729
cpu0_DTLB RFO       ACCESS:     109596  HIT:     109319  MISS:        277
cpu0_DTLB PREFETCH  ACCESS:          0  HIT:          0  MISS:          0
cpu0_DTLB WRITEBACK ACCESS:          0  HIT:          0  MISS:          0
cpu0_ITLB TOTAL     ACCESS:     370043  HIT:     370043  MISS:          0
cpu0_ITLB LOAD      ACCESS:     370043  HIT:     370043  MISS:          0
cpu0_ITLB RFO       ACCESS:          0  HIT:          0  MISS:          0
cpu0_ITLB PREFETCH  ACCESS:          0  HIT:          0  MISS:          0
cpu0_ITLB WRITEBACK ACCESS:          0  HIT:          0  MISS:          0
cpu0_STLB TOTAL     ACCESS:       3006  HIT:       1886  MISS:       1120
cpu0_STLB LOAD      ACCESS:       2729  HIT:       1638  MISS:       1091
cpu0_STLB RFO       ACCESS:        277  HIT:        248  MISS:         29
cpu0_STLB PREFETCH  ACCESS:          0  HIT:          0  MISS:          0
cpu0_STLB WRITEBACK ACCESS:          0  HIT:          0  MISS:          0
cpu0_L1D TOTAL     ACCESS:    1639734  HIT:    1562470  MISS:      77264
cpu0_L1D LOAD      ACCESS:    1340623  HIT:    1265324  MISS:      75299
cpu0_L1D RFO       ACCESS:     297991  HIT:     296109  MISS:       1882
cpu0_L1D PREFETCH  ACCESS:          0  HIT:          0  MISS:          0
cpu0_L1D WRITEBACK ACCESS:          0  HIT:          0  MISS:          0
cpu0_L2C TOTAL     ACCESS:      79153  HIT:       5740  MISS:      73413
cpu0_L2C LOAD      ACCESS:      75299  HIT:       3769  MISS:      71530
cpu0_L2C RFO       ACCESS:       1882  HIT:          0  MISS:       1882
cpu0_L2C PREFETCH  ACCESS:          0  HIT:          0  MISS:          0
cpu0_L2C WRITEBACK ACCESS:       1889  HIT:       1889  MISS:          0
LLC TOTAL     ACCESS:      75237  HIT:       1824  MISS:      73413
LLC LOAD      ACCESS:      71530  HIT:          0  MISS:      71530
LLC RFO       ACCESS:       1882  HIT:          0  MISS:       1882
LLC PREFETCH  ACCESS:          0  HIT:          0  MISS:          0
LLC WRITEBACK ACCESS:       1824  HIT:       1824  MISS:          0
Heartbeat CPU 0 instructions: 56000004 cycles: 39308159 heartbeat IPC: 0.347392 cumulative IPC: 0.347288 (Simulation time: 1 hr 12 min 40 sec) 

Region of Interest Statistics
cpu0_DTLB TOTAL     ACCESS:    2095807  HIT:    2091603  MISS:       4204
cpu0_DTLB LOAD      ACCESS:    1931443  HIT:    1927654  MISS:       3789
cpu0_DTLB RFO       ACCESS:     164364  HIT:     163949  MISS:        415
cpu0_DTLB PREFETCH  ACCESS:          0  HIT:          0  MISS:          0
cpu0_DTLB WRITEBACK ACCESS:          0  HIT:          0  MISS:          0
cpu0_ITLB TOTAL     ACCESS:     555074  HIT:     555074  MISS:          0
cpu0_ITLB LOAD      ACCESS:     555074  HIT:     555074  MISS:          0
cpu0_ITLB RFO       ACCESS:          0  HIT:          0  MISS:          0
cpu0_ITLB PREFETCH  ACCESS:          0  HIT:          0  MISS:          0
cpu0_ITLB WRITEBACK ACCESS:          0  HIT:          0  MISS:          0
cpu0_STLB TOTAL     ACCESS:       4204  HIT:       2531  MISS:       1673
cpu0_STLB LOAD      ACCESS:       3789  HIT:       2160  MISS:       1629
cpu0_STLB RFO       ACCESS:        415  HIT:        371  MISS:         44
cpu0_STLB PREFETCH  ACCESS:          0  HIT:          0  MISS:          0
cpu0_STLB WRITEBACK ACCESS:          0  HIT:          0  MISS:          0
cpu0_L1D TOTAL     ACCESS:    2459502  HIT:    2343623  MISS:     115879
cpu0_L1D LOAD      ACCESS:    2010872  HIT:    1897940  MISS:     112932
cpu0_L1D RFO       ACCESS:     446957  HIT:     444134  MISS:       2823
cpu0_L1D PREFETCH  ACCESS:          0  HIT:          0  MISS:          0
cpu0_L1D WRITEBACK ACCESS:          0  HIT:          0  MISS:          0
cpu0_L2C TOTAL     ACCESS:     118711  HIT:       8606  MISS:     110105
cpu0_L2C LOAD      ACCESS:     112932  HIT:       5651  MISS:     107281
cpu0_L2C RFO       ACCESS:       2823  HIT:          0  MISS:       2823
cpu0_L2C PREFETCH  ACCESS:          0  HIT:          0  MISS:          0
cpu0_L2C WRITEBACK ACCESS:       2832  HIT:       2832  MISS:          0
LLC TOTAL     ACCESS:     112886  HIT:       2781  MISS:     110105
LLC LOAD      ACCESS:     107281  HIT:          0  MISS:     107281
LLC RFO       ACCESS:       2823  HIT:          0  MISS:       2823
LLC PREFETCH  ACCESS:          0  HIT:          0  MISS:          0
LLC WRITEBACK ACCESS:       2781  HIT:       2781  MISS:          0
Heartbeat CPU 0 instructions: 58000003 cycles: 45066753 heartbeat IPC: 0.347307 cumulative IPC: 0.347293 (Simulation time: 1 hr 18 min 5 sec) 

Region of Interest Statistics
cpu0_DTLB TOTAL     ACCESS:    2794879  HIT:    2789180  MISS:       5699
cpu0_DTLB LOAD      ACCESS:    2575688  HIT:    2570542  MISS:       5146
cpu0_DTLB RFO       ACCESS:     219191  HIT:     218638  MISS:        553
cpu0_DTLB PREFETCH  ACCESS:          0  HIT:          0  MISS:          0
cpu0_DTLB WRITEBACK ACCESS:          0  HIT:          0  MISS:          0
cpu0_ITLB TOTAL     ACCESS:     740127  HIT:     740127  MISS:          0
cpu0_ITLB LOAD      ACCESS:     740127  HIT:     740127  MISS:          0
cpu0_ITLB RFO       ACCESS:          0  HIT:          0  MISS:          0
cpu0_ITLB PREFETCH  ACCESS:          0  HIT:          0  MISS:          0
cpu0_ITLB WRITEBACK ACCESS:          0  HIT:          0  MISS:          0
cpu0_STLB TOTAL     ACCESS:       5699  HIT:       3462  MISS:       2237
cpu0_STLB LOAD      ACCESS:       5146  HIT:       2967  MISS:       2179
cpu0_STLB RFO       ACCESS:        553  HIT:        495  MISS:         58
cpu0_STLB PREFETCH  ACCESS:          0  HIT:          0  MISS:          0
cpu0_STLB WRITEBACK ACCESS:          0  HIT:          0  MISS:          0
cpu0_L1D TOTAL     ACCESS:    3279543  HIT:    3125030  MISS:     154513
cpu0_L1D LOAD      ACCESS:    2681373  HIT:    2530789  MISS:     150584
cpu0_L1D RFO       ACCESS:     595933  HIT:     592169  MISS:       3764
cpu0_L1D PREFETCH  ACCESS:          0  HIT:          0  MISS:          0
cpu0_L1D WRITEBACK ACCESS:          0  HIT:          0  MISS:          0
cpu0_L2C TOTAL     ACCESS:     158279  HIT:      11467  MISS:     146812
cpu0_L2C LOAD      ACCESS:     150584  HIT:       7538  MISS:     143046
cpu0_L2C RFO       ACCESS:       3764  HIT:          0  MISS:       3764
cpu0_L2C PREFETCH  ACCESS:          0  HIT:          0  MISS:          0
cpu0_L2C WRITEBACK ACCESS:       3766  HIT:       3766  MISS:          0
LLC TOTAL     ACCESS:     150550  HIT:       3738  MISS:     146812
LLC LOAD      ACCESS:     143046  HIT:          0  MISS:     143046
LLC RFO       ACCESS:       3764  HIT:          0  MISS:       3764
LLC PREFETCH  ACCESS:          0  HIT:          0  MISS:          0
LLC WRITEBACK ACCESS:       3738  HIT:       3738  MISS:          0
Heartbeat CPU 0 instructions: 60000000 cycles: 50825792 heartbeat IPC: 0.34728 cumulative IPC: 0.34729 (Simulation time: 1 hr 23 min 33 sec) 

Region of Interest Statistics
cpu0_DTLB TOTAL     ACCESS:    3493394  HIT:    3486214  MISS:       7180
cpu0_DTLB LOAD      ACCESS:    3219440  HIT:    3212951  MISS:       6489
cpu0_DTLB RFO       ACCESS:     273954  HIT:     273263  MISS:        691
cpu0_DTLB PREFETCH  ACCESS:          0  HIT:          0  MISS:          0
cpu0_DTLB WRITEBACK ACCESS:          0  HIT:          0  MISS:          0
cpu0_ITLB TOTAL     ACCESS:     925171  HIT:     925171  MISS:          0
cpu0_ITLB LOAD      ACCESS:     925171  HIT:     925171  MISS:          0
cpu0_ITLB RFO       ACCESS:          0  HIT:          0  MISS:          0
cpu0_ITLB PREFETCH  ACCESS:          0  HIT:          0  MISS:          0
cpu0_ITLB WRITEBACK ACCESS:          0  HIT:          0  MISS:          0
cpu0_STLB TOTAL     ACCESS:       7180  HIT:       4384  MISS:       2796
cpu0_STLB LOAD      ACCESS:       6489  HIT:       3766  MISS:       2723
cpu0_STLB RFO       ACCESS:        691  HIT:        618  MISS:         73
cpu0_STLB PREFETCH  ACCESS:          0  HIT:          0  MISS:          0
cpu0_STLB WRITEBACK ACCESS:          0  HIT:          0  MISS:          0
cpu0_L1D TOTAL     ACCESS:    4099352  HIT:    3906207  MISS:     193145
cpu0_L1D LOAD      ACCESS:    3351644  HIT:    3163410  MISS:     188234
cpu0_L1D RFO       ACCESS:     744912  HIT:     740207  MISS:       4705
cpu0_L1D PREFETCH  ACCESS:          0  HIT:          0  MISS:          0
cpu0_L1D WRITEBACK ACCESS:          0  HIT:          0  MISS:          0
cpu0_L2C TOTAL     ACCESS:     197849  HIT:      14326  MISS:     183523
cpu0_L2C LOAD      ACCESS:     188234  HIT:       9418  MISS:     178816
cpu0_L2C RFO       ACCESS:       4705  HIT:          0  MISS:       4705
cpu0_L2C PREFETCH  ACCESS:          0  HIT:          0  MISS:          0
cpu0_L2C WRITEBACK ACCESS:       4704  HIT:       4704  MISS:          0
LLC TOTAL     ACCESS:     188195  HIT:       4675  MISS:     183520
LLC LOAD      ACCESS:     178816  HIT:          3  MISS:     178813
LLC RFO       ACCESS:       4705  HIT:          0  MISS:       4705
LLC PREFETCH  ACCESS:          0  HIT:          0  MISS:          0
LLC WRITEBACK ACCESS:       4672  HIT:       4672  MISS:          0
Heartbeat CPU 0 instructions: 62000002 cycles: 56584846 heartbeat IPC: 0.34728 cumulative IPC: 0.347288 (Simulation time: 1 hr 28 min 58 sec) 

Region of Interest Statistics
cpu0_DTLB TOTAL     ACCESS:    4191993  HIT:    4183310  MISS:       8683
cpu0_DTLB LOAD      ACCESS:    3863280  HIT:    3855429  MISS:       7851
cpu0_DTLB RFO       ACCESS:     328713  HIT:     327881  MISS:        832
cpu0_DTLB PREFETCH  ACCESS:          0  HIT:          0  MISS:          0
cpu0_DTLB WRITEBACK ACCESS:          0  HIT:          0  MISS:          0
cpu0_ITLB TOTAL     ACCESS:    1110203  HIT:    1110203  MISS:          0
cpu0_ITLB LOAD      ACCESS:    1110203  HIT:    1110203  MISS:          0
cpu0_ITLB RFO       ACCESS:          0  HIT:          0  MISS:          0
cpu0_ITLB PREFETCH  ACCESS:          0  HIT:          0  MISS:          0
cpu0_ITLB WRITEBACK ACCESS:          0  HIT:          0  MISS:          0
cpu0_STLB TOTAL     ACCESS:       8683  HIT:       5326  MISS:       3357
cpu0_STLB LOAD      ACCESS:       7851  HIT:       4582  MISS:       3269
cpu0_STLB RFO       ACCESS:        832  HIT:        744  MISS:         88
cpu0_STLB PREFETCH  ACCESS:          0  HIT:          0  MISS:          0
cpu0_STLB WRITEBACK ACCESS:          0  HIT:          0  MISS:          0
cpu0_L1D TOTAL     ACCESS:    4919176  HIT:    4687396  MISS:     231780
cpu0_L1D LOAD      ACCESS:    4021937  HIT:    3796054  MISS:     225883
cpu0_L1D RFO       ACCESS:     893882  HIT:     888235  MISS:       5647
cpu0_L1D PREFETCH  ACCESS:          0  HIT:          0  MISS:          0
cpu0_L1D WRITEBACK ACCESS:          0  HIT:          0  MISS:          0
cpu0_L2C TOTAL     ACCESS:     237429  HIT:      17198  MISS:     220231
cpu0_L2C LOAD      ACCESS:     225883  HIT:      11301  MISS:     214582
cpu0_L2C RFO       ACCESS:       5647  HIT:          0  MISS:       5647
cpu0_L2C PREFETCH  ACCESS:          0  HIT:          0  MISS:          0
cpu0_L2C WRITEBACK ACCESS:       5649  HIT:       5649  MISS:          0
LLC TOTAL     ACCESS:     225882  HIT:       5654  MISS:     220228
LLC LOAD      ACCESS:     214582  HIT:          3  MISS:     214579
LLC RFO       ACCESS:       5647  HIT:          0  MISS:       5647
LLC PREFETCH  ACCESS:          0  HIT:          0  MISS:          0
LLC WRITEBACK ACCESS:       5651  HIT:       5651  MISS:          0
Heartbeat CPU 0 instructions: 64000004 cycles: 62339820 heartbeat IPC: 0.347526 cumulative IPC: 0.347322 (Simulation time: 1 hr 34 min 21 sec) 

Region of Interest Statistics
cpu0_DTLB TOTAL     ACCESS:    4891055  HIT:    4880871  MISS:      10184
cpu0_DTLB LOAD      ACCESS:    4507514  HIT:    4498298  MISS:       9216
cpu0_DTLB RFO       ACCESS:     383541  HIT:     382573  MISS:        968
cpu0_DTLB PREFETCH  ACCESS:          0  HIT:          0  MISS:          0
cpu0_DTLB WRITEBACK ACCESS:          0  HIT:          0  MISS:          0
cpu0_ITLB TOTAL     ACCESS:    1295248  HIT:    1295248  MISS:          0
cpu0_ITLB LOAD      ACCESS:    1295248  HIT:    1295248  MISS:          0
cpu0_ITLB RFO       ACCESS:          0  HIT:          0  MISS:          0
cpu0_ITLB PREFETCH  ACCESS:          0  HIT:          0  MISS:          0
cpu0_ITLB WRITEBACK ACCESS:          0  HIT:          0  MISS:          0
cpu0_STLB TOTAL     ACCESS:      10184  HIT:       6272  MISS:       3912
cpu0_STLB LOAD      ACCESS:       9216  HIT:       5406  MISS:       3810
cpu0_STLB RFO       ACCESS:        968  HIT:        866  MISS:        102
cpu0_STLB PREFETCH  ACCESS:          0  HIT:          0  MISS:          0
cpu0_STLB WRITEBACK ACCESS:          0  HIT:          0  MISS:          0
cpu0_L1D TOTAL     ACCESS:    5739115  HIT:    5468724  MISS:     270391
cpu0_L1D LOAD      ACCESS:    4692347  HIT:    4428830  MISS:     263517
cpu0_L1D RFO       ACCESS:    1042856  HIT:    1036268  MISS:       6588
cpu0_L1D PREFETCH  ACCESS:          0  HIT:          0  MISS:          0
cpu0_L1D WRITEBACK ACCESS:          0  HIT:          0  MISS:          0
cpu0_L2C TOTAL     ACCESS:     276983  HIT:      20062  MISS:     256921
cpu0_L2C LOAD      ACCESS:     263517  HIT:      13187  MISS:     250330
cpu0_L2C RFO       ACCESS:       6588  HIT:          0  MISS:       6588
cpu0_L2C PREFETCH  ACCESS:          0  HIT:          0  MISS:          0
cpu0_L2C WRITEBACK ACCESS:       6592  HIT:       6592  MISS:          0
LLC TOTAL     ACCESS:     263484  HIT:       6566  MISS:     256918
LLC LOAD      ACCESS:     250330  HIT:          3  MISS:     250327
LLC RFO       ACCESS:       6588  HIT:          0  MISS:       6588
LLC PREFETCH  ACCESS:          0  HIT:          0  MISS:          0
LLC WRITEBACK ACCESS:       6563  HIT:       6563  MISS:          0
Heartbeat CPU 0 instructions: 66000000 cycles: 68098305 heartbeat IPC: 0.347313 cumulative IPC: 0.347321 (Simulation time: 1 hr 39 min 49 sec) 

Region of Interest Statistics
cpu0_DTLB TOTAL     ACCESS:    5589577  HIT:    5578249  MISS:      11328
cpu0_DTLB LOAD      ACCESS:    5151267  HIT:    5141045  MISS:      10222
cpu0_DTLB RFO       ACCESS:     438310  HIT:     437204  MISS:       1106
cpu0_DTLB PREFETCH  ACCESS:          0  HIT:          0  MISS:          0
cpu0_DTLB WRITEBACK ACCESS:          0  HIT:          0  MISS:          0
cpu0_ITLB TOTAL     ACCESS:    1480291  HIT:    1480291  MISS:          0
cpu0_ITLB LOAD      ACCESS:    1480291  HIT:    1480291  MISS:          0
cpu0_ITLB RFO       ACCESS:          0  HIT:          0  MISS:          0
cpu0_ITLB PREFETCH  ACCESS:          0  HIT:          0  MISS:          0
cpu0_ITLB WRITEBACK ACCESS:          0  HIT:          0  MISS:          0
cpu0_STLB TOTAL     ACCESS:      11328  HIT:       6855  MISS:       4473
cpu0_STLB LOAD      ACCESS:      10222  HIT:       5866  MISS:       4356
cpu0_STLB RFO       ACCESS:       1106  HIT:        989  MISS:        117
cpu0_STLB PREFETCH  ACCESS:          0  HIT:          0  MISS:          0
cpu0_STLB WRITEBACK ACCESS:          0  HIT:          0  MISS:          0
cpu0_L1D TOTAL     ACCESS:    6558936  HIT:    6249910  MISS:     309026
cpu0_L1D LOAD      ACCESS:    5362604  HIT:    5061437  MISS:     301167
cpu0_L1D RFO       ACCESS:    1191859  HIT:    1184330  MISS:       7529
cpu0_L1D PREFETCH  ACCESS:          0  HIT:          0  MISS:          0
cpu0_L1D WRITEBACK ACCESS:          0  HIT:          0  MISS:          0
cpu0_L2C TOTAL     ACCESS:     316562  HIT:      22933  MISS:     293629
cpu0_L2C LOAD      ACCESS:     301167  HIT:      15070  MISS:     286097
cpu0_L2C RFO       ACCESS:       7529  HIT:          0  MISS:       7529
cpu0_L2C PREFETCH  ACCESS:          0  HIT:          0  MISS:          0
cpu0_L2C WRITEBACK ACCESS:       7536  HIT:       7536  MISS:          0
LLC TOTAL     ACCESS:     301207  HIT:       7581  MISS:     293626
LLC LOAD      ACCESS:     286097  HIT:          3  MISS:     286094
LLC RFO       ACCESS:       7529  HIT:          0  MISS:       7529
LLC PREFETCH  ACCESS:          0  HIT:          0  MISS:          0
LLC WRITEBACK ACCESS:       7578  HIT:       7578  MISS:          0
Heartbeat CPU 0 instructions: 68000003 cycles: 73857820 heartbeat IPC: 0.347252 cumulative IPC: 0.347313 (Simulation time: 1 hr 45 min 13 sec) 

Region of Interest Statistics
cpu0_DTLB TOTAL     ACCESS:    6288147  HIT:    6275325  MISS:      12822
cpu0_DTLB LOAD      ACCESS:    5795075  HIT:    5783498  MISS:      11577
cpu0_DTLB RFO       ACCESS:     493072  HIT:     491827  MISS:       1245
cpu0_DTLB PREFETCH  ACCESS:          0  HIT:          0  MISS:          0
cpu0_DTLB WRITEBACK ACCESS:          0  HIT:          0  MISS:          0
cpu0_ITLB TOTAL     ACCESS:    1665339  HIT:    1665339  MISS:          0
cpu0_ITLB LOAD      ACCESS:    1665339  HIT:    1665339  MISS:          0
cpu0_ITLB RFO       ACCESS:          0  HIT:          0  MISS:          0
cpu0_ITLB PREFETCH  ACCESS:          0  HIT:          0  MISS:          0
cpu0_ITLB WRITEBACK ACCESS:          0  HIT:          0  MISS:          0
cpu0_STLB TOTAL     ACCESS:      12822  HIT:       7793  MISS:       5029
cpu0_STLB LOAD      ACCESS:      11577  HIT:       6680  MISS:       4897
cpu0_STLB RFO       ACCESS:       1245  HIT:       1113  MISS:        132
cpu0_STLB PREFETCH  ACCESS:          0  HIT:          0  MISS:          0
cpu0_STLB WRITEBACK ACCESS:          0  HIT:          0  MISS:          0
cpu0_L1D TOTAL     ACCESS:    7378817  HIT:    7031163  MISS:     347654
cpu0_L1D LOAD      ACCESS:    6032952  HIT:    5694136  MISS:     338816
cpu0_L1D RFO       ACCESS:    1340836  HIT:    1332366  MISS:       8470
cpu0_L1D PREFETCH  ACCESS:          0  HIT:          0  MISS:          0
cpu0_L1D WRITEBACK ACCESS:          0  HIT:          0  MISS:          0
cpu0_L2C TOTAL     ACCESS:     356132  HIT:      25796  MISS:     330336
cpu0_L2C LOAD      ACCESS:     338816  HIT:      16953  MISS:     321863
cpu0_L2C RFO       ACCESS:       8470  HIT:          0  MISS:       8470
cpu0_L2C PREFETCH  ACCESS:          0  HIT:          0  MISS:          0
cpu0_L2C WRITEBACK ACCESS:       8478  HIT:       8478  MISS:          0
LLC TOTAL     ACCESS:     338797  HIT:       8464  MISS:     330333
LLC LOAD      ACCESS:     321863  HIT:          3  MISS:     321860
LLC RFO       ACCESS:       8470  HIT:          0  MISS:       8470
LLC PREFETCH  ACCESS:          0  HIT:          0  MISS:          0
LLC WRITEBACK ACCESS:       8461  HIT:       8461  MISS:          0
Heartbeat CPU 0 instructions: 70000002 cycles: 79613360 heartbeat IPC: 0.347491 cumulative IPC: 0.347331 (Simulation time: 1 hr 50 min 35 sec) 

Region of Interest Statistics
cpu0_DTLB TOTAL     ACCESS:    6986997  HIT:    6972964  MISS:      14033
cpu0_DTLB LOAD      ACCESS:    6439010  HIT:    6426238  MISS:      12772
cpu0_DTLB RFO       ACCESS:     547987  HIT:     546726  MISS:       1261
cpu0_DTLB PREFETCH  ACCESS:          0  HIT:          0  MISS:          0
cpu0_DTLB WRITEBACK ACCESS:          0  HIT:          0  MISS:          0
cpu0_ITLB TOTAL     ACCESS:    1850375  HIT:    1850375  MISS:          0
cpu0_ITLB LOAD      ACCESS:    1850375  HIT:    1850375  MISS:          0
cpu0_ITLB RFO       ACCESS:          0  HIT:          0  MISS:          0
cpu0_ITLB PREFETCH  ACCESS:          0  HIT:          0  MISS:          0
cpu0_ITLB WRITEBACK ACCESS:          0  HIT:          0  MISS:          0
cpu0_STLB TOTAL     ACCESS:      14033  HIT:       8443  MISS:       5590
cpu0_STLB LOAD      ACCESS:      12772  HIT:       7329  MISS:       5443
cpu0_STLB RFO       ACCESS:       1261  HIT:       1114  MISS:        147
cpu0_STLB PREFETCH  ACCESS:          0  HIT:          0  MISS:          0
cpu0_STLB WRITEBACK ACCESS:          0  HIT:          0  MISS:          0
cpu0_L1D TOTAL     ACCESS:    8198849  HIT:    7812581  MISS:     386268
cpu0_L1D LOAD      ACCESS:    6703429  HIT:    6326984  MISS:     376445
cpu0_L1D RFO       ACCESS:    1489830  HIT:    1480419  MISS:       9411
cpu0_L1D PREFETCH  ACCESS:          0  HIT:          0  MISS:          0
cpu0_L1D WRITEBACK ACCESS:          0  HIT:          0  MISS:          0
cpu0_L2C TOTAL     ACCESS:     395677  HIT:      28656  MISS:     367021
cpu0_L2C LOAD      ACCESS:     376445  HIT:      18839  MISS:     357606
cpu0_L2C RFO       ACCESS:       9411  HIT:          0  MISS:       9411
cpu0_L2C PREFETCH  ACCESS:          0  HIT:          0  MISS:          0
cpu0_L2C WRITEBACK ACCESS:       9409  HIT:       9409  MISS:          0
LLC TOTAL     ACCESS:     376435  HIT:       9417  MISS:     367018
LLC LOAD      ACCESS:     357606  HIT:          3  MISS:     357603
LLC RFO       ACCESS:       9411  HIT:          0  MISS:       9411
LLC PREFETCH  ACCESS:          0  HIT:          0  MISS:          0
LLC WRITEBACK ACCESS:       9414  HIT:       9414  MISS:          0
Heartbeat CPU 0 instructions: 72000003 cycles: 85372283 heartbeat IPC: 0.347287 cumulative IPC: 0.347327 (Simulation time: 1 hr 56 min 1 sec) 

Region of Interest Statistics
cpu0_DTLB TOTAL     ACCESS:    7685393  HIT:    7669876  MISS:      15517
cpu0_DTLB LOAD      ACCESS:    7082639  HIT:    7068519  MISS:      14120
cpu0_DTLB RFO       ACCESS:     602754  HIT:     601357  MISS:       1397
cpu0_DTLB PREFETCH  ACCESS:          0  HIT:          0  MISS:          0
cpu0_DTLB WRITEBACK ACCESS:          0  HIT:          0  MISS:          0
cpu0_ITLB TOTAL     ACCESS:    2035429  HIT:    2035429  MISS:          0
cpu0_ITLB LOAD      ACCESS:    2035429  HIT:    2035429  MISS:          0
cpu0_ITLB RFO       ACCESS:          0  HIT:          0  MISS:          0
cpu0_ITLB PREFETCH  ACCESS:          0  HIT:          0  MISS:          0
cpu0_ITLB WRITEBACK ACCESS:          0  HIT:          0  MISS:          0
cpu0_STLB TOTAL     ACCESS:      15517  HIT:       9371  MISS:       6146
cpu0_STLB LOAD      ACCESS:      14120  HIT:       8135  MISS:       5985
cpu0_STLB RFO       ACCESS:       1397  HIT:       1236  MISS:        161
cpu0_STLB PREFETCH  ACCESS:          0  HIT:          0  MISS:          0
cpu0_STLB WRITEBACK ACCESS:          0  HIT:          0  MISS:          0
cpu0_L1D TOTAL     ACCESS:    9018677  HIT:    8593775  MISS:     424902
cpu0_L1D LOAD      ACCESS:    7373743  HIT:    6959642  MISS:     414101
cpu0_L1D RFO       ACCESS:    1638788  HIT:    1628436  MISS:      10352
cpu0_L1D PREFETCH  ACCESS:          0  HIT:          0  MISS:          0
cpu0_L1D WRITEBACK ACCESS:          0  HIT:          0  MISS:          0
cpu0_L2C TOTAL     ACCESS:     435254  HIT:      31517  MISS:     403737
cpu0_L2C LOAD      ACCESS:     414101  HIT:      20722  MISS:     393379
cpu0_L2C RFO       ACCESS:      10352  HIT:          0  MISS:      10352
cpu0_L2C PREFETCH  ACCESS:          0  HIT:          0  MISS:          0
cpu0_L2C WRITEBACK ACCESS:      10352  HIT:      10352  MISS:          0
LLC TOTAL     ACCESS:     414115  HIT:      10381  MISS:     403734
LLC LOAD      ACCESS:     393379  HIT:          3  MISS:     393376
LLC RFO       ACCESS:      10352  HIT:          0  MISS:      10352
LLC PREFETCH  ACCESS:          0  HIT:          0  MISS:          0
LLC WRITEBACK ACCESS:      10378  HIT:      10378  MISS:          0
Heartbeat CPU 0 instructions: 74000002 cycles: 91130466 heartbeat IPC: 0.347332 cumulative IPC: 0.347328 (Simulation time: 2 hr 1 min 28 sec) 

Region of Interest Statistics
cpu0_DTLB TOTAL     ACCESS:    8383913  HIT:    8366897  MISS:      17016
cpu0_DTLB LOAD      ACCESS:    7726398  HIT:    7710920  MISS:      15478
cpu0_DTLB RFO       ACCESS:     657515  HIT:     655977  MISS:       1538
cpu0_DTLB PREFETCH  ACCESS:          0  HIT:          0  MISS:          0
cpu0_DTLB WRITEBACK ACCESS:          0  HIT:          0  MISS:          0
cpu0_ITLB TOTAL     ACCESS:    2220457  HIT:    2220457  MISS:          0
cpu0_ITLB LOAD      ACCESS:    2220457  HIT:    2220457  MISS:          0
cpu0_ITLB RFO       ACCESS:          0  HIT:          0  MISS:          0
cpu0_ITLB PREFETCH  ACCESS:          0  HIT:          0  MISS:          0
cpu0_ITLB WRITEBACK ACCESS:          0  HIT:          0  MISS:          0
cpu0_STLB TOTAL     ACCESS:      17016  HIT:      10311  MISS:       6705
cpu0_STLB LOAD      ACCESS:      15478  HIT:       8949  MISS:       6529
cpu0_STLB RFO       ACCESS:       1538  HIT:       1362  MISS:        176
cpu0_STLB PREFETCH  ACCESS:          0  HIT:          0  MISS:          0
cpu0_STLB WRITEBACK ACCESS:          0  HIT:          0  MISS:          0
cpu0_L1D TOTAL     ACCESS:    9838387  HIT:    9374853  MISS:     463534
cpu0_L1D LOAD      ACCESS:    8043922  HIT:    7592174  MISS:     451748
cpu0_L1D RFO       ACCESS:    1787760  HIT:    1776467  MISS:      11293
cpu0_L1D PREFETCH  ACCESS:          0  HIT:          0  MISS:          0
cpu0_L1D WRITEBACK ACCESS:          0  HIT:          0  MISS:          0
cpu0_L2C TOTAL     ACCESS:     474830  HIT:      34387  MISS:     440443
cpu0_L2C LOAD      ACCESS:     451748  HIT:      22604  MISS:     429144
cpu0_L2C RFO       ACCESS:      11293  HIT:          0  MISS:      11293
cpu0_L2C PREFETCH  ACCESS:          0  HIT:          0  MISS:          0
cpu0_L2C WRITEBACK ACCESS:      11296  HIT:      11296  MISS:          0
LLC TOTAL     ACCESS:     451672  HIT:      11232  MISS:     440440
LLC LOAD      ACCESS:     429144  HIT:          3  MISS:     429141
LLC RFO       ACCESS:      11293  HIT:          0  MISS:      11293
LLC PREFETCH  ACCESS:          0  HIT:          0  MISS:          0
LLC WRITEBACK ACCESS:      11229  HIT:      11229  MISS:          0
Heartbeat CPU 0 instructions: 76000001 cycles: 96889488 heartbeat IPC: 0.347281 cumulative IPC: 0.347324 (Simulation time: 2 hr 6 min 53 sec) 

Region of Interest Statistics
cpu0_DTLB TOTAL     ACCESS:    9082867  HIT:    9064343  MISS:      18524
cpu0_DTLB LOAD      ACCESS:    8370513  HIT:    8353664  MISS:      16849
cpu0_DTLB RFO       ACCESS:     712354  HIT:     710679  MISS:       1675
cpu0_DTLB PREFETCH  ACCESS:          0  HIT:          0  MISS:          0
cpu0_DTLB WRITEBACK ACCESS:          0  HIT:          0  MISS:          0
cpu0_ITLB TOTAL     ACCESS:    2405507  HIT:    2405507  MISS:          0
cpu0_ITLB LOAD      ACCESS:    2405507  HIT:    2405507  MISS:          0
cpu0_ITLB RFO       ACCESS:          0  HIT:          0  MISS:          0
cpu0_ITLB PREFETCH  ACCESS:          0  HIT:          0  MISS:          0
cpu0_ITLB WRITEBACK ACCESS:          0  HIT:          0  MISS:          0
cpu0_STLB TOTAL     ACCESS:      18524  HIT:      11260  MISS:       7264
cpu0_STLB LOAD      ACCESS:      16849  HIT:       9776  MISS:       7073
cpu0_STLB RFO       ACCESS:       1675  HIT:       1484  MISS:        191
cpu0_STLB PREFETCH  ACCESS:          0  HIT:          0  MISS:          0
cpu0_STLB WRITEBACK ACCESS:          0  HIT:          0  MISS:          0
cpu0_L1D TOTAL     ACCESS:   10658341  HIT:   10156176  MISS:     502165
cpu0_L1D LOAD      ACCESS:    8714319  HIT:    8224919  MISS:     489400
cpu0_L1D RFO       ACCESS:    1936758  HIT:    1924524  MISS:      12234
cpu0_L1D PREFETCH  ACCESS:          0  HIT:          0  MISS:          0
cpu0_L1D WRITEBACK ACCESS:          0  HIT:          0  MISS:          0
cpu0_L2C TOTAL     ACCESS:     514405  HIT:      37256  MISS:     477149
cpu0_L2C LOAD      ACCESS:     489400  HIT:      24491  MISS:     464909
cpu0_L2C RFO       ACCESS:      12234  HIT:          0  MISS:      12234
cpu0_L2C PREFETCH  ACCESS:          0  HIT:          0  MISS:          0
cpu0_L2C WRITEBACK ACCESS:      12240  HIT:      12240  MISS:          0
LLC TOTAL     ACCESS:     489434  HIT:      12288  MISS:     477146
LLC LOAD      ACCESS:     464909  HIT:          3  MISS:     464906
LLC RFO       ACCESS:      12234  HIT:          0  MISS:      12234
LLC PREFETCH  ACCESS:          0  HIT:          0  MISS:          0
LLC WRITEBACK ACCESS:      12285  HIT:      12285  MISS:          0
Heartbeat CPU 0 instructions: 78000002 cycles: 102646163 heartbeat IPC: 0.347423 cumulative IPC: 0.347331 (Simulation time: 2 hr 12 min 16 sec) 

Region of Interest Statistics
cpu0_DTLB TOTAL     ACCESS:    9781150  HIT:    9761137  MISS:      20013
cpu0_DTLB LOAD      ACCESS:    9014024  HIT:    8995823  MISS:      18201
cpu0_DTLB RFO       ACCESS:     767126  HIT:     765314  MISS:       1812
cpu0_DTLB PREFETCH  ACCESS:          0  HIT:          0  MISS:          0
cpu0_DTLB WRITEBACK ACCESS:          0  HIT:          0  MISS:          0
cpu0_ITLB TOTAL     ACCESS:    2590527  HIT:    2590527  MISS:          0
cpu0_ITLB LOAD      ACCESS:    2590527  HIT:    2590527  MISS:          0
cpu0_ITLB RFO       ACCESS:          0  HIT:          0  MISS:          0
cpu0_ITLB PREFETCH  ACCESS:          0  HIT:          0  MISS:          0
cpu0_ITLB WRITEBACK ACCESS:          0  HIT:          0  MISS:          0
cpu0_STLB TOTAL     ACCESS:      20013  HIT:      12193  MISS:       7820
cpu0_STLB LOAD      ACCESS:      18201  HIT:      10586  MISS:       7615
cpu0_STLB RFO       ACCESS:       1812  HIT:       1607  MISS:        205
cpu0_STLB PREFETCH  ACCESS:          0  HIT:          0  MISS:          0
cpu0_STLB WRITEBACK ACCESS:          0  HIT:          0  MISS:          0
cpu0_L1D TOTAL     ACCESS:   11478105  HIT:   10937330  MISS:     540775
cpu0_L1D LOAD      ACCESS:    9384558  HIT:    8857532  MISS:     527026
cpu0_L1D RFO       ACCESS:    2085727  HIT:    2072552  MISS:      13175
cpu0_L1D PREFETCH  ACCESS:          0  HIT:          0  MISS:          0
cpu0_L1D WRITEBACK ACCESS:          0  HIT:          0  MISS:          0
cpu0_L2C TOTAL     ACCESS:     553959  HIT:      40125  MISS:     513834
cpu0_L2C LOAD      ACCESS:     527026  HIT:      26373  MISS:     500653
cpu0_L2C RFO       ACCESS:      13175  HIT:          0  MISS:      13175
cpu0_L2C PREFETCH  ACCESS:          0  HIT:          0  MISS:          0
cpu0_L2C WRITEBACK ACCESS:      13184  HIT:      13184  MISS:          0
LLC TOTAL     ACCESS:     527018  HIT:      13187  MISS:     513831
LLC LOAD      ACCESS:     500653  HIT:          3  MISS:     500650
LLC RFO       ACCESS:      13175  HIT:          0  MISS:      13175
LLC PREFETCH  ACCESS:          0  HIT:          0  MISS:          0
LLC WRITEBACK ACCESS:      13184  HIT:      13184  MISS:          0
Heartbeat CPU 0 instructions: 80000002 cycles: 108406125 heartbeat IPC: 0.347225 cumulative IPC: 0.347324 (Simulation time: 2 hr 17 min 41 sec) 

Region of Interest Statistics
cpu0_DTLB TOTAL     ACCESS:   10479785  HIT:   10458572  MISS:      21213
cpu0_DTLB LOAD      ACCESS:    9657895  HIT:    9638633  MISS:      19262
cpu0_DTLB RFO       ACCESS:     821890  HIT:     819939  MISS:       1951
cpu0_DTLB PREFETCH  ACCESS:          0  HIT:          0  MISS:          0
cpu0_DTLB WRITEBACK ACCESS:          0  HIT:          0  MISS:          0
cpu0_ITLB TOTAL     ACCESS:    2775574  HIT:    2775574  MISS:          0
cpu0_ITLB LOAD      ACCESS:    2775574  HIT:    2775574  MISS:          0
cpu0_ITLB RFO       ACCESS:          0  HIT:          0  MISS:          0
cpu0_ITLB PREFETCH  ACCESS:          0  HIT:          0  MISS:          0
cpu0_ITLB WRITEBACK ACCESS:          0  HIT:          0  MISS:          0
cpu0_STLB TOTAL     ACCESS:      21213  HIT:      12829  MISS:       8384
cpu0_STLB LOAD      ACCESS:      19262  HIT:      11098  MISS:       8164
cpu0_STLB RFO       ACCESS:       1951  HIT:       1731  MISS:        220
cpu0_STLB PREFETCH  ACCESS:          0  HIT:          0  MISS:          0
cpu0_STLB WRITEBACK ACCESS:          0  HIT:          0  MISS:          0
cpu0_L1D TOTAL     ACCESS:   12298028  HIT:   11718623  MISS:     579405
cpu0_L1D LOAD      ACCESS:   10054936  HIT:    9490263  MISS:     564673
cpu0_L1D RFO       ACCESS:    2234708  HIT:    2220592  MISS:      14116
cpu0_L1D PREFETCH  ACCESS:          0  HIT:          0  MISS:          0
cpu0_L1D WRITEBACK ACCESS:          0  HIT:          0  MISS:          0
cpu0_L2C TOTAL     ACCESS:     593522  HIT:      42981  MISS:     550541
cpu0_L2C LOAD      ACCESS:     564673  HIT:      28255  MISS:     536418
cpu0_L2C RFO       ACCESS:      14116  HIT:          0  MISS:      14116
cpu0_L2C PREFETCH  ACCESS:          0  HIT:          0  MISS:          0
cpu0_L2C WRITEBACK ACCESS:      14117  HIT:      14117  MISS:          0
LLC TOTAL     ACCESS:     564685  HIT:      14147  MISS:     550538
LLC LOAD      ACCESS:     536418  HIT:          3  MISS:     536415
LLC RFO       ACCESS:      14116  HIT:          0  MISS:      14116
LLC PREFETCH  ACCESS:          0  HIT:          0  MISS:          0
LLC WRITEBACK ACCESS:      14144  HIT:      14144  MISS:          0
Heartbeat CPU 0 instructions: 82000002 cycles: 114167007 heartbeat IPC: 0.347169 cumulative IPC: 0.347314 (Simulation time: 2 hr 22 min 58 sec) 

Region of Interest Statistics
cpu0_DTLB TOTAL     ACCESS:   11179060  HIT:   11156372  MISS:      22688
cpu0_DTLB LOAD      ACCESS:   10302342  HIT:   10281743  MISS:      20599
cpu0_DTLB RFO       ACCESS:     876718  HIT:     874629  MISS:       2089
cpu0_DTLB PREFETCH  ACCESS:          0  HIT:          0  MISS:          0
cpu0_DTLB WRITEBACK ACCESS:          0  HIT:          0  MISS:          0
cpu0_ITLB TOTAL     ACCESS:    2960624  HIT:    2960624  MISS:          0
cpu0_ITLB LOAD      ACCESS:    2960624  HIT:    2960624  MISS:          0
cpu0_ITLB RFO       ACCESS:          0  HIT:          0  MISS:          0
cpu0_ITLB PREFETCH  ACCESS:          0  HIT:          0  MISS:          0
cpu0_ITLB WRITEBACK ACCESS:          0  HIT:          0  MISS:          0
cpu0_STLB TOTAL     ACCESS:      22688  HIT:      13752  MISS:       8936
cpu0_STLB LOAD      ACCESS:      20599  HIT:      11898  MISS:       8701
cpu0_STLB RFO       ACCESS:       2089  HIT:       1854  MISS:        235
cpu0_STLB PREFETCH  ACCESS:          0  HIT:          0  MISS:          0
cpu0_STLB WRITEBACK ACCESS:          0  HIT:          0  MISS:          0
cpu0_L1D TOTAL     ACCESS:   13118022  HIT:   12499983  MISS:     618039
cpu0_L1D LOAD      ACCESS:   10725392  HIT:   10123067  MISS:     602325
cpu0_L1D RFO       ACCESS:    2383694  HIT:    2368637  MISS:      15057
cpu0_L1D PREFETCH  ACCESS:          0  HIT:          0  MISS:          0
cpu0_L1D WRITEBACK ACCESS:          0  HIT:          0  MISS:          0
cpu0_L2C TOTAL     ACCESS:     633095  HIT:      45848  MISS:     587247
cpu0_L2C LOAD      ACCESS:     602325  HIT:      30142  MISS:     572183
cpu0_L2C RFO       ACCESS:      15057  HIT:          0  MISS:      15057
cpu0_L2C PREFETCH  ACCESS:          0  HIT:          0  MISS:          0
cpu0_L2C WRITEBACK ACCESS:      15056  HIT:      15056  MISS:          0
LLC TOTAL     ACCESS:     602332  HIT:      15088  MISS:     587244
LLC LOAD      ACCESS:     572183  HIT:          3  MISS:     572180
LLC RFO       ACCESS:      15057  HIT:          0  MISS:      15057
LLC PREFETCH  ACCESS:          0  HIT:          0  MISS:          0
LLC WRITEBACK ACCESS:      15085  HIT:      15085  MISS:          0
Heartbeat CPU 0 instructions: 84000000 cycles: 119923873 heartbeat IPC: 0.347411 cumulative IPC: 0.34732 (Simulation time: 2 hr 28 min 23 sec) 

Region of Interest Statistics
cpu0_DTLB TOTAL     ACCESS:   11877509  HIT:   11853314  MISS:      24195
cpu0_DTLB LOAD      ACCESS:   10946028  HIT:   10924063  MISS:      21965
cpu0_DTLB RFO       ACCESS:     931481  HIT:     929251  MISS:       2230
cpu0_DTLB PREFETCH  ACCESS:          0  HIT:          0  MISS:          0
cpu0_DTLB WRITEBACK ACCESS:          0  HIT:          0  MISS:          0
cpu0_ITLB TOTAL     ACCESS:    3145666  HIT:    3145666  MISS:          0
cpu0_ITLB LOAD      ACCESS:    3145666  HIT:    3145666  MISS:          0
cpu0_ITLB RFO       ACCESS:          0  HIT:          0  MISS:          0
cpu0_ITLB PREFETCH  ACCESS:          0  HIT:          0  MISS:          0
cpu0_ITLB WRITEBACK ACCESS:          0  HIT:          0  MISS:          0
cpu0_STLB TOTAL     ACCESS:      24195  HIT:      14694  MISS:       9501
cpu0_STLB LOAD      ACCESS:      21965  HIT:      12714  MISS:       9251
cpu0_STLB RFO       ACCESS:       2230  HIT:       1980  MISS:        250
cpu0_STLB PREFETCH  ACCESS:          0  HIT:          0  MISS:          0
cpu0_STLB WRITEBACK ACCESS:          0  HIT:          0  MISS:          0
cpu0_L1D TOTAL     ACCESS:   13937826  HIT:   13281158  MISS:     656668
cpu0_L1D LOAD      ACCESS:   11395648  HIT:   10755677  MISS:     639971
cpu0_L1D RFO       ACCESS:    2532677  HIT:    2516678  MISS:      15999
cpu0_L1D PREFETCH  ACCESS:          0  HIT:          0  MISS:          0
cpu0_L1D WRITEBACK ACCESS:          0  HIT:          0  MISS:          0
cpu0_L2C TOTAL     ACCESS:     672668  HIT:      48715  MISS:     623953
cpu0_L2C LOAD      ACCESS:     639971  HIT:      32024  MISS:     607947
cpu0_L2C RFO       ACCESS:      15999  HIT:          0  MISS:      15999
cpu0_L2C PREFETCH  ACCESS:          0  HIT:          0  MISS:          0
cpu0_L2C WRITEBACK ACCESS:      16000  HIT:      16000  MISS:          0
LLC TOTAL     ACCESS:     639955  HIT:      16005  MISS:     623950
LLC LOAD      ACCESS:     607947  HIT:          3  MISS:     607944
LLC RFO       ACCESS:      15999  HIT:          0  MISS:      15999
LLC PREFETCH  ACCESS:          0  HIT:          0  MISS:          0
LLC WRITEBACK ACCESS:      16002  HIT:      16002  MISS:          0
Heartbeat CPU 0 instructions: 86000002 cycles: 125679880 heartbeat IPC: 0.347463 cumulative IPC: 0.347328 (Simulation time: 2 hr 33 min 46 sec) 

Region of Interest Statistics
cpu0_DTLB TOTAL     ACCESS:   12576526  HIT:   12550832  MISS:      25694
cpu0_DTLB LOAD      ACCESS:   11590223  HIT:   11566895  MISS:      23328
cpu0_DTLB RFO       ACCESS:     986303  HIT:     983937  MISS:       2366
cpu0_DTLB PREFETCH  ACCESS:          0  HIT:          0  MISS:          0
cpu0_DTLB WRITEBACK ACCESS:          0  HIT:          0  MISS:          0
cpu0_ITLB TOTAL     ACCESS:    3330701  HIT:    3330701  MISS:          0
cpu0_ITLB LOAD      ACCESS:    3330701  HIT:    3330701  MISS:          0
cpu0_ITLB RFO       ACCESS:          0  HIT:          0  MISS:          0
cpu0_ITLB PREFETCH  ACCESS:          0  HIT:          0  MISS:          0
cpu0_ITLB WRITEBACK ACCESS:          0  HIT:          0  MISS:          0
cpu0_STLB TOTAL     ACCESS:      25694  HIT:      15642  MISS:      10052
cpu0_STLB LOAD      ACCESS:      23328  HIT:      13540  MISS:       9788
cpu0_STLB RFO       ACCESS:       2366  HIT:       2102  MISS:        264
cpu0_STLB PREFETCH  ACCESS:          0  HIT:          0  MISS:          0
cpu0_STLB WRITEBACK ACCESS:          0  HIT:          0  MISS:          0
cpu0_L1D TOTAL     ACCESS:   14757700  HIT:   14062417  MISS:     695283
cpu0_L1D LOAD      ACCESS:   12066002  HIT:   11388395  MISS:     677607
cpu0_L1D RFO       ACCESS:    2681646  HIT:    2664707  MISS:      16939
cpu0_L1D PREFETCH  ACCESS:          0  HIT:          0  MISS:          0
cpu0_L1D WRITEBACK ACCESS:          0  HIT:          0  MISS:          0
cpu0_L2C TOTAL     ACCESS:     712227  HIT:      51581  MISS:     660646
cpu0_L2C LOAD      ACCESS:     677607  HIT:      33907  MISS:     643700
cpu0_L2C RFO       ACCESS:      16939  HIT:          0  MISS:      16939
cpu0_L2C PREFETCH  ACCESS:          0  HIT:          0  MISS:          0
cpu0_L2C WRITEBACK ACCESS:      16944  HIT:      16944  MISS:          0
LLC TOTAL     ACCESS:     677587  HIT:      16944  MISS:     660643
LLC LOAD      ACCESS:     643700  HIT:          3  MISS:     643697
LLC RFO       ACCESS:      16939  HIT:          0  MISS:      16939
LLC PREFETCH  ACCESS:          0  HIT:          0  MISS:          0
LLC WRITEBACK ACCESS:      16941  HIT:      16941  MISS:          0
Heartbeat CPU 0 instructions: 88000003 cycles: 131440006 heartbeat IPC: 0.347215 cumulative IPC: 0.347322 (Simulation time: 2 hr 39 min 12 sec) 

Region of Interest Statistics
cpu0_DTLB TOTAL     ACCESS:   13275108  HIT:   13247912  MISS:      27196
cpu0_DTLB LOAD      ACCESS:   12234022  HIT:   12209330  MISS:      24692
cpu0_DTLB RFO       ACCESS:    1041086  HIT:    1038582  MISS:       2504
cpu0_DTLB PREFETCH  ACCESS:          0  HIT:          0  MISS:          0
cpu0_DTLB WRITEBACK ACCESS:          0  HIT:          0  MISS:          0
cpu0_ITLB TOTAL     ACCESS:    3515745  HIT:    3515745  MISS:          0
cpu0_ITLB LOAD      ACCESS:    3515745  HIT:    3515745  MISS:          0
cpu0_ITLB RFO       ACCESS:          0  HIT:          0  MISS:          0
cpu0_ITLB PREFETCH  ACCESS:          0  HIT:          0  MISS:          0
cpu0_ITLB WRITEBACK ACCESS:          0  HIT:          0  MISS:          0
cpu0_STLB TOTAL     ACCESS:      27196  HIT:      16576  MISS:      10620
cpu0_STLB LOAD      ACCESS:      24692  HIT:      14351  MISS:      10341
cpu0_STLB RFO       ACCESS:       2504  HIT:       2225  MISS:        279
cpu0_STLB PREFETCH  ACCESS:          0  HIT:          0  MISS:          0
cpu0_STLB WRITEBACK ACCESS:          0  HIT:          0  MISS:          0
cpu0_L1D TOTAL     ACCESS:   15577553  HIT:   14843633  MISS:     733920
cpu0_L1D LOAD      ACCESS:   12736309  HIT:   12021052  MISS:     715257
cpu0_L1D RFO       ACCESS:    2830624  HIT:    2812743  MISS:      17881
cpu0_L1D PREFETCH  ACCESS:          0  HIT:          0  MISS:          0
cpu0_L1D WRITEBACK ACCESS:          0  HIT:          0  MISS:          0
cpu0_L2C TOTAL     ACCESS:     751808  HIT:      54453  MISS:     697355
cpu0_L2C LOAD      ACCESS:     715257  HIT:      35791  MISS:     679466
cpu0_L2C RFO       ACCESS:      17881  HIT:          0  MISS:      17881
cpu0_L2C PREFETCH  ACCESS:          0  HIT:          0  MISS:          0
cpu0_L2C WRITEBACK ACCESS:      17888  HIT:      17888  MISS:          0
LLC TOTAL     ACCESS:     715275  HIT:      17923  MISS:     697352
LLC LOAD      ACCESS:     679466  HIT:          3  MISS:     679463
LLC RFO       ACCESS:      17881  HIT:          0  MISS:      17881
LLC PREFETCH  ACCESS:          0  HIT:          0  MISS:          0
LLC WRITEBACK ACCESS:      17920  HIT:      17920  MISS:          0
Heartbeat CPU 0 instructions: 90000000 cycles: 137201021 heartbeat IPC: 0.347161 cumulative IPC: 0.347314 (Simulation time: 2 hr 44 min 31 sec) 

Region of Interest Statistics
cpu0_DTLB TOTAL     ACCESS:   13973708  HIT:   13945375  MISS:      28333
cpu0_DTLB LOAD      ACCESS:   12877860  HIT:   12852170  MISS:      25690
cpu0_DTLB RFO       ACCESS:    1095848  HIT:    1093205  MISS:       2643
cpu0_DTLB PREFETCH  ACCESS:          0  HIT:          0  MISS:          0
cpu0_DTLB WRITEBACK ACCESS:          0  HIT:          0  MISS:          0
cpu0_ITLB TOTAL     ACCESS:    3700787  HIT:    3700787  MISS:          0
cpu0_ITLB LOAD      ACCESS:    3700787  HIT:    3700787  MISS:          0
cpu0_ITLB RFO       ACCESS:          0  HIT:          0  MISS:          0
cpu0_ITLB PREFETCH  ACCESS:          0  HIT:          0  MISS:          0
cpu0_ITLB WRITEBACK ACCESS:          0  HIT:          0  MISS:          0
cpu0_STLB TOTAL     ACCESS:      28333  HIT:      17164  MISS:      11169
cpu0_STLB LOAD      ACCESS:      25690  HIT:      14815  MISS:      10875
cpu0_STLB RFO       ACCESS:       2643  HIT:       2349  MISS:        294
cpu0_STLB PREFETCH  ACCESS:          0  HIT:          0  MISS:          0
cpu0_STLB WRITEBACK ACCESS:          0  HIT:          0  MISS:          0
cpu0_L1D TOTAL     ACCESS:   16397390  HIT:   15624842  MISS:     772548
cpu0_L1D LOAD      ACCESS:   13406595  HIT:   12653689  MISS:     752906
cpu0_L1D RFO       ACCESS:    2979626  HIT:    2960804  MISS:      18822
cpu0_L1D PREFETCH  ACCESS:          0  HIT:          0  MISS:          0
cpu0_L1D WRITEBACK ACCESS:          0  HIT:          0  MISS:          0
cpu0_L2C TOTAL     ACCESS:     791377  HIT:      57314  MISS:     734063
cpu0_L2C LOAD      ACCESS:     752906  HIT:      37674  MISS:     715232
cpu0_L2C RFO       ACCESS:      18822  HIT:          0  MISS:      18822
cpu0_L2C PREFETCH  ACCESS:          0  HIT:          0  MISS:          0
cpu0_L2C WRITEBACK ACCESS:      18829  HIT:      18829  MISS:          0
LLC TOTAL     ACCESS:     752879  HIT:      18819  MISS:     734060
LLC LOAD      ACCESS:     715232  HIT:          3  MISS:     715229
LLC RFO       ACCESS:      18822  HIT:          0  MISS:      18822
LLC PREFETCH  ACCESS:          0  HIT:          0  MISS:          0
LLC WRITEBACK ACCESS:      18816  HIT:      18816  MISS:          0
Heartbeat CPU 0 instructions: 92000004 cycles: 142956081 heartbeat IPC: 0.347521 cumulative IPC: 0.347324 (Simulation time: 2 hr 49 min 54 sec) 

Region of Interest Statistics
cpu0_DTLB TOTAL     ACCESS:   14672095  HIT:   14642268  MISS:      29827
cpu0_DTLB LOAD      ACCESS:   13521413  HIT:   13494366  MISS:      27047
cpu0_DTLB RFO       ACCESS:    1150682  HIT:    1147902  MISS:       2780
cpu0_DTLB PREFETCH  ACCESS:          0  HIT:          0  MISS:          0
cpu0_DTLB WRITEBACK ACCESS:          0  HIT:          0  MISS:          0
cpu0_ITLB TOTAL     ACCESS:    3885830  HIT:    3885830  MISS:          0
cpu0_ITLB LOAD      ACCESS:    3885830  HIT:    3885830  MISS:          0
cpu0_ITLB RFO       ACCESS:          0  HIT:          0  MISS:          0
cpu0_ITLB PREFETCH  ACCESS:          0  HIT:          0  MISS:          0
cpu0_ITLB WRITEBACK ACCESS:          0  HIT:          0  MISS:          0
cpu0_STLB TOTAL     ACCESS:      29827  HIT:      18090  MISS:      11737
cpu0_STLB LOAD      ACCESS:      27047  HIT:      15618  MISS:      11429
cpu0_STLB RFO       ACCESS:       2780  HIT:       2472  MISS:        308
cpu0_STLB PREFETCH  ACCESS:          0  HIT:          0  MISS:          0
cpu0_STLB WRITEBACK ACCESS:          0  HIT:          0  MISS:          0
cpu0_L1D TOTAL     ACCESS:   17217400  HIT:   16406235  MISS:     811165
cpu0_L1D LOAD      ACCESS:   14077055  HIT:   13286516  MISS:     790539
cpu0_L1D RFO       ACCESS:    3128608  HIT:    3108845  MISS:      19763
cpu0_L1D PREFETCH  ACCESS:          0  HIT:          0  MISS:          0
cpu0_L1D WRITEBACK ACCESS:          0  HIT:          0  MISS:          0
cpu0_L2C TOTAL     ACCESS:     830925  HIT:      60173  MISS:     770752
cpu0_L2C LOAD      ACCESS:     790539  HIT:      39559  MISS:     750980
cpu0_L2C RFO       ACCESS:      19763  HIT:          0  MISS:      19763
cpu0_L2C PREFETCH  ACCESS:          0  HIT:          0  MISS:          0
cpu0_L2C WRITEBACK ACCESS:      19760  HIT:      19760  MISS:          0
LLC TOTAL     ACCESS:     790509  HIT:      19760  MISS:     770749
LLC LOAD      ACCESS:     750980  HIT:          3  MISS:     750977
LLC RFO       ACCESS:      19763  HIT:          0  MISS:      19763
LLC PREFETCH  ACCESS:          0  HIT:          0  MISS:          0
LLC WRITEBACK ACCESS:      19757  HIT:      19757  MISS:          0
Heartbeat CPU 0 instructions: 94000001 cycles: 148715887 heartbeat IPC: 0.347233 cumulative IPC: 0.34732 (Simulation time: 2 hr 55 min 25 sec) 

Region of Interest Statistics
cpu0_DTLB TOTAL     ACCESS:   15370901  HIT:   15339870  MISS:      31031
cpu0_DTLB LOAD      ACCESS:   14165374  HIT:   14137138  MISS:      28236
cpu0_DTLB RFO       ACCESS:    1205527  HIT:    1202732  MISS:       2795
cpu0_DTLB PREFETCH  ACCESS:          0  HIT:          0  MISS:          0
cpu0_DTLB WRITEBACK ACCESS:          0  HIT:          0  MISS:          0
cpu0_ITLB TOTAL     ACCESS:    4070875  HIT:    4070875  MISS:          0
cpu0_ITLB LOAD      ACCESS:    4070875  HIT:    4070875  MISS:          0
cpu0_ITLB RFO       ACCESS:          0  HIT:          0  MISS:          0
cpu0_ITLB PREFETCH  ACCESS:          0  HIT:          0  MISS:          0
cpu0_ITLB WRITEBACK ACCESS:          0  HIT:          0  MISS:          0
cpu0_STLB TOTAL     ACCESS:      31031  HIT:      18745  MISS:      12286
cpu0_STLB LOAD      ACCESS:      28236  HIT:      16273  MISS:      11963
cpu0_STLB RFO       ACCESS:       2795  HIT:       2472  MISS:        323
cpu0_STLB PREFETCH  ACCESS:          0  HIT:          0  MISS:          0
cpu0_STLB WRITEBACK ACCESS:          0  HIT:          0  MISS:          0
cpu0_L1D TOTAL     ACCESS:   18037252  HIT:   17187459  MISS:     849793
cpu0_L1D LOAD      ACCESS:   14747399  HIT:   13919210  MISS:     828189
cpu0_L1D RFO       ACCESS:    3277567  HIT:    3256863  MISS:      20704
cpu0_L1D PREFETCH  ACCESS:          0  HIT:          0  MISS:          0
cpu0_L1D WRITEBACK ACCESS:          0  HIT:          0  MISS:          0
cpu0_L2C TOTAL     ACCESS:     870497  HIT:      63037  MISS:     807460
cpu0_L2C LOAD      ACCESS:     828189  HIT:      41442  MISS:     786747
cpu0_L2C RFO       ACCESS:      20704  HIT:          0  MISS:      20704
cpu0_L2C PREFETCH  ACCESS:          0  HIT:          0  MISS:          0
cpu0_L2C WRITEBACK ACCESS:      20704  HIT:      20704  MISS:          0
LLC TOTAL     ACCESS:     828103  HIT:      20646  MISS:     807457
LLC LOAD      ACCESS:     786747  HIT:          3  MISS:     786744
LLC RFO       ACCESS:      20704  HIT:          0  MISS:      20704
LLC PREFETCH  ACCESS:          0  HIT:          0  MISS:          0
LLC WRITEBACK ACCESS:      20643  HIT:      20643  MISS:          0
Heartbeat CPU 0 instructions: 96000003 cycles: 154474090 heartbeat IPC: 0.347331 cumulative IPC: 0.34732 (Simulation time: 3 hr 0 min 50 sec) 

Region of Interest Statistics
cpu0_DTLB TOTAL     ACCESS:   16069471  HIT:   16036934  MISS:      32537
cpu0_DTLB LOAD      ACCESS:   14809181  HIT:   14779580  MISS:      29601
cpu0_DTLB RFO       ACCESS:    1260290  HIT:    1257354  MISS:       2936
cpu0_DTLB PREFETCH  ACCESS:          0  HIT:          0  MISS:          0
cpu0_DTLB WRITEBACK ACCESS:          0  HIT:          0  MISS:          0
cpu0_ITLB TOTAL     ACCESS:    4255916  HIT:    4255916  MISS:          0
cpu0_ITLB LOAD      ACCESS:    4255916  HIT:    4255916  MISS:          0
cpu0_ITLB RFO       ACCESS:          0  HIT:          0  MISS:          0
cpu0_ITLB PREFETCH  ACCESS:          0  HIT:          0  MISS:          0
cpu0_ITLB WRITEBACK ACCESS:          0  HIT:          0  MISS:          0
cpu0_STLB TOTAL     ACCESS:      32537  HIT:      19684  MISS:      12853
cpu0_STLB LOAD      ACCESS:      29601  HIT:      17086  MISS:      12515
cpu0_STLB RFO       ACCESS:       2936  HIT:       2598  MISS:        338
cpu0_STLB PREFETCH  ACCESS:          0  HIT:          0  MISS:          0
cpu0_STLB WRITEBACK ACCESS:          0  HIT:          0  MISS:          0
cpu0_L1D TOTAL     ACCESS:   18857045  HIT:   17968618  MISS:     888427
cpu0_L1D LOAD      ACCESS:   15417644  HIT:   14551806  MISS:     865838
cpu0_L1D RFO       ACCESS:    3426548  HIT:    3404903  MISS:      21645
cpu0_L1D PREFETCH  ACCESS:          0  HIT:          0  MISS:          0
cpu0_L1D WRITEBACK ACCESS:          0  HIT:          0  MISS:          0
cpu0_L2C TOTAL     ACCESS:     910076  HIT:      65909  MISS:     844167
cpu0_L2C LOAD      ACCESS:     865838  HIT:      43325  MISS:     822513
cpu0_L2C RFO       ACCESS:      21645  HIT:          0  MISS:      21645
cpu0_L2C PREFETCH  ACCESS:          0  HIT:          0  MISS:          0
cpu0_L2C WRITEBACK ACCESS:      21649  HIT:      21649  MISS:          0
LLC TOTAL     ACCESS:     865793  HIT:      21629  MISS:     844164
LLC LOAD      ACCESS:     822513  HIT:          3  MISS:     822510
LLC RFO       ACCESS:      21645  HIT:          0  MISS:      21645
LLC PREFETCH  ACCESS:          0  HIT:          0  MISS:          0
LLC WRITEBACK ACCESS:      21626  HIT:      21626  MISS:          0
Heartbeat CPU 0 instructions: 98000002 cycles: 160233441 heartbeat IPC: 0.347261 cumulative IPC: 0.347318 (Simulation time: 3 hr 6 min 14 sec) 

Region of Interest Statistics
cpu0_DTLB TOTAL     ACCESS:   16768268  HIT:   16734220  MISS:      34048
cpu0_DTLB LOAD      ACCESS:   15453137  HIT:   15422161  MISS:      30976
cpu0_DTLB RFO       ACCESS:    1315131  HIT:    1312059  MISS:       3072
cpu0_DTLB PREFETCH  ACCESS:          0  HIT:          0  MISS:          0
cpu0_DTLB WRITEBACK ACCESS:          0  HIT:          0  MISS:          0
cpu0_ITLB TOTAL     ACCESS:    4440970  HIT:    4440970  MISS:          0
cpu0_ITLB LOAD      ACCESS:    4440970  HIT:    4440970  MISS:          0
cpu0_ITLB RFO       ACCESS:          0  HIT:          0  MISS:          0
cpu0_ITLB PREFETCH  ACCESS:          0  HIT:          0  MISS:          0
cpu0_ITLB WRITEBACK ACCESS:          0  HIT:          0  MISS:          0
cpu0_STLB TOTAL     ACCESS:      34048  HIT:      20646  MISS:      13402
cpu0_STLB LOAD      ACCESS:      30976  HIT:      17926  MISS:      13050
cpu0_STLB RFO       ACCESS:       3072  HIT:       2720  MISS:        352
cpu0_STLB PREFETCH  ACCESS:          0  HIT:          0  MISS:          0
cpu0_STLB WRITEBACK ACCESS:          0  HIT:          0  MISS:          0
cpu0_L1D TOTAL     ACCESS:   19676883  HIT:   18749826  MISS:     927057
cpu0_L1D LOAD      ACCESS:   16087947  HIT:   15184457  MISS:     903490
cpu0_L1D RFO       ACCESS:    3575534  HIT:    3552948  MISS:      22586
cpu0_L1D PREFETCH  ACCESS:          0  HIT:          0  MISS:          0
cpu0_L1D WRITEBACK ACCESS:          0  HIT:          0  MISS:          0
cpu0_L2C TOTAL     ACCESS:     949649  HIT:      68776  MISS:     880873
cpu0_L2C LOAD      ACCESS:     903490  HIT:      45212  MISS:     858278
cpu0_L2C RFO       ACCESS:      22586  HIT:          0  MISS:      22586
cpu0_L2C PREFETCH  ACCESS:          0  HIT:          0  MISS:          0
cpu0_L2C WRITEBACK ACCESS:      22592  HIT:      22592  MISS:          0
LLC TOTAL     ACCESS:     903337  HIT:      22467  MISS:     880870
LLC LOAD      ACCESS:     858278  HIT:          3  MISS:     858275
LLC RFO       ACCESS:      22586  HIT:          0  MISS:      22586
LLC PREFETCH  ACCESS:          0  HIT:          0  MISS:          0
LLC WRITEBACK ACCESS:      22464  HIT:      22464  MISS:          0
Heartbeat CPU 0 instructions: 100000002 cycles: 165990003 heartbeat IPC: 0.34743 cumulative IPC: 0.347322 (Simulation time: 3 hr 11 min 44 sec) 

Region of Interest Statistics
cpu0_DTLB TOTAL     ACCESS:   17466724  HIT:   17431177  MISS:      35547
cpu0_DTLB LOAD      ACCESS:   16096815  HIT:   16064478  MISS:      32337
cpu0_DTLB RFO       ACCESS:    1369909  HIT:    1366699  MISS:       3210
cpu0_DTLB PREFETCH  ACCESS:          0  HIT:          0  MISS:          0
cpu0_DTLB WRITEBACK ACCESS:          0  HIT:          0  MISS:          0
cpu0_ITLB TOTAL     ACCESS:    4625998  HIT:    4625998  MISS:          0
cpu0_ITLB LOAD      ACCESS:    4625998  HIT:    4625998  MISS:          0
cpu0_ITLB RFO       ACCESS:          0  HIT:          0  MISS:          0
cpu0_ITLB PREFETCH  ACCESS:          0  HIT:          0  MISS:          0
cpu0_ITLB WRITEBACK ACCESS:          0  HIT:          0  MISS:          0
cpu0_STLB TOTAL     ACCESS:      35547  HIT:      21581  MISS:      13966
cpu0_STLB LOAD      ACCESS:      32337  HIT:      18738  MISS:      13599
cpu0_STLB RFO       ACCESS:       3210  HIT:       2843  MISS:        367
cpu0_STLB PREFETCH  ACCESS:          0  HIT:          0  MISS:          0
cpu0_STLB WRITEBACK ACCESS:          0  HIT:          0  MISS:          0
cpu0_L1D TOTAL     ACCESS:   20496698  HIT:   19531023  MISS:     965675
cpu0_L1D LOAD      ACCESS:   16758240  HIT:   15817117  MISS:     941123
cpu0_L1D RFO       ACCESS:    3724492  HIT:    3700965  MISS:      23527
cpu0_L1D PREFETCH  ACCESS:          0  HIT:          0  MISS:          0
cpu0_L1D WRITEBACK ACCESS:          0  HIT:          0  MISS:          0
cpu0_L2C TOTAL     ACCESS:     989211  HIT:      71646  MISS:     917565
cpu0_L2C LOAD      ACCESS:     941123  HIT:      47094  MISS:     894029
cpu0_L2C RFO       ACCESS:      23527  HIT:          0  MISS:      23527
cpu0_L2C PREFETCH  ACCESS:          0  HIT:          0  MISS:          0
cpu0_L2C WRITEBACK ACCESS:      23536  HIT:      23536  MISS:          0
LLC TOTAL     ACCESS:     941082  HIT:      23520  MISS:     917562
LLC LOAD      ACCESS:     894029  HIT:          3  MISS:     894026
LLC RFO       ACCESS:      23527  HIT:          0  MISS:      23527
LLC PREFETCH  ACCESS:          0  HIT:          0  MISS:          0
LLC WRITEBACK ACCESS:      23517  HIT:      23517  MISS:          0
Heartbeat CPU 0 instructions: 102000002 cycles: 171745176 heartbeat IPC: 0.347513 cumulative IPC: 0.347329 (Simulation time: 3 hr 17 min 4 sec) 

Region of Interest Statistics
cpu0_DTLB TOTAL     ACCESS:   18165331  HIT:   18128288  MISS:      37043
cpu0_DTLB LOAD      ACCESS:   16740659  HIT:   16706966  MISS:      33693
cpu0_DTLB RFO       ACCESS:    1424672  HIT:    1421322  MISS:       3350
cpu0_DTLB PREFETCH  ACCESS:          0  HIT:          0  MISS:          0
cpu0_DTLB WRITEBACK ACCESS:          0  HIT:          0  MISS:          0
cpu0_ITLB TOTAL     ACCESS:    4811042  HIT:    4811042  MISS:          0
cpu0_ITLB LOAD      ACCESS:    4811042  HIT:    4811042  MISS:          0
cpu0_ITLB RFO       ACCESS:          0  HIT:          0  MISS:          0
cpu0_ITLB PREFETCH  ACCESS:          0  HIT:          0  MISS:          0
cpu0_ITLB WRITEBACK ACCESS:          0  HIT:          0  MISS:          0
cpu0_STLB TOTAL     ACCESS:      37043  HIT:      22514  MISS:      14529
cpu0_STLB LOAD      ACCESS:      33693  HIT:      19546  MISS:      14147
cpu0_STLB RFO       ACCESS:       3350  HIT:       2968  MISS:        382
cpu0_STLB PREFETCH  ACCESS:          0  HIT:          0  MISS:          0
cpu0_STLB WRITEBACK ACCESS:          0  HIT:          0  MISS:          0
cpu0_L1D TOTAL     ACCESS:   21316625  HIT:   20312321  MISS:    1004304
cpu0_L1D LOAD      ACCESS:   17428596  HIT:   16449826  MISS:     978770
cpu0_L1D RFO       ACCESS:    3873500  HIT:    3849032  MISS:      24468
cpu0_L1D PREFETCH  ACCESS:          0  HIT:          0  MISS:          0
cpu0_L1D WRITEBACK ACCESS:          0  HIT:          0  MISS:          0
cpu0_L2C TOTAL     ACCESS:    1028773  HIT:      74501  MISS:     954272
cpu0_L2C LOAD      ACCESS:     978770  HIT:      48976  MISS:     929794
cpu0_L2C RFO       ACCESS:      24468  HIT:          0  MISS:      24468
cpu0_L2C PREFETCH  ACCESS:          0  HIT:          0  MISS:          0
cpu0_L2C WRITEBACK ACCESS:      24469  HIT:      24469  MISS:          0
LLC TOTAL     ACCESS:     978720  HIT:      24451  MISS:     954269
LLC LOAD      ACCESS:     929794  HIT:          3  MISS:     929791
LLC RFO       ACCESS:      24468  HIT:          0  MISS:      24468
LLC PREFETCH  ACCESS:          0  HIT:          0  MISS:          0
LLC WRITEBACK ACCESS:      24448  HIT:      24448  MISS:          0
Heartbeat CPU 0 instructions: 104000003 cycles: 177503072 heartbeat IPC: 0.347349 cumulative IPC: 0.34733 (Simulation time: 3 hr 22 min 26 sec) 

Region of Interest Statistics
cpu0_DTLB TOTAL     ACCESS:   18864524  HIT:   18826290  MISS:      38234
cpu0_DTLB LOAD      ACCESS:   17385033  HIT:   17350286  MISS:      34747
cpu0_DTLB RFO       ACCESS:    1479491  HIT:    1476004  MISS:       3487
cpu0_DTLB PREFETCH  ACCESS:          0  HIT:          0  MISS:          0
cpu0_DTLB WRITEBACK ACCESS:          0  HIT:          0  MISS:          0
cpu0_ITLB TOTAL     ACCESS:    4996092  HIT:    4996092  MISS:          0
cpu0_ITLB LOAD      ACCESS:    4996092  HIT:    4996092  MISS:          0
cpu0_ITLB RFO       ACCESS:          0  HIT:          0  MISS:          0
cpu0_ITLB PREFETCH  ACCESS:          0  HIT:          0  MISS:          0
cpu0_ITLB WRITEBACK ACCESS:          0  HIT:          0  MISS:          0
cpu0_STLB TOTAL     ACCESS:      38234  HIT:      23149  MISS:      15085
cpu0_STLB LOAD      ACCESS:      34747  HIT:      20059  MISS:      14688
cpu0_STLB RFO       ACCESS:       3487  HIT:       3090  MISS:        397
cpu0_STLB PREFETCH  ACCESS:          0  HIT:          0  MISS:          0
cpu0_STLB WRITEBACK ACCESS:          0  HIT:          0  MISS:          0
cpu0_L1D TOTAL     ACCESS:   22136650  HIT:   21093712  MISS:    1042938
cpu0_L1D LOAD      ACCESS:   18099081  HIT:   17082659  MISS:    1016422
cpu0_L1D RFO       ACCESS:    4022484  HIT:    3997075  MISS:      25409
cpu0_L1D PREFETCH  ACCESS:          0  HIT:          0  MISS:          0
cpu0_L1D WRITEBACK ACCESS:          0  HIT:          0  MISS:          0
cpu0_L2C TOTAL     ACCESS:    1068347  HIT:      77369  MISS:     990978
cpu0_L2C LOAD      ACCESS:    1016422  HIT:      50863  MISS:     965559
cpu0_L2C RFO       ACCESS:      25409  HIT:          0  MISS:      25409
cpu0_L2C PREFETCH  ACCESS:          0  HIT:          0  MISS:          0
cpu0_L2C WRITEBACK ACCESS:      25409  HIT:      25409  MISS:          0
LLC TOTAL     ACCESS:    1016322  HIT:      25347  MISS:     990975
LLC LOAD      ACCESS:     965559  HIT:          3  MISS:     965556
LLC RFO       ACCESS:      25409  HIT:          0  MISS:      25409
LLC PREFETCH  ACCESS:          0  HIT:          0  MISS:          0
LLC WRITEBACK ACCESS:      25344  HIT:      25344  MISS:          0
Heartbeat CPU 0 instructions: 106000000 cycles: 183257558 heartbeat IPC: 0.347554 cumulative IPC: 0.347338 (Simulation time: 3 hr 27 min 51 sec) 

Region of Interest Statistics
cpu0_DTLB TOTAL     ACCESS:   19562892  HIT:   19523157  MISS:      39735
cpu0_DTLB LOAD      ACCESS:   18028636  HIT:   17992528  MISS:      36108
cpu0_DTLB RFO       ACCESS:    1534256  HIT:    1530629  MISS:       3627
cpu0_DTLB PREFETCH  ACCESS:          0  HIT:          0  MISS:          0
cpu0_DTLB WRITEBACK ACCESS:          0  HIT:          0  MISS:          0
cpu0_ITLB TOTAL     ACCESS:    5181128  HIT:    5181128  MISS:          0
cpu0_ITLB LOAD      ACCESS:    5181128  HIT:    5181128  MISS:          0
cpu0_ITLB RFO       ACCESS:          0  HIT:          0  MISS:          0
cpu0_ITLB PREFETCH  ACCESS:          0  HIT:          0  MISS:          0
cpu0_ITLB WRITEBACK ACCESS:          0  HIT:          0  MISS:          0
cpu0_STLB TOTAL     ACCESS:      39735  HIT:      24088  MISS:      15647
cpu0_STLB LOAD      ACCESS:      36108  HIT:      20872  MISS:      15236
cpu0_STLB RFO       ACCESS:       3627  HIT:       3216  MISS:        411
cpu0_STLB PREFETCH  ACCESS:          0  HIT:          0  MISS:          0
cpu0_STLB WRITEBACK ACCESS:          0  HIT:          0  MISS:          0
cpu0_L1D TOTAL     ACCESS:   22956433  HIT:   21874883  MISS:    1081550
cpu0_L1D LOAD      ACCESS:   18769319  HIT:   17715266  MISS:    1054053
cpu0_L1D RFO       ACCESS:    4171467  HIT:    4145117  MISS:      26350
cpu0_L1D PREFETCH  ACCESS:          0  HIT:          0  MISS:          0
cpu0_L1D WRITEBACK ACCESS:          0  HIT:          0  MISS:          0
cpu0_L2C TOTAL     ACCESS:    1107902  HIT:      80234  MISS:    1027668
cpu0_L2C LOAD      ACCESS:    1054053  HIT:      52745  MISS:    1001308
cpu0_L2C RFO       ACCESS:      26350  HIT:          0  MISS:      26350
cpu0_L2C PREFETCH  ACCESS:          0  HIT:          0  MISS:          0
cpu0_L2C WRITEBACK ACCESS:      26352  HIT:      26352  MISS:          0
LLC TOTAL     ACCESS:    1053844  HIT:      26179  MISS:    1027665
LLC LOAD      ACCESS:    1001308  HIT:          3  MISS:    1001305
LLC RFO       ACCESS:      26350  HIT:          0  MISS:      26350
LLC PREFETCH  ACCESS:          0  HIT:          0  MISS:          0
LLC WRITEBACK ACCESS:      26176  HIT:      26176  MISS:          0
Heartbeat CPU 0 instructions: 108000000 cycles: 189015628 heartbeat IPC: 0.347339 cumulative IPC: 0.347338 (Simulation time: 3 hr 33 min 17 sec) 

Region of Interest Statistics
cpu0_DTLB TOTAL     ACCESS:   20261421  HIT:   20220176  MISS:      41245
cpu0_DTLB LOAD      ACCESS:   18672403  HIT:   18634922  MISS:      37481
cpu0_DTLB RFO       ACCESS:    1589018  HIT:    1585254  MISS:       3764
cpu0_DTLB PREFETCH  ACCESS:          0  HIT:          0  MISS:          0
cpu0_DTLB WRITEBACK ACCESS:          0  HIT:          0  MISS:          0
cpu0_ITLB TOTAL     ACCESS:    5366157  HIT:    5366157  MISS:          0
cpu0_ITLB LOAD      ACCESS:    5366157  HIT:    5366157  MISS:          0
cpu0_ITLB RFO       ACCESS:          0  HIT:          0  MISS:          0
cpu0_ITLB PREFETCH  ACCESS:          0  HIT:          0  MISS:          0
cpu0_ITLB WRITEBACK ACCESS:          0  HIT:          0  MISS:          0
cpu0_STLB TOTAL     ACCESS:      41245  HIT:      25046  MISS:      16199
cpu0_STLB LOAD      ACCESS:      37481  HIT:      21708  MISS:      15773
cpu0_STLB RFO       ACCESS:       3764  HIT:       3338  MISS:        426
cpu0_STLB PREFETCH  ACCESS:          0  HIT:          0  MISS:          0
cpu0_STLB WRITEBACK ACCESS:          0  HIT:          0  MISS:          0
cpu0_L1D TOTAL     ACCESS:   23776185  HIT:   22656011  MISS:    1120174
cpu0_L1D LOAD      ACCESS:   19439568  HIT:   18347873  MISS:    1091695
cpu0_L1D RFO       ACCESS:    4320418  HIT:    4293127  MISS:      27291
cpu0_L1D PREFETCH  ACCESS:          0  HIT:          0  MISS:          0
cpu0_L1D WRITEBACK ACCESS:          0  HIT:          0  MISS:          0
cpu0_L2C TOTAL     ACCESS:    1147470  HIT:      83101  MISS:    1064369
cpu0_L2C LOAD      ACCESS:    1091695  HIT:      54627  MISS:    1037068
cpu0_L2C RFO       ACCESS:      27291  HIT:          0  MISS:      27291
cpu0_L2C PREFETCH  ACCESS:          0  HIT:          0  MISS:          0
cpu0_L2C WRITEBACK ACCESS:      27296  HIT:      27296  MISS:          0
LLC TOTAL     ACCESS:    1091554  HIT:      27188  MISS:    1064366
LLC LOAD      ACCESS:    1037068  HIT:          3  MISS:    1037065
LLC RFO       ACCESS:      27291  HIT:          0  MISS:      27291
LLC PREFETCH  ACCESS:          0  HIT:          0  MISS:          0
LLC WRITEBACK ACCESS:      27185  HIT:      27185  MISS:          0
Heartbeat CPU 0 instructions: 110000000 cycles: 194774245 heartbeat IPC: 0.347306 cumulative IPC: 0.347337 (Simulation time: 3 hr 38 min 40 sec) 

Region of Interest Statistics
cpu0_DTLB TOTAL     ACCESS:   20960512  HIT:   20917623  MISS:      42889
cpu0_DTLB LOAD      ACCESS:   19316659  HIT:   19277672  MISS:      38987
cpu0_DTLB RFO       ACCESS:    1643853  HIT:    1639951  MISS:       3902
cpu0_DTLB PREFETCH  ACCESS:          0  HIT:          0  MISS:          0
cpu0_DTLB WRITEBACK ACCESS:          0  HIT:          0  MISS:          0
cpu0_ITLB TOTAL     ACCESS:    5551222  HIT:    5551222  MISS:          0
cpu0_ITLB LOAD      ACCESS:    5551222  HIT:    5551222  MISS:          0
cpu0_ITLB RFO       ACCESS:          0  HIT:          0  MISS:          0
cpu0_ITLB PREFETCH  ACCESS:          0  HIT:          0  MISS:          0
cpu0_ITLB WRITEBACK ACCESS:          0  HIT:          0  MISS:          0
cpu0_STLB TOTAL     ACCESS:      42889  HIT:      26124  MISS:      16765
cpu0_STLB LOAD      ACCESS:      38987  HIT:      22663  MISS:      16324
cpu0_STLB RFO       ACCESS:       3902  HIT:       3461  MISS:        441
cpu0_STLB PREFETCH  ACCESS:          0  HIT:          0  MISS:          0
cpu0_STLB WRITEBACK ACCESS:          0  HIT:          0  MISS:          0
cpu0_L1D TOTAL     ACCESS:   24596227  HIT:   23437411  MISS:    1158816
cpu0_L1D LOAD      ACCESS:   20110055  HIT:   18980701  MISS:    1129354
cpu0_L1D RFO       ACCESS:    4469407  HIT:    4441174  MISS:      28233
cpu0_L1D PREFETCH  ACCESS:          0  HIT:          0  MISS:          0
cpu0_L1D WRITEBACK ACCESS:          0  HIT:          0  MISS:          0
cpu0_L2C TOTAL     ACCESS:    1187056  HIT:      85974  MISS:    1101082
cpu0_L2C LOAD      ACCESS:    1129354  HIT:      56515  MISS:    1072839
cpu0_L2C RFO       ACCESS:      28233  HIT:          0  MISS:      28233
cpu0_L2C PREFETCH  ACCESS:          0  HIT:          0  MISS:          0
cpu0_L2C WRITEBACK ACCESS:      28240  HIT:      28240  MISS:          0
LLC TOTAL     ACCESS:    1129325  HIT:      28246  MISS:    1101079
LLC LOAD      ACCESS:    1072839  HIT:          3  MISS:    1072836
LLC RFO       ACCESS:      28233  HIT:          0  MISS:      28233
LLC PREFETCH  ACCESS:          0  HIT:          0  MISS:          0
LLC WRITEBACK ACCESS:      28243  HIT:      28243  MISS:          0
Heartbeat CPU 0 instructions: 112000003 cycles: 200533813 heartbeat IPC: 0.347249 cumulative IPC: 0.347334 (Simulation time: 3 hr 44 min 4 sec) 

Region of Interest Statistics
cpu0_DTLB TOTAL     ACCESS:   21658806  HIT:   21614429  MISS:      44377
cpu0_DTLB LOAD      ACCESS:   19960187  HIT:   19919850  MISS:      40337
cpu0_DTLB RFO       ACCESS:    1698619  HIT:    1694579  MISS:       4040
cpu0_DTLB PREFETCH  ACCESS:          0  HIT:          0  MISS:          0
cpu0_DTLB WRITEBACK ACCESS:          0  HIT:          0  MISS:          0
cpu0_ITLB TOTAL     ACCESS:    5736254  HIT:    5736254  MISS:          0
cpu0_ITLB LOAD      ACCESS:    5736254  HIT:    5736254  MISS:          0
cpu0_ITLB RFO       ACCESS:          0  HIT:          0  MISS:          0
cpu0_ITLB PREFETCH  ACCESS:          0  HIT:          0  MISS:          0
cpu0_ITLB WRITEBACK ACCESS:          0  HIT:          0  MISS:          0
cpu0_STLB TOTAL     ACCESS:      44377  HIT:      27061  MISS:      17316
cpu0_STLB LOAD      ACCESS:      40337  HIT:      23476  MISS:      16861
cpu0_STLB RFO       ACCESS:       4040  HIT:       3585  MISS:        455
cpu0_STLB PREFETCH  ACCESS:          0  HIT:          0  MISS:          0
cpu0_STLB WRITEBACK ACCESS:          0  HIT:          0  MISS:          0
cpu0_L1D TOTAL     ACCESS:   25416101  HIT:   24218652  MISS:    1197449
cpu0_L1D LOAD      ACCESS:   20780395  HIT:   19613390  MISS:    1167005
cpu0_L1D RFO       ACCESS:    4618390  HIT:    4589216  MISS:      29174
cpu0_L1D PREFETCH  ACCESS:          0  HIT:          0  MISS:          0
cpu0_L1D WRITEBACK ACCESS:          0  HIT:          0  MISS:          0
cpu0_L2C TOTAL     ACCESS:    1226630  HIT:      88837  MISS:    1137793
cpu0_L2C LOAD      ACCESS:    1167005  HIT:      58398  MISS:    1108607
cpu0_L2C RFO       ACCESS:      29174  HIT:          0  MISS:      29174
cpu0_L2C PREFETCH  ACCESS:          0  HIT:          0  MISS:          0
cpu0_L2C WRITEBACK ACCESS:      29181  HIT:      29181  MISS:          0
LLC TOTAL     ACCESS:    1166912  HIT:      29122  MISS:    1137790
LLC LOAD      ACCESS:    1108607  HIT:          3  MISS:    1108604
LLC RFO       ACCESS:      29174  HIT:          0  MISS:      29174
LLC PREFETCH  ACCESS:          0  HIT:          0  MISS:          0
LLC WRITEBACK ACCESS:      29119  HIT:      29119  MISS:          0
Heartbeat CPU 0 instructions: 114000002 cycles: 206285374 heartbeat IPC: 0.347732 cumulative IPC: 0.347347 (Simulation time: 3 hr 49 min 28 sec) 

Region of Interest Statistics
cpu0_DTLB TOTAL     ACCESS:   22357397  HIT:   22311875  MISS:      45522
cpu0_DTLB LOAD      ACCESS:   20603997  HIT:   20562653  MISS:      41344
cpu0_DTLB RFO       ACCESS:    1753400  HIT:    1749222  MISS:       4178
cpu0_DTLB PREFETCH  ACCESS:          0  HIT:          0  MISS:          0
cpu0_DTLB WRITEBACK ACCESS:          0  HIT:          0  MISS:          0
cpu0_ITLB TOTAL     ACCESS:    5921274  HIT:    5921274  MISS:          0
cpu0_ITLB LOAD      ACCESS:    5921274  HIT:    5921274  MISS:          0
cpu0_ITLB RFO       ACCESS:          0  HIT:          0  MISS:          0
cpu0_ITLB PREFETCH  ACCESS:          0  HIT:          0  MISS:          0
cpu0_ITLB WRITEBACK ACCESS:          0  HIT:          0  MISS:          0
cpu0_STLB TOTAL     ACCESS:      45522  HIT:      27638  MISS:      17884
cpu0_STLB LOAD      ACCESS:      41344  HIT:      23930  MISS:      17414
cpu0_STLB RFO       ACCESS:       4178  HIT:       3708  MISS:        470
cpu0_STLB PREFETCH  ACCESS:          0  HIT:          0  MISS:          0
cpu0_STLB WRITEBACK ACCESS:          0  HIT:          0  MISS:          0
cpu0_L1D TOTAL     ACCESS:   26235908  HIT:   24999846  MISS:    1236062
cpu0_L1D LOAD      ACCESS:   21450649  HIT:   20246016  MISS:    1204633
cpu0_L1D RFO       ACCESS:    4767375  HIT:    4737260  MISS:      30115
cpu0_L1D PREFETCH  ACCESS:          0  HIT:          0  MISS:          0
cpu0_L1D WRITEBACK ACCESS:          0  HIT:          0  MISS:          0
cpu0_L2C TOTAL     ACCESS:    1266174  HIT:      91696  MISS:    1174478
cpu0_L2C LOAD      ACCESS:    1204633  HIT:      60282  MISS:    1144351
cpu0_L2C RFO       ACCESS:      30115  HIT:          0  MISS:      30115
cpu0_L2C PREFETCH  ACCESS:          0  HIT:          0  MISS:          0
cpu0_L2C WRITEBACK ACCESS:      30112  HIT:      30112  MISS:          0
LLC TOTAL     ACCESS:    1204624  HIT:      30149  MISS:    1174475
LLC LOAD      ACCESS:    1144351  HIT:          3  MISS:    1144348
LLC RFO       ACCESS:      30115  HIT:          0  MISS:      30115
LLC PREFETCH  ACCESS:          0  HIT:          0  MISS:          0
LLC WRITEBACK ACCESS:      30146  HIT:      30146  MISS:          0
Heartbeat CPU 0 instructions: 116000000 cycles: 212049186 heartbeat IPC: 0.346992 cumulative IPC: 0.347336 (Simulation time: 3 hr 54 min 58 sec) 

Region of Interest Statistics
cpu0_DTLB TOTAL     ACCESS:   23056143  HIT:   23009470  MISS:      46673
cpu0_DTLB LOAD      ACCESS:   21247950  HIT:   21205596  MISS:      42354
cpu0_DTLB RFO       ACCESS:    1808193  HIT:    1803874  MISS:       4319
[...]
cpu0_STLB LOAD      ACCESS:     900424  HIT:     482720  MISS:     417704
cpu0_STLB RFO       ACCESS:     176523  HIT:     166687  MISS:       9836
cpu0_STLB PREFETCH  ACCESS:          0  HIT:          0  MISS:          0
cpu0_STLB WRITEBACK ACCESS:          0  HIT:          0  MISS:          0
cpu0_L1D TOTAL     ACCESS:  565457527  HIT:  536255901  MISS:   29201626
cpu0_L1D LOAD      ACCESS:  458941609  HIT:  430399537  MISS:   28542072
cpu0_L1D RFO       ACCESS:  106088399  HIT:  105459353  MISS:     629046
cpu0_L1D PREFETCH  ACCESS:          0  HIT:          0  MISS:          0
cpu0_L1D WRITEBACK ACCESS:          0  HIT:          0  MISS:          0
cpu0_L2C TOTAL     ACCESS:   30676213  HIT:    2764719  MISS:   27911494
cpu0_L2C LOAD      ACCESS:   28542160  HIT:    1260179  MISS:   27281981
cpu0_L2C RFO       ACCESS:     629046  HIT:          0  MISS:     629046
cpu0_L2C PREFETCH  ACCESS:          0  HIT:          0  MISS:          0
cpu0_L2C WRITEBACK ACCESS:    1474499  HIT:    1474454  MISS:         45
LLC TOTAL     ACCESS:   29385523  HIT:    1092646  MISS:   28292877
LLC LOAD      ACCESS:   27281981  HIT:       3007  MISS:   27278974
LLC RFO       ACCESS:     629046  HIT:          0  MISS:     629046
LLC PREFETCH  ACCESS:          0  HIT:          0  MISS:          0
LLC WRITEBACK ACCESS:    1474074  HIT:    1089565  MISS:     384509
Finished CPU 0 instructions: 1500000002 cycles: 4118356411 cumulative IPC: 0.364223 (Simulation time: 28 hr 14 min 29 sec) 

ChampSim completed all CPUs

Region of Interest Statistics

CPU 0 cumulative IPC: 0.364223 instructions: 1500000002 cycles: 4118356411
cpu0_DTLB TOTAL     ACCESS:  494285322  HIT:  493208376  MISS:    1076946
cpu0_DTLB LOAD      ACCESS:  454936069  HIT:  454035646  MISS:     900423
cpu0_DTLB RFO       ACCESS:   39349253  HIT:   39172730  MISS:     176523
cpu0_DTLB PREFETCH  ACCESS:          0  HIT:          0  MISS:          0
cpu0_DTLB WRITEBACK ACCESS:          0  HIT:          0  MISS:          0
cpu0_DTLB TRANSLATION ACCESS:          0  HIT:          0  MISS:          0
cpu0_DTLB PREFETCH  REQUESTED:          0  ISSUED:          0  USEFUL:          0  USELESS:          0
cpu0_DTLB AVERAGE MISS LATENCY: 35.5313 cycles
cpu0_ITLB TOTAL     ACCESS:  141089358  HIT:  141089357  MISS:          1
cpu0_ITLB LOAD      ACCESS:  141089358  HIT:  141089357  MISS:          1
cpu0_ITLB RFO       ACCESS:          0  HIT:          0  MISS:          0
cpu0_ITLB PREFETCH  ACCESS:          0  HIT:          0  MISS:          0
cpu0_ITLB WRITEBACK ACCESS:          0  HIT:          0  MISS:          0
cpu0_ITLB TRANSLATION ACCESS:          0  HIT:          0  MISS:          0
cpu0_ITLB PREFETCH  REQUESTED:          0  ISSUED:          0  USEFUL:          0  USELESS:          0
cpu0_ITLB AVERAGE MISS LATENCY: 411 cycles
cpu0_L1I TOTAL     ACCESS:        262  HIT:        174  MISS:         88
cpu0_L1I LOAD      ACCESS:        262  HIT:        174  MISS:         88
cpu0_L1I RFO       ACCESS:          0  HIT:          0  MISS:          0
cpu0_L1I PREFETCH  ACCESS:          0  HIT:          0  MISS:          0
cpu0_L1I WRITEBACK ACCESS:          0  HIT:          0  MISS:          0
cpu0_L1I TRANSLATION ACCESS:          0  HIT:          0  MISS:          0
cpu0_L1I PREFETCH  REQUESTED:          0  ISSUED:          0  USEFUL:          0  USELESS:          0
cpu0_L1I AVERAGE MISS LATENCY: 270.284 cycles
cpu0_STLB TOTAL     ACCESS:    1076947  HIT:     649407  MISS:     427540
cpu0_STLB LOAD      ACCESS:     900424  HIT:     482720  MISS:     417704
cpu0_STLB RFO       ACCESS:     176523  HIT:     166687  MISS:       9836
cpu0_STLB PREFETCH  ACCESS:          0  HIT:          0  MISS:          0
cpu0_STLB WRITEBACK ACCESS:          0  HIT:          0  MISS:          0
cpu0_STLB TRANSLATION ACCESS:          0  HIT:          0  MISS:          0
cpu0_STLB PREFETCH  REQUESTED:          0  ISSUED:          0  USEFUL:          0  USELESS:          0
cpu0_STLB AVERAGE MISS LATENCY: 66.7926 cycles
cpu0_L1D TOTAL     ACCESS:  565457531  HIT:  536255903  MISS:   29201628
cpu0_L1D LOAD      ACCESS:  458941613  HIT:  430399539  MISS:   28542074
cpu0_L1D RFO       ACCESS:  106088399  HIT:  105459353  MISS:     629046
cpu0_L1D PREFETCH  ACCESS:          0  HIT:          0  MISS:          0
cpu0_L1D WRITEBACK ACCESS:          0  HIT:          0  MISS:          0
cpu0_L1D TRANSLATION ACCESS:     427519  HIT:     397011  MISS:      30508
cpu0_L1D PREFETCH  REQUESTED:          0  ISSUED:          0  USEFUL:          0  USELESS:          0
cpu0_L1D AVERAGE MISS LATENCY: 1078.85 cycles
cpu0_L2C TOTAL     ACCESS:   30676215  HIT:    2764719  MISS:   27911496
cpu0_L2C LOAD      ACCESS:   28542162  HIT:    1260179  MISS:   27281983
cpu0_L2C RFO       ACCESS:     629046  HIT:          0  MISS:     629046
cpu0_L2C PREFETCH  ACCESS:          0  HIT:          0  MISS:          0
cpu0_L2C WRITEBACK ACCESS:    1474499  HIT:    1474454  MISS:         45
cpu0_L2C TRANSLATION ACCESS:      30508  HIT:      30086  MISS:        422
cpu0_L2C PREFETCH  REQUESTED:          0  ISSUED:          0  USEFUL:          0  USELESS:          0
cpu0_L2C AVERAGE MISS LATENCY: 1117.06 cycles
LLC TOTAL     ACCESS:   29385525  HIT:    1092646  MISS:   28292879
LLC LOAD      ACCESS:   27281983  HIT:       3007  MISS:   27278976
LLC RFO       ACCESS:     629046  HIT:          0  MISS:     629046
LLC PREFETCH  ACCESS:          0  HIT:          0  MISS:          0
LLC WRITEBACK ACCESS:    1474074  HIT:    1089565  MISS:     384509
LLC TRANSLATION ACCESS:        422  HIT:         74  MISS:        348
LLC PREFETCH  REQUESTED:          0  ISSUED:          0  USEFUL:          0  USELESS:          0
LLC AVERAGE MISS LATENCY: 1081.28 cycles
~~~~~~~~~~Reuse Distance Profiler output~~~~~~~~~~
0	38018480	1870096
1	11341008	5777808
2	16148064	12479920
3	16671952	16138928
4	13107552	11890576
5	13377728	12351200
6	17122992	15539376
7	14657872	11745760
8	15586672	12563136
9	15866272	14189600
10	17672784	14904400
11	13629840	11123952
12	14023328	11431776
13	11584720	9337216
14	8716624	7221568
15	9435104	7692368
16	8131104	7473408
17	8580176	8158848
18	10971488	10587008
19	9197040	8044800
20	6875808	6397344
21	6444224	5773856
22	6385488	5717104
23	8199456	6446272
24	5831376	5514960
25	4979360	4455776
26	5507232	4978704
27	3447264	3157248
28	3659760	3271840
29	3866880	3488784
30	3015200	2504544
31	4541120	4051152
32	4053520	3334816
33	3283264	3030560
34	3390640	3053632
35	2820432	2546896
36	2709488	2305344
37	2414176	2014448
38	1992480	1668304
39	1878688	1248048
40	2461296	2169040
41	3370080	2909360
42	1885968	1581072
43	1548016	1052848
44	2245296	1567264
45	1658016	1322480
46	1343840	1080944
47	2193968	1520544
48	1645520	1203600
49	1932304	1640784
50	1365232	1158048
51	1744528	1490992
52	864880	760336
53	1615440	1557552
54	940288	780160
55	1469600	1327136
56	1407872	1284432
57	1559328	1173088
58	1808720	1494672
59	1925120	1361392
60	2007840	1467040
61	2101744	1708112
62	2570352	1973536
63	2571600	2021984
64	5460736	3863152
66	4687360	3992864
68	5471360	4806512
70	6487232	5346336
72	4866352	4369392
74	6266656	5593840
76	4113584	3671616
78	3691504	3028000
80	3812192	2932176
82	2127456	1499888
84	3647264	2919744
86	4751456	4100656
88	4726944	3775808
90	5558992	4499440
92	5333632	4976480
94	6475056	6018496
96	5233696	4824640
98	6440592	5993408
100	5711584	5414048
102	5926240	5619424
104	4445344	4247776
106	3388672	3232016
108	3995888	3752128
110	3210080	2980064
112	2445280	2137648
114	1778944	1333648
116	2896944	2494736
118	2405360	1968128
120	2061728	1882112
122	1679264	1552192
124	1189632	1116400
126	585856	581184
128	1598240	1309312
132	1538000	1520512
136	1068992	1019392
140	1956000	1852144
144	1233376	1170224
148	1361056	1359264
152	1066496	1062656
156	340720	340576
160	300416	299440
164	515824	515792
168	461136	461120
172	129392	129392
176	72480	72480
180	199072	198608
184	47360	47360
188	2896	2864
192	1376	864
196	3904	3904
200	1616	1616
204	3360	3360
208	1952	1952
212	2832	2832
216	3872	3872
220	1312	1312
224	1456	1456
228	528	528
232	7904	7904
236	10000	10000
240	1600	1600
244	10176	10176
248	1792	1792
252	1584	1584
256	32	32
264	16	16
272	9104	9104
280	2512	2512
288	4864	4864
296	6352	6352
304	1984	1984
312	80	80
320	0	0
328	0	0
336	0	0
344	0	0
352	0	0
360	0	0
368	0	0
376	0	0
384	0	0
392	0	0
400	0	0
408	0	0
416	0	0
424	0	0
432	0	0
440	0	0
448	0	0
456	0	0
464	0	0
472	0	0
480	3184	3184
488	6512	6512
496	180608	180608
504	78640	78640
512	552240	552240
528	1281088	1281088
544	902608	902608
560	38224	38224
576	4144	4144
592	592	592
608	23360	23360
624	85248	85248
640	9552	9552
656	8688	8688
672	2192	2192
688	208	208
704	0	0
720	0	0
736	0	0
752	0	0
768	0	0
784	0	0
800	0	0
816	0	0
832	0	0
848	0	0
864	0	0
880	0	0
896	0	0
912	0	0
928	0	0
944	0	0
960	0	0
976	0	0
992	0	0
1008	0	0
1024	464	464
1056	4192	4192
1088	8704	8704
1120	8528	8528
1152	2752	2752
1184	336	336
1216	0	0
1248	0	0
1280	0	0
1312	0	0
1344	0	0
1376	0	0
1408	0	0
1440	0	0
1472	0	0
1504	0	0
1536	0	0
1568	0	0
1600	0	0
1632	0	0
1664	0	0
1696	0	0
1728	0	0
1760	0	0
1792	0	0
1824	0	0
1856	0	0
1888	0	0
1920	0	0
1952	0	0
1984	0	0
2016	0	0
2048	0	0
2112	0	0
2176	0	0
2240	0	0
2304	0	0
2368	0	0
2432	0	0
2496	0	0
2560	0	0
2624	0	0
2688	0	0
2752	0	0
2816	0	0
2880	0	0
2944	0	0
3008	0	0
3072	0	0
3136	0	0
3200	0	0
3264	0	0
3328	0	0
3392	0	0
3456	0	0
3520	0	0
3584	0	0
3648	0	0
3712	0	0
3776	0	0
3840	0	0
3904	0	0
3968	0	0
4032	0	0
4096	0	0
4224	0	0
4352	0	0
4480	0	0
4608	0	0
4736	0	0
4864	0	0
4992	0	0
5120	0	0
5248	0	0
5376	0	0
5504	0	0
5632	0	0
5760	0	0
5888	0	0
6016	0	0
6144	0	0
6272	0	0
6400	0	0
6528	0	0
6656	0	0
6784	0	0
6912	0	0
7040	176	176
7168	0	0
7296	0	0
7424	0	0
7552	0	0
7680	0	0
7808	0	0
7936	0	0
8064	0	0
8192	0	0
8448	0	0
8704	0	0
8960	0	0
9216	0	0
9472	0	0
9728	0	0
9984	0	0
10240	0	0
10496	0	0
10752	0	0
11008	0	0
11264	0	0
11520	0	0
11776	0	0
12032	0	0
12288	0	0
12544	0	0
12800	0	0
13056	0	0
13312	0	0
13568	0	0
13824	0	0
14080	0	0
14336	0	0
14592	0	0
14848	48	48
15104	16	16
15360	112	112
15616	0	0
15872	48	48
16128	0	0
16384	0	0
16896	0	0
17408	0	0
17920	128	128
18432	48	48
18944	144	144
19456	16	16
19968	0	0
20480	0	0
20992	0	0
21504	0	0
22016	0	0
22528	16	16
23040	0	0
23552	0	0
24064	16	16
24576	0	0
25088	0	0
25600	0	0
26112	0	0
26624	0	0
27136	16	16
27648	0	0
28160	0	0
28672	0	0
29184	0	0
29696	0	0
30208	0	0
30720	0	0
31232	0	0
31744	0	0
32256	160	160
32768	506352	506352
33792	745120	745120
34816	1392	1392
35840	0	0
36864	0	0
37888	16	16
38912	6928	6928
39936	39408	39408
40960	864	864
41984	160	160
43008	96	96
44032	16	16
45056	16	16
46080	0	0
47104	16	16
48128	16	16
49152	0	0
50176	16	16
51200	0	0
52224	16	16
53248	0	0
54272	0	0
55296	0	0
56320	0	0
57344	0	0
58368	0	0
59392	16	16
60416	0	0
61440	0	0
62464	0	0
63488	0	0
64512	32	32
65536	16	16
67584	0	0
69632	0	0
71680	48	48
73728	0	0
75776	16	16
77824	32	32
79872	16	16
81920	0	0
83968	0	0
86016	16	16
88064	16	16
90112	0	0
92160	0	0
94208	0	0
96256	16	16
98304	0	0
100352	0	0
102400	0	0
104448	0	0
106496	16	16
108544	16	16
110592	32	32
112640	16	16
114688	32	32
116736	48	48
118784	16	16
120832	48	48
122880	16	16
124928	48	48
126976	48	48
129024	32	32
131072	64	64
135168	64	64
139264	48	48
143360	48	48
147456	0	0
151552	16	16
155648	0	0
159744	48	48
163840	0	0
167936	16	16
172032	0	0
176128	64	64
180224	16	16
184320	32	32
188416	16	16
192512	0	0
196608	48	48
200704	16	16
204800	64	64
208896	32	32
212992	32	32
217088	32	32
221184	16	16
225280	16	16
229376	0	0
233472	48	48
237568	64	64
241664	0	0
245760	16	16
249856	16	16
253952	32	32
258048	32	32
262144	16	16
270336	16	16
278528	48	48
286720	32	32
294912	16	16
303104	64	64
311296	32	32
319488	32	32
327680	16	16
335872	16	16
344064	48	48
352256	16	16
360448	64	64
368640	32	32
376832	32	32
385024	16	16
393216	64	64
401408	32	32
409600	16	16
417792	32	32
425984	48	48
434176	32	32
442368	16	16
450560	512	512
458752	2464	2464
466944	2912	2912
475136	2880	2880
483328	2784	2784
491520	2576	2576
499712	2688	2688
507904	2704	2704
516096	2608	2608
524288	5984	5984
540672	5680	5680
557056	5248	5248
573440	5440	5440
589824	5776	5776
606208	5456	5456
622592	5312	5312
638976	5712	5712
655360	5648	5648
671744	5360	5360
688128	5280	5280
704512	5744	5744
720896	5472	5472
737280	5888	5888
753664	5584	5584
770048	5664	5664
786432	5168	5168
802816	5328	5328
819200	5392	5392
835584	5408	5408
851968	5760	5760
868352	6240	6240
884736	6208	6208
901120	6432	6432
917504	6240	6240
933888	5872	5872
950272	5824	5824
966656	6736	6736
983040	6960	6960
999424	7024	7024
1015808	4112	4112
1032192	4080	4080
1048576	7648	7648
1081344	7056	7056
1114112	7216	7216
1146880	7872	7872
1179648	11584	11584
1212416	13888	13888
1245184	18720	18720
1277952	18112	18112
1310720	17856	17856
1343488	18880	18880
1376256	19200	19200
1409024	18256	18256
1441792	19904	19904
1474560	18192	18192
1507328	18688	18688
1540096	18720	18720
1572864	18480	18480
1605632	18992	18992
1638400	19184	19184
1671168	18496	18496
1703936	18224	18224
1736704	18240	18240
1769472	18960	18960
1802240	17232	17232
1835008	18016	18016
1867776	18112	18112
1900544	18816	18816
1933312	17968	17968
1966080	18064	18064
1998848	19040	19040
2031616	19312	19312
2064384	18528	18528
2097152	35648	35648
2162688	45968	45968
2228224	1232224	1232224
2293760	34096	34096
2359296	16544	16544
2424832	16304	16304
2490368	16816	16816
2555904	15408	15408
2621440	18944	18944
2686976	57840	57808
2752512	9392	9392
2818048	9248	9248
2883584	9552	9536
2949120	9136	9136
3014656	9712	9584
3080192	9616	9488
3145728	9984	9984
3211264	9248	9248
3276800	9808	9808
3342336	9584	9344
3407872	9008	8960
3473408	9360	9152
3538944	8640	8544
3604480	9728	9616
3670016	8656	8656
3735552	9040	9040
3801088	9536	9248
3866624	8672	8672
3932160	9168	9152
3997696	9536	9520
4063232	9344	9232
4128768	10128	9872
4194304	28176	27952
4325376	31456	31456
4456448	28160	28032
4587520	29216	28960
4718592	13008	12992
4849664	12416	12416
4980736	12352	12352
5111808	12576	12240
5242880	12080	11776
5373952	12544	12272
5505024	12288	12176
5636096	12112	11776
5767168	11936	11904
5898240	12736	12608
6029312	12864	12592
6160384	2144	1904
6291456	1792	1536
6422528	1440	1200
6553600	1280	1280
6684672	1344	1184
6815744	1184	960
6946816	1136	1120
7077888	1216	1216
7208960	768	768
7340032	1376	1120
7471104	896	864
7602176	1392	1264
7733248	1104	816
7864320	1296	1040
7995392	1312	928
8126464	1104	864
8257536	720	624
8388608	1888	1520
8650752	2144	1760
8912896	2592	2080
9175040	1920	1680
9437184	2064	1808
9699328	2416	1936
9961472	1840	1664
10223616	2672	2176
10485760	2336	2016
10747904	2880	2192
11010048	2320	2000
11272192	2192	1920
11534336	2336	2128
11796480	2192	1904
12058624	2048	1936
12320768	2640	2336
12582912	1920	1920
12845056	2624	2528
13107200	1952	1872
13369344	2944	2656
13631488	2576	2400
13893632	2176	1872
14155776	2592	2176
14417920	2480	1984
14680064	2496	2224
14942208	1952	1760
15204352	2400	2064
15466496	2880	2288
15728640	2320	2192
15990784	2224	1968
16252928	2240	2064
16515072	2400	2112
16777216	4496	3920
17301504	4272	3824
17825792	5360	4576
18350080	5232	4624
18874368	4448	3936
19398656	4464	3968
19922944	4432	3712
20447232	4384	3968
20971520	5072	4128
21495808	4688	4064
22020096	4480	4080
22544384	4960	4320
23068672	4832	4656
23592960	5568	4688
24117248	4528	4240
24641536	3936	3472
25165824	5504	4624
25690112	5408	4448
26214400	5344	4720
26738688	4624	4096
27262976	4688	4352
27787264	4864	4496
28311552	5104	4608
28835840	5152	4640
29360128	5200	4416
29884416	5472	4576
30408704	5296	4432
30932992	5696	5056
31457280	4688	4000
31981568	4752	4496
32505856	5088	4656
33030144	4768	3936
33554432	9600	8912
34603008	9984	8560
35651584	9200	8208
36700160	9200	8000
37748736	10368	8896
38797312	10192	8448
39845888	9120	7984
40894464	9504	8224
41943040	10048	8384
42991616	8624	7456
44040192	11056	9696
45088768	9184	8912
46137344	9632	8336
47185920	8304	7184
48234496	9488	8256
49283072	9168	7712
50331648	10112	8752
51380224	9952	8256
52428800	9472	8304
53477376	10096	8848
54525952	8512	7984
55574528	10288	9376
56623104	9120	7888
57671680	8704	8112
58720256	9568	8144
59768832	10352	9520
60817408	9344	8240
61865984	10160	9136
62914560	8912	7744
63963136	9936	8336
65011712	10112	8464
66060288	10272	9456
67108864	19456	17008
69206016	19152	17280
71303168	20064	17616
73400320	19936	16880
75497472	19440	16832
77594624	19888	17088
79691776	20624	18000
81788928	20224	17136
83886080	18688	16512
85983232	19072	16336
88080384	20272	17920
90177536	18032	16368
92274688	19648	17248
94371840	20880	17792
96468992	21136	18880
98566144	20464	17792
100663296	18672	16944
102760448	20208	18400
104857600	18352	16272
106954752	18896	16368
109051904	20944	17792
111149056	19328	16384
113246208	21264	18288
115343360	18992	17056
117440512	18368	16160
119537664	20432	17616
121634816	18112	16144
123731968	19488	17152
125829120	19584	16960
127926272	18448	16432
130023424	18448	15504
132120576	17024	15344
134217728	34352	29504
138412032	38016	33040
142606336	23392	17984
146800640	10476640	10476352
150994944	859472	859472
155189248	6274016	6274016
159383552	10016	5104
163577856	10464	5008
167772160	10000	5584
171966464	10832	5856
176160768	9712	5072
180355072	9728	4592
184549376	10288	5104
188743680	10784	5248
192937984	9968	4928
197132288	10560	4976
201326592	9872	4992
205520896	9872	4928
209715200	9984	5120
213909504	8864	4576
218103808	9424	4544
222298112	9696	4608
226492416	9984	4960
230686720	9952	5008
234881024	9568	5120
239075328	10288	5120
243269632	10064	5248
247463936	10160	5408
251658240	10352	4928
255852544	9488	4912
260046848	9424	4512
264241152	9472	4736
268435456	18608	9344
276824064	17552	8208
285212672	11488	7936
293601280	2880	2880
301989888	0	0
310378496	0	0
318767104	0	0
327155712	0	0
335544320	0	0
343932928	0	0
352321536	0	0
360710144	0	0
369098752	0	0
377487360	0	0
385875968	0	0
394264576	0	0
402653184	0	0
411041792	0	0
419430400	0	0
427819008	0	0
436207616	0	0
444596224	0	0
452984832	0	0
461373440	0	0
469762048	0	0
478150656	0	0
486539264	0	0
494927872	0	0
503316480	0	0
511705088	0	0
520093696	0	0
528482304	0	0
536870912	0	0
553648128	0	0
570425344	0	0
587202560	0	0
603979776	0	0
620756992	0	0
637534208	0	0
654311424	0	0
671088640	0	0
687865856	0	0
704643072	0	0
721420288	0	0
738197504	0	0
754974720	0	0
771751936	0	0
788529152	0	0
805306368	0	0
822083584	0	0
838860800	0	0
855638016	0	0
872415232	0	0
889192448	0	0
905969664	0	0
922746880	0	0
939524096	0	0
956301312	0	0
973078528	0	0
989855744	0	0
1006632960	0	0
1023410176	0	0
1040187392	0	0
1056964608	0	0
1073741824	0	0
1107296256	0	0
1140850688	0	0
1174405120	0	0
1207959552	0	0
1241513984	0	0
1275068416	0	0
1308622848	0	0
1342177280	0	0
1375731712	0	0
1409286144	0	0
1442840576	0	0
1476395008	0	0
1509949440	0	0
1543503872	0	0
1577058304	0	0
1610612736	0	0
1644167168	0	0
1677721600	0	0
1711276032	0	0
1744830464	0	0
1778384896	0	0
1811939328	0	0
1845493760	0	0
1879048192	0	0
1912602624	0	0
1946157056	0	0
1979711488	0	0
2013265920	0	0
2046820352	0	0
2080374784	0	0
2113929216	0	0
2147483648	0	0
2214592512	0	0
2281701376	0	0
2348810240	0	0
2415919104	0	0
2483027968	0	0
2550136832	0	0
2617245696	0	0
2684354560	0	0
2751463424	0	0
2818572288	0	0
2885681152	0	0
2952790016	0	0
3019898880	0	0
3087007744	0	0
3154116608	0	0
3221225472	0	0
3288334336	0	0
3355443200	0	0
3422552064	0	0
3489660928	0	0
3556769792	0	0
3623878656	0	0
3690987520	0	0
3758096384	0	0
3825205248	0	0
3892314112	0	0
3959422976	0	0
4026531840	0	0
4093640704	0	0
4160749568	0	0
4227858432	0	0
~~~~~~~~~~Reuse Distance Profiler output end~~~~~~~~~~

Sampler size:432905

DRAM Statistics
 CHANNEL 0
 RQ ROW_BUFFER_HIT:     205665  ROW_BUFFER_MISS:   27702543
 DBUS AVG_CONGESTED_CYCLE:    3.97141
 WQ ROW_BUFFER_HIT:     132473  ROW_BUFFER_MISS:    1341396  FULL:          0


CPU 0 Branch Prediction Accuracy: 71.8527% MPKI: 10.6608 Average ROB Occupancy at Mispredict: 255.668
Branch type MPKI
BRANCH_DIRECT_JUMP: 2.13333e-05
BRANCH_INDIRECT: 0
BRANCH_CONDITIONAL: 10.6607
BRANCH_DIRECT_CALL: 1.33333e-06
BRANCH_INDIRECT_CALL: 0
BRANCH_RETURN: 2e-06

