
*** ChampSim Multicore Out-of-Order Simulator ***

Warmup Instructions: 50000000
Simulation Instructions: 1500000000
Number of CPUs: 1
Off-chip DRAM Size: 4 GiB Channels: 1 Width: 64-bit Data Rate: 3200 MT/s

VirtualMemory physical capacity: 8588881920 num_ppages: 2096895
VirtualMemory page size: 4096 log2_page_size: 12

CPU 0 runs /s/traces/champsim_traces/429.mcf-184B.champsimtrace.xz
CPU 0 Bimodal branch predictor
Basic BTB sets: 1024 ways: 8 indirect buffer size: 4096 RAS size: 64
Initializing LRU.
Initializing LRU.
Initializing LRU.
Initializing LRU.
Initializing rdLRU.
Initializing LRU.
Heartbeat CPU 0 instructions: 2000002 cycles: 626118 heartbeat IPC: 3.19429 cumulative IPC: 3.19429 (Simulation time: 0 hr 1 min 31 sec) 
Heartbeat CPU 0 instructions: 4000004 cycles: 1262694 heartbeat IPC: 3.14181 cumulative IPC: 3.16783 (Simulation time: 0 hr 3 min 10 sec) 
Heartbeat CPU 0 instructions: 6000000 cycles: 1904760 heartbeat IPC: 3.11494 cumulative IPC: 3.15 (Simulation time: 0 hr 4 min 49 sec) 
Heartbeat CPU 0 instructions: 8000003 cycles: 2526937 heartbeat IPC: 3.21452 cumulative IPC: 3.16589 (Simulation time: 0 hr 6 min 24 sec) 
Heartbeat CPU 0 instructions: 10000000 cycles: 3147688 heartbeat IPC: 3.2219 cumulative IPC: 3.17693 (Simulation time: 0 hr 7 min 52 sec) 
Heartbeat CPU 0 instructions: 12000002 cycles: 3770254 heartbeat IPC: 3.21251 cumulative IPC: 3.18281 (Simulation time: 0 hr 9 min 25 sec) 
Heartbeat CPU 0 instructions: 14000003 cycles: 4391548 heartbeat IPC: 3.21909 cumulative IPC: 3.18794 (Simulation time: 0 hr 10 min 59 sec) 
Heartbeat CPU 0 instructions: 16000002 cycles: 5013832 heartbeat IPC: 3.21396 cumulative IPC: 3.19117 (Simulation time: 0 hr 12 min 31 sec) 
Heartbeat CPU 0 instructions: 18000002 cycles: 5637460 heartbeat IPC: 3.20704 cumulative IPC: 3.19293 (Simulation time: 0 hr 14 min 0 sec) 
Heartbeat CPU 0 instructions: 20000000 cycles: 6289241 heartbeat IPC: 3.06851 cumulative IPC: 3.18003 (Simulation time: 0 hr 15 min 38 sec) 
Heartbeat CPU 0 instructions: 22000000 cycles: 6912070 heartbeat IPC: 3.21115 cumulative IPC: 3.18284 (Simulation time: 0 hr 17 min 11 sec) 
Heartbeat CPU 0 instructions: 24000001 cycles: 7534808 heartbeat IPC: 3.21163 cumulative IPC: 3.18522 (Simulation time: 0 hr 18 min 41 sec) 
Heartbeat CPU 0 instructions: 26000002 cycles: 8157877 heartbeat IPC: 3.20992 cumulative IPC: 3.1871 (Simulation time: 0 hr 20 min 13 sec) 
Heartbeat CPU 0 instructions: 28000002 cycles: 8781588 heartbeat IPC: 3.20661 cumulative IPC: 3.18849 (Simulation time: 0 hr 21 min 45 sec) 
Heartbeat CPU 0 instructions: 30000003 cycles: 9402471 heartbeat IPC: 3.22122 cumulative IPC: 3.19065 (Simulation time: 0 hr 23 min 18 sec) 
Heartbeat CPU 0 instructions: 32000004 cycles: 10023274 heartbeat IPC: 3.22164 cumulative IPC: 3.19257 (Simulation time: 0 hr 24 min 53 sec) 
Heartbeat CPU 0 instructions: 34000004 cycles: 10665668 heartbeat IPC: 3.11335 cumulative IPC: 3.1878 (Simulation time: 0 hr 26 min 29 sec) 
Heartbeat CPU 0 instructions: 36000002 cycles: 11297973 heartbeat IPC: 3.16303 cumulative IPC: 3.18641 (Simulation time: 0 hr 28 min 2 sec) 
Heartbeat CPU 0 instructions: 38000004 cycles: 11919311 heartbeat IPC: 3.21886 cumulative IPC: 3.1881 (Simulation time: 0 hr 29 min 32 sec) 
Heartbeat CPU 0 instructions: 40000003 cycles: 12537605 heartbeat IPC: 3.23471 cumulative IPC: 3.1904 (Simulation time: 0 hr 31 min 0 sec) 
Heartbeat CPU 0 instructions: 42000002 cycles: 13159560 heartbeat IPC: 3.21567 cumulative IPC: 3.1916 (Simulation time: 0 hr 32 min 27 sec) 
Heartbeat CPU 0 instructions: 44000002 cycles: 13782607 heartbeat IPC: 3.21003 cumulative IPC: 3.19243 (Simulation time: 0 hr 33 min 55 sec) 
Heartbeat CPU 0 instructions: 46000000 cycles: 14405227 heartbeat IPC: 3.21223 cumulative IPC: 3.19329 (Simulation time: 0 hr 35 min 26 sec) 
Heartbeat CPU 0 instructions: 48000001 cycles: 15057146 heartbeat IPC: 3.06787 cumulative IPC: 3.18786 (Simulation time: 0 hr 37 min 0 sec) 
Heartbeat CPU 0 instructions: 50000003 cycles: 15679515 heartbeat IPC: 3.21353 cumulative IPC: 3.18887 (Simulation time: 0 hr 38 min 28 sec) 

Warmup complete CPU 0 instructions: 50000003 cycles: 15679515 (Simulation time: 0 hr 38 min 28 sec) 

Heartbeat CPU 0 instructions: 52000002 cycles: 37907432 heartbeat IPC: 0.0899769 cumulative IPC: 0.0899769 (Simulation time: 0 hr 43 min 51 sec) 

Region of Interest Statistics
cpu0_DTLB TOTAL     ACCESS:     419213  HIT:     141206  MISS:     278007
cpu0_DTLB LOAD      ACCESS:     411216  HIT:     134000  MISS:     277216
cpu0_DTLB RFO       ACCESS:       7997  HIT:       7206  MISS:        791
cpu0_DTLB PREFETCH  ACCESS:          0  HIT:          0  MISS:          0
cpu0_DTLB WRITEBACK ACCESS:          0  HIT:          0  MISS:          0
cpu0_ITLB TOTAL     ACCESS:     220978  HIT:     220978  MISS:          0
cpu0_ITLB LOAD      ACCESS:     220978  HIT:     220978  MISS:          0
cpu0_ITLB RFO       ACCESS:          0  HIT:          0  MISS:          0
cpu0_ITLB PREFETCH  ACCESS:          0  HIT:          0  MISS:          0
cpu0_ITLB WRITEBACK ACCESS:          0  HIT:          0  MISS:          0
cpu0_STLB TOTAL     ACCESS:     278007  HIT:     271189  MISS:       6818
cpu0_STLB LOAD      ACCESS:     277216  HIT:     270478  MISS:       6738
cpu0_STLB RFO       ACCESS:        791  HIT:        711  MISS:         80
cpu0_STLB PREFETCH  ACCESS:          0  HIT:          0  MISS:          0
cpu0_STLB WRITEBACK ACCESS:          0  HIT:          0  MISS:          0
cpu0_L1D TOTAL     ACCESS:     436649  HIT:     157796  MISS:     278853
cpu0_L1D LOAD      ACCESS:     415687  HIT:     139044  MISS:     276643
cpu0_L1D RFO       ACCESS:      14169  HIT:      13851  MISS:        318
cpu0_L1D PREFETCH  ACCESS:          0  HIT:          0  MISS:          0
cpu0_L1D WRITEBACK ACCESS:          0  HIT:          0  MISS:          0
cpu0_L2C TOTAL     ACCESS:     282538  HIT:      82931  MISS:     199607
cpu0_L2C LOAD      ACCESS:     276643  HIT:      78605  MISS:     198038
cpu0_L2C RFO       ACCESS:        318  HIT:        140  MISS:        178
cpu0_L2C PREFETCH  ACCESS:          0  HIT:          0  MISS:          0
cpu0_L2C WRITEBACK ACCESS:       3685  HIT:       3685  MISS:          0
LLC TOTAL     ACCESS:     202025  HIT:      98501  MISS:     103524
LLC LOAD      ACCESS:     198038  HIT:      94569  MISS:     103469
LLC RFO       ACCESS:        178  HIT:        125  MISS:         53
LLC PREFETCH  ACCESS:          0  HIT:          0  MISS:          0
LLC WRITEBACK ACCESS:       2418  HIT:       2416  MISS:          2
Heartbeat CPU 0 instructions: 54000000 cycles: 60963172 heartbeat IPC: 0.0867462 cumulative IPC: 0.088332 (Simulation time: 0 hr 49 min 21 sec) 

Region of Interest Statistics
cpu0_DTLB TOTAL     ACCESS:     836517  HIT:     270885  MISS:     565632
cpu0_DTLB LOAD      ACCESS:     824927  HIT:     260514  MISS:     564413
cpu0_DTLB RFO       ACCESS:      11590  HIT:      10371  MISS:       1219
cpu0_DTLB PREFETCH  ACCESS:          0  HIT:          0  MISS:          0
cpu0_DTLB WRITEBACK ACCESS:          0  HIT:          0  MISS:          0
cpu0_ITLB TOTAL     ACCESS:     442269  HIT:     442269  MISS:          0
cpu0_ITLB LOAD      ACCESS:     442269  HIT:     442269  MISS:          0
cpu0_ITLB RFO       ACCESS:          0  HIT:          0  MISS:          0
cpu0_ITLB PREFETCH  ACCESS:          0  HIT:          0  MISS:          0
cpu0_ITLB WRITEBACK ACCESS:          0  HIT:          0  MISS:          0
cpu0_STLB TOTAL     ACCESS:     565632  HIT:     552854  MISS:      12778
cpu0_STLB LOAD      ACCESS:     564413  HIT:     551758  MISS:      12655
cpu0_STLB RFO       ACCESS:       1219  HIT:       1096  MISS:        123
cpu0_STLB PREFETCH  ACCESS:          0  HIT:          0  MISS:          0
cpu0_STLB WRITEBACK ACCESS:          0  HIT:          0  MISS:          0
cpu0_L1D TOTAL     ACCESS:     864358  HIT:     299571  MISS:     564787
cpu0_L1D LOAD      ACCESS:     831187  HIT:     270547  MISS:     560640
cpu0_L1D RFO       ACCESS:      20429  HIT:      19962  MISS:        467
cpu0_L1D PREFETCH  ACCESS:          0  HIT:          0  MISS:          0
cpu0_L1D WRITEBACK ACCESS:          0  HIT:          0  MISS:          0
cpu0_L2C TOTAL     ACCESS:     570205  HIT:     164379  MISS:     405826
cpu0_L2C LOAD      ACCESS:     560639  HIT:     157940  MISS:     402699
cpu0_L2C RFO       ACCESS:        467  HIT:        184  MISS:        283
cpu0_L2C PREFETCH  ACCESS:          0  HIT:          0  MISS:          0
cpu0_L2C WRITEBACK ACCESS:       5419  HIT:       5419  MISS:          0
LLC TOTAL     ACCESS:     409718  HIT:     198590  MISS:     211128
LLC LOAD      ACCESS:     402699  HIT:     191654  MISS:     211045
LLC RFO       ACCESS:        283  HIT:        202  MISS:         81
LLC PREFETCH  ACCESS:          0  HIT:          0  MISS:          0
LLC WRITEBACK ACCESS:       3892  HIT:       3890  MISS:          2
Heartbeat CPU 0 instructions: 56000001 cycles: 81892984 heartbeat IPC: 0.0955575 cumulative IPC: 0.090616 (Simulation time: 0 hr 54 min 17 sec) 

Region of Interest Statistics
cpu0_DTLB TOTAL     ACCESS:    1258786  HIT:     431281  MISS:     827505
cpu0_DTLB LOAD      ACCESS:    1231928  HIT:     408122  MISS:     823806
cpu0_DTLB RFO       ACCESS:      26858  HIT:      23159  MISS:       3699
cpu0_DTLB PREFETCH  ACCESS:          0  HIT:          0  MISS:          0
cpu0_DTLB WRITEBACK ACCESS:          0  HIT:          0  MISS:          0
cpu0_ITLB TOTAL     ACCESS:     663375  HIT:     663375  MISS:          0
cpu0_ITLB LOAD      ACCESS:     663375  HIT:     663375  MISS:          0
cpu0_ITLB RFO       ACCESS:          0  HIT:          0  MISS:          0
cpu0_ITLB PREFETCH  ACCESS:          0  HIT:          0  MISS:          0
cpu0_ITLB WRITEBACK ACCESS:          0  HIT:          0  MISS:          0
cpu0_STLB TOTAL     ACCESS:     827505  HIT:     808105  MISS:      19400
cpu0_STLB LOAD      ACCESS:     823806  HIT:     804613  MISS:      19193
cpu0_STLB RFO       ACCESS:       3699  HIT:       3492  MISS:        207
cpu0_STLB PREFETCH  ACCESS:          0  HIT:          0  MISS:          0
cpu0_STLB WRITEBACK ACCESS:          0  HIT:          0  MISS:          0
cpu0_L1D TOTAL     ACCESS:    1316874  HIT:     484523  MISS:     832351
cpu0_L1D LOAD      ACCESS:    1251467  HIT:     425529  MISS:     825938
cpu0_L1D RFO       ACCESS:      46049  HIT:      45065  MISS:        984
cpu0_L1D PREFETCH  ACCESS:          0  HIT:          0  MISS:          0
cpu0_L1D WRITEBACK ACCESS:          0  HIT:          0  MISS:          0
cpu0_L2C TOTAL     ACCESS:     845499  HIT:     252427  MISS:     593072
cpu0_L2C LOAD      ACCESS:     825935  HIT:     237524  MISS:     588411
cpu0_L2C RFO       ACCESS:        984  HIT:        497  MISS:        487
cpu0_L2C PREFETCH  ACCESS:          0  HIT:          0  MISS:          0
cpu0_L2C WRITEBACK ACCESS:      13151  HIT:      13151  MISS:          0
LLC TOTAL     ACCESS:     600430  HIT:     294048  MISS:     306382
LLC LOAD      ACCESS:     588411  HIT:     282196  MISS:     306215
LLC RFO       ACCESS:        487  HIT:        324  MISS:        163
LLC PREFETCH  ACCESS:          0  HIT:          0  MISS:          0
LLC WRITEBACK ACCESS:       7358  HIT:       7354  MISS:          4
Heartbeat CPU 0 instructions: 58000000 cycles: 103090740 heartbeat IPC: 0.0943496 cumulative IPC: 0.0915214 (Simulation time: 0 hr 59 min 16 sec) 

Region of Interest Statistics
cpu0_DTLB TOTAL     ACCESS:    1682018  HIT:     591920  MISS:    1090098
cpu0_DTLB LOAD      ACCESS:    1639808  HIT:     556530  MISS:    1083278
cpu0_DTLB RFO       ACCESS:      42210  HIT:      35390  MISS:       6820
cpu0_DTLB PREFETCH  ACCESS:          0  HIT:          0  MISS:          0
cpu0_DTLB WRITEBACK ACCESS:          0  HIT:          0  MISS:          0
cpu0_ITLB TOTAL     ACCESS:     885972  HIT:     885972  MISS:          0
cpu0_ITLB LOAD      ACCESS:     885972  HIT:     885972  MISS:          0
cpu0_ITLB RFO       ACCESS:          0  HIT:          0  MISS:          0
cpu0_ITLB PREFETCH  ACCESS:          0  HIT:          0  MISS:          0
cpu0_ITLB WRITEBACK ACCESS:          0  HIT:          0  MISS:          0
cpu0_STLB TOTAL     ACCESS:    1090098  HIT:    1064352  MISS:      25746
cpu0_STLB LOAD      ACCESS:    1083278  HIT:    1057835  MISS:      25443
cpu0_STLB RFO       ACCESS:       6820  HIT:       6517  MISS:        303
cpu0_STLB PREFETCH  ACCESS:          0  HIT:          0  MISS:          0
cpu0_STLB WRITEBACK ACCESS:          0  HIT:          0  MISS:          0
cpu0_L1D TOTAL     ACCESS:    1770243  HIT:     667628  MISS:    1102615
cpu0_L1D LOAD      ACCESS:    1673944  HIT:     579937  MISS:    1094007
cpu0_L1D RFO       ACCESS:      70600  HIT:      69142  MISS:       1458
cpu0_L1D PREFETCH  ACCESS:          0  HIT:          0  MISS:          0
cpu0_L1D WRITEBACK ACCESS:          0  HIT:          0  MISS:          0
cpu0_L2C TOTAL     ACCESS:    1124498  HIT:     343553  MISS:     780945
cpu0_L2C LOAD      ACCESS:    1094003  HIT:     319212  MISS:     774791
cpu0_L2C RFO       ACCESS:       1458  HIT:        776  MISS:        682
cpu0_L2C PREFETCH  ACCESS:          0  HIT:          0  MISS:          0
cpu0_L2C WRITEBACK ACCESS:      21887  HIT:      21887  MISS:          0
LLC TOTAL     ACCESS:     792071  HIT:     389522  MISS:     402549
LLC LOAD      ACCESS:     774791  HIT:     372493  MISS:     402298
LLC RFO       ACCESS:        682  HIT:        437  MISS:        245
LLC PREFETCH  ACCESS:          0  HIT:          0  MISS:          0
LLC WRITEBACK ACCESS:      11126  HIT:      11120  MISS:          6
Heartbeat CPU 0 instructions: 60000001 cycles: 124259422 heartbeat IPC: 0.0944792 cumulative IPC: 0.092098 (Simulation time: 1 hr 4 min 12 sec) 

Region of Interest Statistics
cpu0_DTLB TOTAL     ACCESS:    2104225  HIT:     748559  MISS:    1355666
cpu0_DTLB LOAD      ACCESS:    2049011  HIT:     702856  MISS:    1346155
cpu0_DTLB RFO       ACCESS:      55214  HIT:      45703  MISS:       9511
cpu0_DTLB PREFETCH  ACCESS:          0  HIT:          0  MISS:          0
cpu0_DTLB WRITEBACK ACCESS:          0  HIT:          0  MISS:          0
cpu0_ITLB TOTAL     ACCESS:    1107868  HIT:    1107868  MISS:          0
cpu0_ITLB LOAD      ACCESS:    1107868  HIT:    1107868  MISS:          0
cpu0_ITLB RFO       ACCESS:          0  HIT:          0  MISS:          0
cpu0_ITLB PREFETCH  ACCESS:          0  HIT:          0  MISS:          0
cpu0_ITLB WRITEBACK ACCESS:          0  HIT:          0  MISS:          0
cpu0_STLB TOTAL     ACCESS:    1355666  HIT:    1323266  MISS:      32400
cpu0_STLB LOAD      ACCESS:    1346155  HIT:    1314136  MISS:      32019
cpu0_STLB RFO       ACCESS:       9511  HIT:       9130  MISS:        381
cpu0_STLB PREFETCH  ACCESS:          0  HIT:          0  MISS:          0
cpu0_STLB WRITEBACK ACCESS:          0  HIT:          0  MISS:          0
cpu0_L1D TOTAL     ACCESS:    2220902  HIT:     847198  MISS:    1373704
cpu0_L1D LOAD      ACCESS:    2096458  HIT:     733554  MISS:    1362904
cpu0_L1D RFO       ACCESS:      92099  HIT:      90211  MISS:       1888
cpu0_L1D PREFETCH  ACCESS:          0  HIT:          0  MISS:          0
cpu0_L1D WRITEBACK ACCESS:          0  HIT:          0  MISS:          0
cpu0_L2C TOTAL     ACCESS:    1402901  HIT:     432733  MISS:     970168
cpu0_L2C LOAD      ACCESS:    1362900  HIT:     400414  MISS:     962486
cpu0_L2C RFO       ACCESS:       1888  HIT:       1014  MISS:        874
cpu0_L2C PREFETCH  ACCESS:          0  HIT:          0  MISS:          0
cpu0_L2C WRITEBACK ACCESS:      29201  HIT:      29201  MISS:          0
LLC TOTAL     ACCESS:     984405  HIT:     485518  MISS:     498887
LLC LOAD      ACCESS:     962486  HIT:     463923  MISS:     498563
LLC RFO       ACCESS:        874  HIT:        560  MISS:        314
LLC PREFETCH  ACCESS:          0  HIT:          0  MISS:          0
LLC WRITEBACK ACCESS:      14237  HIT:      14227  MISS:         10
Heartbeat CPU 0 instructions: 62000002 cycles: 153755980 heartbeat IPC: 0.0678046 cumulative IPC: 0.0869084 (Simulation time: 1 hr 10 min 0 sec) 

Region of Interest Statistics
cpu0_DTLB TOTAL     ACCESS:    2583205  HIT:    1035284  MISS:    1547921
cpu0_DTLB LOAD      ACCESS:    2468785  HIT:     931207  MISS:    1537578
cpu0_DTLB RFO       ACCESS:     114420  HIT:     104077  MISS:      10343
cpu0_DTLB PREFETCH  ACCESS:          0  HIT:          0  MISS:          0
cpu0_DTLB WRITEBACK ACCESS:          0  HIT:          0  MISS:          0
cpu0_ITLB TOTAL     ACCESS:    1393127  HIT:    1393127  MISS:          0
cpu0_ITLB LOAD      ACCESS:    1393127  HIT:    1393127  MISS:          0
cpu0_ITLB RFO       ACCESS:          0  HIT:          0  MISS:          0
cpu0_ITLB PREFETCH  ACCESS:          0  HIT:          0  MISS:          0
cpu0_ITLB WRITEBACK ACCESS:          0  HIT:          0  MISS:          0
cpu0_STLB TOTAL     ACCESS:    1547921  HIT:    1477069  MISS:      70852
cpu0_STLB LOAD      ACCESS:    1537578  HIT:    1467178  MISS:      70400
cpu0_STLB RFO       ACCESS:      10343  HIT:       9891  MISS:        452
cpu0_STLB PREFETCH  ACCESS:          0  HIT:          0  MISS:          0
cpu0_STLB WRITEBACK ACCESS:          0  HIT:          0  MISS:          0
cpu0_L1D TOTAL     ACCESS:    2762604  HIT:    1118619  MISS:    1643985
cpu0_L1D LOAD      ACCESS:    2532782  HIT:     911134  MISS:    1621648
cpu0_L1D RFO       ACCESS:     159162  HIT:     151124  MISS:       8038
cpu0_L1D PREFETCH  ACCESS:          0  HIT:          0  MISS:          0
cpu0_L1D WRITEBACK ACCESS:          0  HIT:          0  MISS:          0
cpu0_L2C TOTAL     ACCESS:    1726716  HIT:     531907  MISS:    1194809
cpu0_L2C LOAD      ACCESS:    1621643  HIT:     440169  MISS:    1181474
cpu0_L2C RFO       ACCESS:       8038  HIT:       2561  MISS:       5477
cpu0_L2C PREFETCH  ACCESS:          0  HIT:          0  MISS:          0
cpu0_L2C WRITEBACK ACCESS:      82736  HIT:      82736  MISS:          0
LLC TOTAL     ACCESS:    1260635  HIT:     599958  MISS:     660677
LLC LOAD      ACCESS:    1181474  HIT:     523613  MISS:     657861
LLC RFO       ACCESS:       5477  HIT:       2809  MISS:       2668
LLC PREFETCH  ACCESS:          0  HIT:          0  MISS:          0
LLC WRITEBACK ACCESS:      65826  HIT:      65725  MISS:        101
Heartbeat CPU 0 instructions: 64000001 cycles: 175227655 heartbeat IPC: 0.0931459 cumulative IPC: 0.0877478 (Simulation time: 1 hr 14 min 49 sec) 

Region of Interest Statistics
cpu0_DTLB TOTAL     ACCESS:    3002741  HIT:    1190693  MISS:    1812048
cpu0_DTLB LOAD      ACCESS:    2874657  HIT:    1075108  MISS:    1799549
cpu0_DTLB RFO       ACCESS:     128084  HIT:     115585  MISS:      12499
cpu0_DTLB PREFETCH  ACCESS:          0  HIT:          0  MISS:          0
cpu0_DTLB WRITEBACK ACCESS:          0  HIT:          0  MISS:          0
cpu0_ITLB TOTAL     ACCESS:    1613741  HIT:    1613741  MISS:          0
cpu0_ITLB LOAD      ACCESS:    1613741  HIT:    1613741  MISS:          0
cpu0_ITLB RFO       ACCESS:          0  HIT:          0  MISS:          0
cpu0_ITLB PREFETCH  ACCESS:          0  HIT:          0  MISS:          0
cpu0_ITLB WRITEBACK ACCESS:          0  HIT:          0  MISS:          0
cpu0_STLB TOTAL     ACCESS:    1812048  HIT:    1735188  MISS:      76860
cpu0_STLB LOAD      ACCESS:    1799549  HIT:    1723225  MISS:      76324
cpu0_STLB RFO       ACCESS:      12499  HIT:      11963  MISS:        536
cpu0_STLB PREFETCH  ACCESS:          0  HIT:          0  MISS:          0
cpu0_STLB WRITEBACK ACCESS:          0  HIT:          0  MISS:          0
cpu0_L1D TOTAL     ACCESS:    3210886  HIT:    1297908  MISS:    1912978
cpu0_L1D LOAD      ACCESS:    2951235  HIT:    1062705  MISS:    1888530
cpu0_L1D RFO       ACCESS:     182992  HIT:     174476  MISS:       8516
cpu0_L1D PREFETCH  ACCESS:          0  HIT:          0  MISS:          0
cpu0_L1D WRITEBACK ACCESS:          0  HIT:          0  MISS:          0
cpu0_L2C TOTAL     ACCESS:    2002808  HIT:     617952  MISS:    1384856
cpu0_L2C LOAD      ACCESS:    1888523  HIT:     518545  MISS:    1369978
cpu0_L2C RFO       ACCESS:       8516  HIT:       2831  MISS:       5685
cpu0_L2C PREFETCH  ACCESS:          0  HIT:          0  MISS:          0
cpu0_L2C WRITEBACK ACCESS:      89837  HIT:      89837  MISS:          0
LLC TOTAL     ACCESS:    1454241  HIT:     694203  MISS:     760038
LLC LOAD      ACCESS:    1369978  HIT:     612852  MISS:     757126
LLC RFO       ACCESS:       5685  HIT:       2936  MISS:       2749
LLC PREFETCH  ACCESS:          0  HIT:          0  MISS:          0
LLC WRITEBACK ACCESS:      69385  HIT:      69269  MISS:        116
Heartbeat CPU 0 instructions: 66000001 cycles: 195347187 heartbeat IPC: 0.0994059 cumulative IPC: 0.0890533 (Simulation time: 1 hr 19 min 38 sec) 

Region of Interest Statistics
cpu0_DTLB TOTAL     ACCESS:    3427417  HIT:    1366441  MISS:    2060976
cpu0_DTLB LOAD      ACCESS:    3278702  HIT:    1233461  MISS:    2045241
cpu0_DTLB RFO       ACCESS:     148715  HIT:     132980  MISS:      15735
cpu0_DTLB PREFETCH  ACCESS:          0  HIT:          0  MISS:          0
cpu0_DTLB WRITEBACK ACCESS:          0  HIT:          0  MISS:          0
cpu0_ITLB TOTAL     ACCESS:    1835474  HIT:    1835474  MISS:          0
cpu0_ITLB LOAD      ACCESS:    1835474  HIT:    1835474  MISS:          0
cpu0_ITLB RFO       ACCESS:          0  HIT:          0  MISS:          0
cpu0_ITLB PREFETCH  ACCESS:          0  HIT:          0  MISS:          0
cpu0_ITLB WRITEBACK ACCESS:          0  HIT:          0  MISS:          0
cpu0_STLB TOTAL     ACCESS:    2060976  HIT:    1978010  MISS:      82966
cpu0_STLB LOAD      ACCESS:    2045241  HIT:    1962925  MISS:      82316
cpu0_STLB RFO       ACCESS:      15735  HIT:      15085  MISS:        650
cpu0_STLB PREFETCH  ACCESS:          0  HIT:          0  MISS:          0
cpu0_STLB WRITEBACK ACCESS:          0  HIT:          0  MISS:          0
cpu0_L1D TOTAL     ACCESS:    3674339  HIT:    1502077  MISS:    2172262
cpu0_L1D LOAD      ACCESS:    3374282  HIT:    1228739  MISS:    2145543
cpu0_L1D RFO       ACCESS:     217297  HIT:     208090  MISS:       9207
cpu0_L1D PREFETCH  ACCESS:          0  HIT:          0  MISS:          0
cpu0_L1D WRITEBACK ACCESS:          0  HIT:          0  MISS:          0
cpu0_L2C TOTAL     ACCESS:    2272977  HIT:     709783  MISS:    1563194
cpu0_L2C LOAD      ACCESS:    2145535  HIT:     598690  MISS:    1546845
cpu0_L2C RFO       ACCESS:       9207  HIT:       3281  MISS:       5926
cpu0_L2C PREFETCH  ACCESS:          0  HIT:          0  MISS:          0
cpu0_L2C WRITEBACK ACCESS:     100723  HIT:     100723  MISS:          0
LLC TOTAL     ACCESS:    1637433  HIT:     786484  MISS:     850949
LLC LOAD      ACCESS:    1546845  HIT:     698924  MISS:     847921
LLC RFO       ACCESS:       5926  HIT:       3064  MISS:       2862
LLC PREFETCH  ACCESS:          0  HIT:          0  MISS:          0
LLC WRITEBACK ACCESS:      74239  HIT:      74120  MISS:        119
Heartbeat CPU 0 instructions: 68000000 cycles: 214874385 heartbeat IPC: 0.102421 cumulative IPC: 0.0903638 (Simulation time: 1 hr 24 min 18 sec) 

Region of Interest Statistics
cpu0_DTLB TOTAL     ACCESS:    3851232  HIT:    1545412  MISS:    2305820
cpu0_DTLB LOAD      ACCESS:    3681098  HIT:    1393576  MISS:    2287522
cpu0_DTLB RFO       ACCESS:     170134  HIT:     151836  MISS:      18298
cpu0_DTLB PREFETCH  ACCESS:          0  HIT:          0  MISS:          0
cpu0_DTLB WRITEBACK ACCESS:          0  HIT:          0  MISS:          0
cpu0_ITLB TOTAL     ACCESS:    2056534  HIT:    2056534  MISS:          0
cpu0_ITLB LOAD      ACCESS:    2056534  HIT:    2056534  MISS:          0
cpu0_ITLB RFO       ACCESS:          0  HIT:          0  MISS:          0
cpu0_ITLB PREFETCH  ACCESS:          0  HIT:          0  MISS:          0
cpu0_ITLB WRITEBACK ACCESS:          0  HIT:          0  MISS:          0
cpu0_STLB TOTAL     ACCESS:    2305820  HIT:    2216982  MISS:      88838
cpu0_STLB LOAD      ACCESS:    2287522  HIT:    2199438  MISS:      88084
cpu0_STLB RFO       ACCESS:      18298  HIT:      17544  MISS:        754
cpu0_STLB PREFETCH  ACCESS:          0  HIT:          0  MISS:          0
cpu0_STLB WRITEBACK ACCESS:          0  HIT:          0  MISS:          0
cpu0_L1D TOTAL     ACCESS:    4137480  HIT:    1711566  MISS:    2425914
cpu0_L1D LOAD      ACCESS:    3794376  HIT:    1397479  MISS:    2396897
cpu0_L1D RFO       ACCESS:     254478  HIT:     244515  MISS:       9963
cpu0_L1D PREFETCH  ACCESS:          0  HIT:          0  MISS:          0
cpu0_L1D WRITEBACK ACCESS:          0  HIT:          0  MISS:          0
cpu0_L2C TOTAL     ACCESS:    2536957  HIT:     800580  MISS:    1736377
cpu0_L2C LOAD      ACCESS:    2396888  HIT:     678318  MISS:    1718570
cpu0_L2C RFO       ACCESS:       9963  HIT:       3769  MISS:       6194
cpu0_L2C PREFETCH  ACCESS:          0  HIT:          0  MISS:          0
cpu0_L2C WRITEBACK ACCESS:     111052  HIT:     111052  MISS:          0
LLC TOTAL     ACCESS:    1814646  HIT:     876048  MISS:     938598
LLC LOAD      ACCESS:    1718570  HIT:     783119  MISS:     935451
LLC RFO       ACCESS:       6194  HIT:       3213  MISS:       2981
LLC PREFETCH  ACCESS:          0  HIT:          0  MISS:          0
LLC WRITEBACK ACCESS:      78269  HIT:      78150  MISS:        119
Heartbeat CPU 0 instructions: 70000000 cycles: 244802057 heartbeat IPC: 0.0668278 cumulative IPC: 0.0872895 (Simulation time: 1 hr 30 min 40 sec) 

Region of Interest Statistics
cpu0_DTLB TOTAL     ACCESS:    4330413  HIT:    1828213  MISS:    2502200
cpu0_DTLB LOAD      ACCESS:    4102851  HIT:    1619673  MISS:    2483178
cpu0_DTLB RFO       ACCESS:     227562  HIT:     208540  MISS:      19022
cpu0_DTLB PREFETCH  ACCESS:          0  HIT:          0  MISS:          0
cpu0_DTLB WRITEBACK ACCESS:          0  HIT:          0  MISS:          0
cpu0_ITLB TOTAL     ACCESS:    2342301  HIT:    2342301  MISS:          0
cpu0_ITLB LOAD      ACCESS:    2342301  HIT:    2342301  MISS:          0
cpu0_ITLB RFO       ACCESS:          0  HIT:          0  MISS:          0
cpu0_ITLB PREFETCH  ACCESS:          0  HIT:          0  MISS:          0
cpu0_ITLB WRITEBACK ACCESS:          0  HIT:          0  MISS:          0
cpu0_STLB TOTAL     ACCESS:    2502200  HIT:    2374881  MISS:     127319
cpu0_STLB LOAD      ACCESS:    2483178  HIT:    2356678  MISS:     126500
cpu0_STLB RFO       ACCESS:      19022  HIT:      18203  MISS:        819
cpu0_STLB PREFETCH  ACCESS:          0  HIT:          0  MISS:          0
cpu0_STLB WRITEBACK ACCESS:          0  HIT:          0  MISS:          0
cpu0_L1D TOTAL     ACCESS:    4677157  HIT:    1977162  MISS:    2699995
cpu0_L1D LOAD      ACCESS:    4232071  HIT:    1572578  MISS:    2659493
cpu0_L1D RFO       ACCESS:     318108  HIT:     302067  MISS:      16041
cpu0_L1D PREFETCH  ACCESS:          0  HIT:          0  MISS:          0
cpu0_L1D WRITEBACK ACCESS:          0  HIT:          0  MISS:          0
cpu0_L2C TOTAL     ACCESS:    2864269  HIT:     899741  MISS:    1964528
cpu0_L2C LOAD      ACCESS:    2659483  HIT:     718391  MISS:    1941092
cpu0_L2C RFO       ACCESS:      16041  HIT:       5232  MISS:      10809
cpu0_L2C PREFETCH  ACCESS:          0  HIT:          0  MISS:          0
cpu0_L2C WRITEBACK ACCESS:     164284  HIT:     164284  MISS:          0
LLC TOTAL     ACCESS:    2094411  HIT:     992649  MISS:    1101762
LLC LOAD      ACCESS:    1941092  HIT:     844927  MISS:    1096165
LLC RFO       ACCESS:      10809  HIT:       5501  MISS:       5308
LLC PREFETCH  ACCESS:          0  HIT:          0  MISS:          0
LLC WRITEBACK ACCESS:     129883  HIT:     129671  MISS:        212
Heartbeat CPU 0 instructions: 72000001 cycles: 265185554 heartbeat IPC: 0.0981186 cumulative IPC: 0.0881742 (Simulation time: 1 hr 35 min 34 sec) 

Region of Interest Statistics
cpu0_DTLB TOTAL     ACCESS:    4752568  HIT:    2000168  MISS:    2752400
cpu0_DTLB LOAD      ACCESS:    4506242  HIT:    1774387  MISS:    2731855
cpu0_DTLB RFO       ACCESS:     246326  HIT:     225781  MISS:      20545
cpu0_DTLB PREFETCH  ACCESS:          0  HIT:          0  MISS:          0
cpu0_DTLB WRITEBACK ACCESS:          0  HIT:          0  MISS:          0
cpu0_ITLB TOTAL     ACCESS:    2563291  HIT:    2563291  MISS:          0
cpu0_ITLB LOAD      ACCESS:    2563291  HIT:    2563291  MISS:          0
cpu0_ITLB RFO       ACCESS:          0  HIT:          0  MISS:          0
cpu0_ITLB PREFETCH  ACCESS:          0  HIT:          0  MISS:          0
cpu0_ITLB WRITEBACK ACCESS:          0  HIT:          0  MISS:          0
cpu0_STLB TOTAL     ACCESS:    2752400  HIT:    2618974  MISS:     133426
cpu0_STLB LOAD      ACCESS:    2731855  HIT:    2599354  MISS:     132501
cpu0_STLB RFO       ACCESS:      20545  HIT:      19620  MISS:        925
cpu0_STLB PREFETCH  ACCESS:          0  HIT:          0  MISS:          0
cpu0_STLB WRITEBACK ACCESS:          0  HIT:          0  MISS:          0
cpu0_L1D TOTAL     ACCESS:    5133026  HIT:    2173292  MISS:    2959734
cpu0_L1D LOAD      ACCESS:    4649160  HIT:    1732318  MISS:    2916842
cpu0_L1D RFO       ACCESS:     350784  HIT:     333979  MISS:      16805
cpu0_L1D PREFETCH  ACCESS:          0  HIT:          0  MISS:          0
cpu0_L1D WRITEBACK ACCESS:          0  HIT:          0  MISS:          0
cpu0_L2C TOTAL     ACCESS:    3133418  HIT:     990174  MISS:    2143244
cpu0_L2C LOAD      ACCESS:    2916830  HIT:     798501  MISS:    2118329
cpu0_L2C RFO       ACCESS:      16805  HIT:       5733  MISS:      11072
cpu0_L2C PREFETCH  ACCESS:          0  HIT:          0  MISS:          0
cpu0_L2C WRITEBACK ACCESS:     173696  HIT:     173696  MISS:          0
LLC TOTAL     ACCESS:    2277632  HIT:    1082412  MISS:    1195220
LLC LOAD      ACCESS:    2118329  HIT:     928846  MISS:    1189483
LLC RFO       ACCESS:      11072  HIT:       5634  MISS:       5438
LLC PREFETCH  ACCESS:          0  HIT:          0  MISS:          0
LLC WRITEBACK ACCESS:     134388  HIT:     134166  MISS:        222
Heartbeat CPU 0 instructions: 74000002 cycles: 286919774 heartbeat IPC: 0.0920208 cumulative IPC: 0.0884824 (Simulation time: 1 hr 40 min 37 sec) 

Region of Interest Statistics
cpu0_DTLB TOTAL     ACCESS:    5173151  HIT:    2149258  MISS:    3023893
cpu0_DTLB LOAD      ACCESS:    4916311  HIT:    1914682  MISS:    3001629
cpu0_DTLB RFO       ACCESS:     256840  HIT:     234576  MISS:      22264
cpu0_DTLB PREFETCH  ACCESS:          0  HIT:          0  MISS:          0
cpu0_DTLB WRITEBACK ACCESS:          0  HIT:          0  MISS:          0
cpu0_ITLB TOTAL     ACCESS:    2785307  HIT:    2785307  MISS:          0
cpu0_ITLB LOAD      ACCESS:    2785307  HIT:    2785307  MISS:          0
cpu0_ITLB RFO       ACCESS:          0  HIT:          0  MISS:          0
cpu0_ITLB PREFETCH  ACCESS:          0  HIT:          0  MISS:          0
cpu0_ITLB WRITEBACK ACCESS:          0  HIT:          0  MISS:          0
cpu0_STLB TOTAL     ACCESS:    3023893  HIT:    2884171  MISS:     139722
cpu0_STLB LOAD      ACCESS:    3001629  HIT:    2862901  MISS:     138728
cpu0_STLB RFO       ACCESS:      22264  HIT:      21270  MISS:        994
cpu0_STLB PREFETCH  ACCESS:          0  HIT:          0  MISS:          0
cpu0_STLB WRITEBACK ACCESS:          0  HIT:          0  MISS:          0
cpu0_L1D TOTAL     ACCESS:    5576699  HIT:    2342358  MISS:    3234341
cpu0_L1D LOAD      ACCESS:    5068602  HIT:    1879391  MISS:    3189211
cpu0_L1D RFO       ACCESS:     368726  HIT:     351490  MISS:      17236
cpu0_L1D PREFETCH  ACCESS:          0  HIT:          0  MISS:          0
cpu0_L1D WRITEBACK ACCESS:          0  HIT:          0  MISS:          0
cpu0_L2C TOTAL     ACCESS:    3413889  HIT:    1075771  MISS:    2338118
cpu0_L2C LOAD      ACCESS:    3189198  HIT:     877556  MISS:    2311642
cpu0_L2C RFO       ACCESS:      17236  HIT:       5976  MISS:      11260
cpu0_L2C PREFETCH  ACCESS:          0  HIT:          0  MISS:          0
cpu0_L2C WRITEBACK ACCESS:     179561  HIT:     179561  MISS:          0
LLC TOTAL     ACCESS:    2475886  HIT:    1181339  MISS:    1294547
LLC LOAD      ACCESS:    2311642  HIT:    1022905  MISS:    1288737
LLC RFO       ACCESS:      11260  HIT:       5751  MISS:       5509
LLC PREFETCH  ACCESS:          0  HIT:          0  MISS:          0
LLC WRITEBACK ACCESS:     137768  HIT:     137544  MISS:        224
Heartbeat CPU 0 instructions: 76000000 cycles: 308529252 heartbeat IPC: 0.0925519 cumulative IPC: 0.0887827 (Simulation time: 1 hr 45 min 43 sec) 

Region of Interest Statistics
cpu0_DTLB TOTAL     ACCESS:    5592596  HIT:    2296822  MISS:    3295774
cpu0_DTLB LOAD      ACCESS:    5325307  HIT:    2053351  MISS:    3271956
cpu0_DTLB RFO       ACCESS:     267289  HIT:     243471  MISS:      23818
cpu0_DTLB PREFETCH  ACCESS:          0  HIT:          0  MISS:          0
cpu0_DTLB WRITEBACK ACCESS:          0  HIT:          0  MISS:          0
cpu0_ITLB TOTAL     ACCESS:    3006880  HIT:    3006880  MISS:          0
cpu0_ITLB LOAD      ACCESS:    3006880  HIT:    3006880  MISS:          0
cpu0_ITLB RFO       ACCESS:          0  HIT:          0  MISS:          0
cpu0_ITLB PREFETCH  ACCESS:          0  HIT:          0  MISS:          0
cpu0_ITLB WRITEBACK ACCESS:          0  HIT:          0  MISS:          0
cpu0_STLB TOTAL     ACCESS:    3295774  HIT:    3150002  MISS:     145772
cpu0_STLB LOAD      ACCESS:    3271956  HIT:    3127255  MISS:     144701
cpu0_STLB RFO       ACCESS:      23818  HIT:      22747  MISS:       1071
cpu0_STLB PREFETCH  ACCESS:          0  HIT:          0  MISS:          0
cpu0_STLB WRITEBACK ACCESS:          0  HIT:          0  MISS:          0
cpu0_L1D TOTAL     ACCESS:    6018869  HIT:    2510818  MISS:    3508051
cpu0_L1D LOAD      ACCESS:    5486833  HIT:    2026047  MISS:    3460786
cpu0_L1D RFO       ACCESS:     386628  HIT:     368972  MISS:      17656
cpu0_L1D PREFETCH  ACCESS:          0  HIT:          0  MISS:          0
cpu0_L1D WRITEBACK ACCESS:          0  HIT:          0  MISS:          0
cpu0_L2C TOTAL     ACCESS:    3693131  HIT:    1161593  MISS:    2531538
cpu0_L2C LOAD      ACCESS:    3460772  HIT:     957223  MISS:    2503549
cpu0_L2C RFO       ACCESS:      17656  HIT:       6218  MISS:      11438
cpu0_L2C PREFETCH  ACCESS:          0  HIT:          0  MISS:          0
cpu0_L2C WRITEBACK ACCESS:     185094  HIT:     185094  MISS:          0
LLC TOTAL     ACCESS:    2672247  HIT:    1278712  MISS:    1393535
LLC LOAD      ACCESS:    2503549  HIT:    1115894  MISS:    1387655
LLC RFO       ACCESS:      11438  HIT:       5859  MISS:       5579
LLC PREFETCH  ACCESS:          0  HIT:          0  MISS:          0
LLC WRITEBACK ACCESS:     140709  HIT:     140485  MISS:        224
Heartbeat CPU 0 instructions: 78000004 cycles: 331183102 heartbeat IPC: 0.0882854 cumulative IPC: 0.088747 (Simulation time: 1 hr 50 min 56 sec) 

Region of Interest Statistics
cpu0_DTLB TOTAL     ACCESS:    6023882  HIT:    2482041  MISS:    3541841
cpu0_DTLB LOAD      ACCESS:    5731897  HIT:    2215116  MISS:    3516781
cpu0_DTLB RFO       ACCESS:     291985  HIT:     266925  MISS:      25060
cpu0_DTLB PREFETCH  ACCESS:          0  HIT:          0  MISS:          0
cpu0_DTLB WRITEBACK ACCESS:          0  HIT:          0  MISS:          0
cpu0_ITLB TOTAL     ACCESS:    3240737  HIT:    3240737  MISS:          0
cpu0_ITLB LOAD      ACCESS:    3240737  HIT:    3240737  MISS:          0
cpu0_ITLB RFO       ACCESS:          0  HIT:          0  MISS:          0
cpu0_ITLB PREFETCH  ACCESS:          0  HIT:          0  MISS:          0
cpu0_ITLB WRITEBACK ACCESS:          0  HIT:          0  MISS:          0
cpu0_STLB TOTAL     ACCESS:    3541841  HIT:    3381890  MISS:     159951
cpu0_STLB LOAD      ACCESS:    3516781  HIT:    3358002  MISS:     158779
cpu0_STLB RFO       ACCESS:      25060  HIT:      23888  MISS:       1172
cpu0_STLB PREFETCH  ACCESS:          0  HIT:          0  MISS:          0
cpu0_STLB WRITEBACK ACCESS:          0  HIT:          0  MISS:          0
cpu0_L1D TOTAL     ACCESS:    6486694  HIT:    2709820  MISS:    3776874
cpu0_L1D LOAD      ACCESS:    5906128  HIT:    2181091  MISS:    3725037
cpu0_L1D RFO       ACCESS:     421001  HIT:     401402  MISS:      19599
cpu0_L1D PREFETCH  ACCESS:          0  HIT:          0  MISS:          0
cpu0_L1D WRITEBACK ACCESS:          0  HIT:          0  MISS:          0
cpu0_L2C TOTAL     ACCESS:    3980164  HIT:    1252033  MISS:    2728131
cpu0_L2C LOAD      ACCESS:    3725023  HIT:    1027424  MISS:    2697599
cpu0_L2C RFO       ACCESS:      19599  HIT:       6905  MISS:      12694
cpu0_L2C PREFETCH  ACCESS:          0  HIT:          0  MISS:          0
cpu0_L2C WRITEBACK ACCESS:     203304  HIT:     203304  MISS:          0
LLC TOTAL     ACCESS:    2881258  HIT:    1376734  MISS:    1504524
LLC LOAD      ACCESS:    2697599  HIT:    1199642  MISS:    1497957
LLC RFO       ACCESS:      12694  HIT:       6430  MISS:       6264
LLC PREFETCH  ACCESS:          0  HIT:          0  MISS:          0
LLC WRITEBACK ACCESS:     153127  HIT:     152901  MISS:        226
Heartbeat CPU 0 instructions: 80000001 cycles: 358802560 heartbeat IPC: 0.0724126 cumulative IPC: 0.0874322 (Simulation time: 1 hr 56 min 52 sec) 

Region of Interest Statistics
cpu0_DTLB TOTAL     ACCESS:    6493485  HIT:    2749336  MISS:    3744149
cpu0_DTLB LOAD      ACCESS:    6150467  HIT:    2433100  MISS:    3717367
cpu0_DTLB RFO       ACCESS:     343018  HIT:     316236  MISS:      26782
cpu0_DTLB PREFETCH  ACCESS:          0  HIT:          0  MISS:          0
cpu0_DTLB WRITEBACK ACCESS:          0  HIT:          0  MISS:          0
cpu0_ITLB TOTAL     ACCESS:    3513705  HIT:    3513705  MISS:          0
cpu0_ITLB LOAD      ACCESS:    3513705  HIT:    3513705  MISS:          0
cpu0_ITLB RFO       ACCESS:          0  HIT:          0  MISS:          0
cpu0_ITLB PREFETCH  ACCESS:          0  HIT:          0  MISS:          0
cpu0_ITLB WRITEBACK ACCESS:          0  HIT:          0  MISS:          0
cpu0_STLB TOTAL     ACCESS:    3744149  HIT:    3553636  MISS:     190513
cpu0_STLB LOAD      ACCESS:    3717367  HIT:    3528109  MISS:     189258
cpu0_STLB RFO       ACCESS:      26782  HIT:      25527  MISS:       1255
cpu0_STLB PREFETCH  ACCESS:          0  HIT:          0  MISS:          0
cpu0_STLB WRITEBACK ACCESS:          0  HIT:          0  MISS:          0
cpu0_L1D TOTAL     ACCESS:    7015403  HIT:    2973395  MISS:    4042008
cpu0_L1D LOAD      ACCESS:    6343505  HIT:    2362610  MISS:    3980895
cpu0_L1D RFO       ACCESS:     481904  HIT:     457466  MISS:      24438
cpu0_L1D PREFETCH  ACCESS:          0  HIT:          0  MISS:          0
cpu0_L1D WRITEBACK ACCESS:          0  HIT:          0  MISS:          0
cpu0_L2C TOTAL     ACCESS:    4289305  HIT:    1350485  MISS:    2938820
cpu0_L2C LOAD      ACCESS:    3980879  HIT:    1077217  MISS:    2903662
cpu0_L2C RFO       ACCESS:      24438  HIT:       8111  MISS:      16327
cpu0_L2C PREFETCH  ACCESS:          0  HIT:          0  MISS:          0
cpu0_L2C WRITEBACK ACCESS:     247313  HIT:     247310  MISS:          3
LLC TOTAL     ACCESS:    3134869  HIT:    1485613  MISS:    1649256
LLC LOAD      ACCESS:    2903662  HIT:    1262927  MISS:    1640735
LLC RFO       ACCESS:      16327  HIT:       8284  MISS:       8043
LLC PREFETCH  ACCESS:          0  HIT:          0  MISS:          0
LLC WRITEBACK ACCESS:     196052  HIT:     195681  MISS:        371
Heartbeat CPU 0 instructions: 82000001 cycles: 375786015 heartbeat IPC: 0.117762 cumulative IPC: 0.0888626 (Simulation time: 2 hr 0 min 55 sec) 

Region of Interest Statistics
cpu0_DTLB TOTAL     ACCESS:    6922658  HIT:    2963083  MISS:    3959575
cpu0_DTLB LOAD      ACCESS:    6544153  HIT:    2617939  MISS:    3926214
cpu0_DTLB RFO       ACCESS:     378505  HIT:     345144  MISS:      33361
cpu0_DTLB PREFETCH  ACCESS:          0  HIT:          0  MISS:          0
cpu0_DTLB WRITEBACK ACCESS:          0  HIT:          0  MISS:          0
cpu0_ITLB TOTAL     ACCESS:    3734187  HIT:    3734187  MISS:          0
cpu0_ITLB LOAD      ACCESS:    3734187  HIT:    3734187  MISS:          0
cpu0_ITLB RFO       ACCESS:          0  HIT:          0  MISS:          0
cpu0_ITLB PREFETCH  ACCESS:          0  HIT:          0  MISS:          0
cpu0_ITLB WRITEBACK ACCESS:          0  HIT:          0  MISS:          0
cpu0_STLB TOTAL     ACCESS:    3959575  HIT:    3764336  MISS:     195239
cpu0_STLB LOAD      ACCESS:    3926214  HIT:    3732379  MISS:     193835
cpu0_STLB RFO       ACCESS:      33361  HIT:      31957  MISS:       1404
cpu0_STLB PREFETCH  ACCESS:          0  HIT:          0  MISS:          0
cpu0_STLB WRITEBACK ACCESS:          0  HIT:          0  MISS:          0
cpu0_L1D TOTAL     ACCESS:    7509367  HIT:    3235507  MISS:    4273860
cpu0_L1D LOAD      ACCESS:    6772595  HIT:    2562179  MISS:    4210416
cpu0_L1D RFO       ACCESS:     542053  HIT:     516509  MISS:      25544
cpu0_L1D PREFETCH  ACCESS:          0  HIT:          0  MISS:          0
cpu0_L1D WRITEBACK ACCESS:          0  HIT:          0  MISS:          0
cpu0_L2C TOTAL     ACCESS:    4537730  HIT:    1454881  MISS:    3082849
cpu0_L2C LOAD      ACCESS:    4210391  HIT:    1164029  MISS:    3046362
cpu0_L2C RFO       ACCESS:      25544  HIT:       8888  MISS:      16656
cpu0_L2C PREFETCH  ACCESS:          0  HIT:          0  MISS:          0
cpu0_L2C WRITEBACK ACCESS:     263895  HIT:     263890  MISS:          5
LLC TOTAL     ACCESS:    3282441  HIT:    1559381  MISS:    1723060
LLC LOAD      ACCESS:    3046362  HIT:    1332021  MISS:    1714341
LLC RFO       ACCESS:      16656  HIT:       8417  MISS:       8239
LLC PREFETCH  ACCESS:          0  HIT:          0  MISS:          0
LLC WRITEBACK ACCESS:     199597  HIT:     199224  MISS:        373
Heartbeat CPU 0 instructions: 84000000 cycles: 403693422 heartbeat IPC: 0.0716655 cumulative IPC: 0.0876257 (Simulation time: 2 hr 6 min 41 sec) 

Region of Interest Statistics
cpu0_DTLB TOTAL     ACCESS:    7405401  HIT:    3270722  MISS:    4134679
cpu0_DTLB LOAD      ACCESS:    6960254  HIT:    2862409  MISS:    4097845
cpu0_DTLB RFO       ACCESS:     445147  HIT:     408313  MISS:      36834
cpu0_DTLB PREFETCH  ACCESS:          0  HIT:          0  MISS:          0
cpu0_DTLB WRITEBACK ACCESS:          0  HIT:          0  MISS:          0
cpu0_ITLB TOTAL     ACCESS:    4019100  HIT:    4019100  MISS:          0
cpu0_ITLB LOAD      ACCESS:    4019100  HIT:    4019100  MISS:          0
cpu0_ITLB RFO       ACCESS:          0  HIT:          0  MISS:          0
cpu0_ITLB PREFETCH  ACCESS:          0  HIT:          0  MISS:          0
cpu0_ITLB WRITEBACK ACCESS:          0  HIT:          0  MISS:          0
cpu0_STLB TOTAL     ACCESS:    4134679  HIT:    3901608  MISS:     233071
cpu0_STLB LOAD      ACCESS:    4097845  HIT:    3866252  MISS:     231593
cpu0_STLB RFO       ACCESS:      36834  HIT:      35356  MISS:       1478
cpu0_STLB PREFETCH  ACCESS:          0  HIT:          0  MISS:          0
cpu0_STLB WRITEBACK ACCESS:          0  HIT:          0  MISS:          0
cpu0_L1D TOTAL     ACCESS:    8069629  HIT:    3536837  MISS:    4532792
cpu0_L1D LOAD      ACCESS:    7216925  HIT:    2759135  MISS:    4457790
cpu0_L1D RFO       ACCESS:     620275  HIT:     588349  MISS:      31926
cpu0_L1D PREFETCH  ACCESS:          0  HIT:          0  MISS:          0
cpu0_L1D WRITEBACK ACCESS:          0  HIT:          0  MISS:          0
cpu0_L2C TOTAL     ACCESS:    4855060  HIT:    1565146  MISS:    3289914
cpu0_L2C LOAD      ACCESS:    4457764  HIT:    1209879  MISS:    3247885
cpu0_L2C RFO       ACCESS:      31926  HIT:      10602  MISS:      21324
cpu0_L2C PREFETCH  ACCESS:          0  HIT:          0  MISS:          0
cpu0_L2C WRITEBACK ACCESS:     322294  HIT:     322289  MISS:          5
LLC TOTAL     ACCESS:    3540662  HIT:    1665938  MISS:    1874724
LLC LOAD      ACCESS:    3247885  HIT:    1384431  MISS:    1863454
LLC RFO       ACCESS:      21324  HIT:      10673  MISS:      10651
LLC PREFETCH  ACCESS:          0  HIT:          0  MISS:          0
LLC WRITEBACK ACCESS:     250753  HIT:     250262  MISS:        491
Heartbeat CPU 0 instructions: 86000000 cycles: 419337995 heartbeat IPC: 0.12784 cumulative IPC: 0.0891843 (Simulation time: 2 hr 10 min 42 sec) 

Region of Interest Statistics
cpu0_DTLB TOTAL     ACCESS:    7830310  HIT:    3494358  MISS:    4335952
cpu0_DTLB LOAD      ACCESS:    7343677  HIT:    3052965  MISS:    4290712
cpu0_DTLB RFO       ACCESS:     486633  HIT:     441393  MISS:      45240
cpu0_DTLB PREFETCH  ACCESS:          0  HIT:          0  MISS:          0
cpu0_DTLB WRITEBACK ACCESS:          0  HIT:          0  MISS:          0
cpu0_ITLB TOTAL     ACCESS:    4237316  HIT:    4237316  MISS:          0
cpu0_ITLB LOAD      ACCESS:    4237316  HIT:    4237316  MISS:          0
cpu0_ITLB RFO       ACCESS:          0  HIT:          0  MISS:          0
cpu0_ITLB PREFETCH  ACCESS:          0  HIT:          0  MISS:          0
cpu0_ITLB WRITEBACK ACCESS:          0  HIT:          0  MISS:          0
cpu0_STLB TOTAL     ACCESS:    4335952  HIT:    4099006  MISS:     236946
cpu0_STLB LOAD      ACCESS:    4290712  HIT:    4055402  MISS:     235310
cpu0_STLB RFO       ACCESS:      45240  HIT:      43604  MISS:       1636
cpu0_STLB PREFETCH  ACCESS:          0  HIT:          0  MISS:          0
cpu0_STLB WRITEBACK ACCESS:          0  HIT:          0  MISS:          0
cpu0_L1D TOTAL     ACCESS:    8576517  HIT:    3821891  MISS:    4754626
cpu0_L1D LOAD      ACCESS:    7649040  HIT:    2971820  MISS:    4677220
cpu0_L1D RFO       ACCESS:     691174  HIT:     657936  MISS:      33238
cpu0_L1D PREFETCH  ACCESS:          0  HIT:          0  MISS:          0
cpu0_L1D WRITEBACK ACCESS:          0  HIT:          0  MISS:          0
cpu0_L2C TOTAL     ACCESS:    5096532  HIT:    1676879  MISS:    3419653
cpu0_L2C LOAD      ACCESS:    4677174  HIT:    1300866  MISS:    3376308
cpu0_L2C RFO       ACCESS:      33238  HIT:      11519  MISS:      21719
cpu0_L2C PREFETCH  ACCESS:          0  HIT:          0  MISS:          0
cpu0_L2C WRITEBACK ACCESS:     341952  HIT:     341941  MISS:         11
LLC TOTAL     ACCESS:    3674007  HIT:    1731002  MISS:    1943005
LLC LOAD      ACCESS:    3376308  HIT:    1444852  MISS:    1931456
LLC RFO       ACCESS:      21719  HIT:      10832  MISS:      10887
LLC PREFETCH  ACCESS:          0  HIT:          0  MISS:          0
LLC WRITEBACK ACCESS:     254365  HIT:     253848  MISS:        517
Heartbeat CPU 0 instructions: 88000000 cycles: 445224310 heartbeat IPC: 0.0772609 cumulative IPC: 0.0884657 (Simulation time: 2 hr 16 min 12 sec) 

Region of Interest Statistics
cpu0_DTLB TOTAL     ACCESS:    8306329  HIT:    3802666  MISS:    4503663
cpu0_DTLB LOAD      ACCESS:    7750043  HIT:    3296888  MISS:    4453155
cpu0_DTLB RFO       ACCESS:     556286  HIT:     505778  MISS:      50508
cpu0_DTLB PREFETCH  ACCESS:          0  HIT:          0  MISS:          0
cpu0_DTLB WRITEBACK ACCESS:          0  HIT:          0  MISS:          0
cpu0_ITLB TOTAL     ACCESS:    4516301  HIT:    4516301  MISS:          0
cpu0_ITLB LOAD      ACCESS:    4516301  HIT:    4516301  MISS:          0
cpu0_ITLB RFO       ACCESS:          0  HIT:          0  MISS:          0
cpu0_ITLB PREFETCH  ACCESS:          0  HIT:          0  MISS:          0
cpu0_ITLB WRITEBACK ACCESS:          0  HIT:          0  MISS:          0
cpu0_STLB TOTAL     ACCESS:    4503663  HIT:    4232898  MISS:     270765
cpu0_STLB LOAD      ACCESS:    4453155  HIT:    4184126  MISS:     269029
cpu0_STLB RFO       ACCESS:      50508  HIT:      48772  MISS:       1736
cpu0_STLB PREFETCH  ACCESS:          0  HIT:          0  MISS:          0
cpu0_STLB WRITEBACK ACCESS:          0  HIT:          0  MISS:          0
cpu0_L1D TOTAL     ACCESS:    9143268  HIT:    4140977  MISS:    5002291
cpu0_L1D LOAD      ACCESS:    8095057  HIT:    3180840  MISS:    4914217
cpu0_L1D RFO       ACCESS:     778105  HIT:     738894  MISS:      39211
cpu0_L1D PREFETCH  ACCESS:          0  HIT:          0  MISS:          0
cpu0_L1D WRITEBACK ACCESS:          0  HIT:          0  MISS:          0
cpu0_L2C TOTAL     ACCESS:    5400767  HIT:    1790136  MISS:    3610631
cpu0_L2C LOAD      ACCESS:    4914171  HIT:    1352010  MISS:    3562161
cpu0_L2C RFO       ACCESS:      39211  HIT:      13206  MISS:      26005
cpu0_L2C PREFETCH  ACCESS:          0  HIT:          0  MISS:          0
cpu0_L2C WRITEBACK ACCESS:     398522  HIT:     398509  MISS:         13
LLC TOTAL     ACCESS:    3909800  HIT:    1828204  MISS:    2081596
LLC LOAD      ACCESS:    3562161  HIT:    1494411  MISS:    2067750
LLC RFO       ACCESS:      26005  HIT:      12979  MISS:      13026
LLC PREFETCH  ACCESS:          0  HIT:          0  MISS:          0
LLC WRITEBACK ACCESS:     299182  HIT:     298516  MISS:        666
Heartbeat CPU 0 instructions: 90000000 cycles: 462696528 heartbeat IPC: 0.114467 cumulative IPC: 0.089482 (Simulation time: 2 hr 20 min 28 sec) 

Region of Interest Statistics
cpu0_DTLB TOTAL     ACCESS:    8734915  HIT:    4028931  MISS:    4705984
cpu0_DTLB LOAD      ACCESS:    8135818  HIT:    3488716  MISS:    4647102
cpu0_DTLB RFO       ACCESS:     599097  HIT:     540215  MISS:      58882
cpu0_DTLB PREFETCH  ACCESS:          0  HIT:          0  MISS:          0
cpu0_DTLB WRITEBACK ACCESS:          0  HIT:          0  MISS:          0
cpu0_ITLB TOTAL     ACCESS:    4739817  HIT:    4739817  MISS:          0
cpu0_ITLB LOAD      ACCESS:    4739817  HIT:    4739817  MISS:          0
cpu0_ITLB RFO       ACCESS:          0  HIT:          0  MISS:          0
cpu0_ITLB PREFETCH  ACCESS:          0  HIT:          0  MISS:          0
cpu0_ITLB WRITEBACK ACCESS:          0  HIT:          0  MISS:          0
cpu0_STLB TOTAL     ACCESS:    4705984  HIT:    4427694  MISS:     278290
cpu0_STLB LOAD      ACCESS:    4647102  HIT:    4370686  MISS:     276416
cpu0_STLB RFO       ACCESS:      58882  HIT:      57008  MISS:       1874
cpu0_STLB PREFETCH  ACCESS:          0  HIT:          0  MISS:          0
cpu0_STLB WRITEBACK ACCESS:          0  HIT:          0  MISS:          0
cpu0_L1D TOTAL     ACCESS:    9651660  HIT:    4420875  MISS:    5230785
cpu0_L1D LOAD      ACCESS:    8526354  HIT:    3386868  MISS:    5139486
cpu0_L1D RFO       ACCESS:     847796  HIT:     806890  MISS:      40906
cpu0_L1D PREFETCH  ACCESS:          0  HIT:          0  MISS:          0
cpu0_L1D WRITEBACK ACCESS:          0  HIT:          0  MISS:          0
cpu0_L2C TOTAL     ACCESS:    5652161  HIT:    1898457  MISS:    3753704
cpu0_L2C LOAD      ACCESS:    5139432  HIT:    1435883  MISS:    3703549
cpu0_L2C RFO       ACCESS:      40906  HIT:      14143  MISS:      26763
cpu0_L2C PREFETCH  ACCESS:          0  HIT:          0  MISS:          0
cpu0_L2C WRITEBACK ACCESS:     421430  HIT:     421417  MISS:         13
LLC TOTAL     ACCESS:    4064231  HIT:    1903441  MISS:    2160790
LLC LOAD      ACCESS:    3703549  HIT:    1557153  MISS:    2146396
LLC RFO       ACCESS:      26763  HIT:      13285  MISS:      13478
LLC PREFETCH  ACCESS:          0  HIT:          0  MISS:          0
LLC WRITEBACK ACCESS:     310540  HIT:     309808  MISS:        732
Heartbeat CPU 0 instructions: 92000000 cycles: 482326295 heartbeat IPC: 0.101886 cumulative IPC: 0.0900038 (Simulation time: 2 hr 25 min 5 sec) 

Region of Interest Statistics
cpu0_DTLB TOTAL     ACCESS:    9166899  HIT:    4250634  MISS:    4916265
cpu0_DTLB LOAD      ACCESS:    8525931  HIT:    3674303  MISS:    4851628
cpu0_DTLB RFO       ACCESS:     640968  HIT:     576331  MISS:      64637
cpu0_DTLB PREFETCH  ACCESS:          0  HIT:          0  MISS:          0
cpu0_DTLB WRITEBACK ACCESS:          0  HIT:          0  MISS:          0
cpu0_ITLB TOTAL     ACCESS:    4970908  HIT:    4970908  MISS:          0
cpu0_ITLB LOAD      ACCESS:    4970908  HIT:    4970908  MISS:          0
cpu0_ITLB RFO       ACCESS:          0  HIT:          0  MISS:          0
cpu0_ITLB PREFETCH  ACCESS:          0  HIT:          0  MISS:          0
cpu0_ITLB WRITEBACK ACCESS:          0  HIT:          0  MISS:          0
cpu0_STLB TOTAL     ACCESS:    4916265  HIT:    4627141  MISS:     289124
cpu0_STLB LOAD      ACCESS:    4851628  HIT:    4564522  MISS:     287106
cpu0_STLB RFO       ACCESS:      64637  HIT:      62619  MISS:       2018
cpu0_STLB PREFETCH  ACCESS:          0  HIT:          0  MISS:          0
cpu0_STLB WRITEBACK ACCESS:          0  HIT:          0  MISS:          0
cpu0_L1D TOTAL     ACCESS:   10152500  HIT:    4678247  MISS:    5474253
cpu0_L1D LOAD      ACCESS:    8953509  HIT:    3574623  MISS:    5378886
cpu0_L1D RFO       ACCESS:     910654  HIT:     867640  MISS:      43014
cpu0_L1D PREFETCH  ACCESS:          0  HIT:          0  MISS:          0
cpu0_L1D WRITEBACK ACCESS:          0  HIT:          0  MISS:          0
cpu0_L2C TOTAL     ACCESS:    5922556  HIT:    2002673  MISS:    3919883
cpu0_L2C LOAD      ACCESS:    5378827  HIT:    1511313  MISS:    3867514
cpu0_L2C RFO       ACCESS:      43014  HIT:      15107  MISS:      27907
cpu0_L2C PREFETCH  ACCESS:          0  HIT:          0  MISS:          0
cpu0_L2C WRITEBACK ACCESS:     448362  HIT:     448349  MISS:         13
LLC TOTAL     ACCESS:    4244582  HIT:    1990087  MISS:    2254495
LLC LOAD      ACCESS:    3867512  HIT:    1628070  MISS:    2239442
LLC RFO       ACCESS:      27907  HIT:      13801  MISS:      14106
LLC PREFETCH  ACCESS:          0  HIT:          0  MISS:          0
LLC WRITEBACK ACCESS:     324714  HIT:     323951  MISS:        763
Heartbeat CPU 0 instructions: 94000002 cycles: 509491706 heartbeat IPC: 0.0736231 cumulative IPC: 0.0891027 (Simulation time: 2 hr 31 min 8 sec) 

Region of Interest Statistics
cpu0_DTLB TOTAL     ACCESS:    9636500  HIT:    4527569  MISS:    5108931
cpu0_DTLB LOAD      ACCESS:    8939001  HIT:    3897339  MISS:    5041662
cpu0_DTLB RFO       ACCESS:     697499  HIT:     630230  MISS:      67269
cpu0_DTLB PREFETCH  ACCESS:          0  HIT:          0  MISS:          0
cpu0_DTLB WRITEBACK ACCESS:          0  HIT:          0  MISS:          0
cpu0_ITLB TOTAL     ACCESS:    5244520  HIT:    5244520  MISS:          0
cpu0_ITLB LOAD      ACCESS:    5244520  HIT:    5244520  MISS:          0
cpu0_ITLB RFO       ACCESS:          0  HIT:          0  MISS:          0
cpu0_ITLB PREFETCH  ACCESS:          0  HIT:          0  MISS:          0
cpu0_ITLB WRITEBACK ACCESS:          0  HIT:          0  MISS:          0
cpu0_STLB TOTAL     ACCESS:    5108931  HIT:    4787989  MISS:     320942
cpu0_STLB LOAD      ACCESS:    5041662  HIT:    4722822  MISS:     318840
cpu0_STLB RFO       ACCESS:      67269  HIT:      65167  MISS:       2102
cpu0_STLB PREFETCH  ACCESS:          0  HIT:          0  MISS:          0
cpu0_STLB WRITEBACK ACCESS:          0  HIT:          0  MISS:          0
cpu0_L1D TOTAL     ACCESS:   10690601  HIT:    4954879  MISS:    5735722
cpu0_L1D LOAD      ACCESS:    9391099  HIT:    3760494  MISS:    5630605
cpu0_L1D RFO       ACCESS:     979471  HIT:     931252  MISS:      48219
cpu0_L1D PREFETCH  ACCESS:          0  HIT:          0  MISS:          0
cpu0_L1D WRITEBACK ACCESS:          0  HIT:          0  MISS:          0
cpu0_L2C TOTAL     ACCESS:    6232061  HIT:    2104973  MISS:    4127088
cpu0_L2C LOAD      ACCESS:    5630543  HIT:    1560591  MISS:    4069952
cpu0_L2C RFO       ACCESS:      48219  HIT:      16504  MISS:      31715
cpu0_L2C PREFETCH  ACCESS:          0  HIT:          0  MISS:          0
cpu0_L2C WRITEBACK ACCESS:     496401  HIT:     496388  MISS:         13
LLC TOTAL     ACCESS:    4496972  HIT:    2100151  MISS:    2396821
LLC LOAD      ACCESS:    4069950  HIT:    1690150  MISS:    2379800
LLC RFO       ACCESS:      31715  HIT:      15797  MISS:      15918
LLC PREFETCH  ACCESS:          0  HIT:          0  MISS:          0
LLC WRITEBACK ACCESS:     369899  HIT:     369010  MISS:        889
Heartbeat CPU 0 instructions: 96000001 cycles: 527079699 heartbeat IPC: 0.113714 cumulative IPC: 0.0899491 (Simulation time: 2 hr 35 min 32 sec) 

Region of Interest Statistics
cpu0_DTLB TOTAL     ACCESS:   10058138  HIT:    4725981  MISS:    5332157
cpu0_DTLB LOAD      ACCESS:    9328520  HIT:    4068455  MISS:    5260065
cpu0_DTLB RFO       ACCESS:     729618  HIT:     657526  MISS:      72092
cpu0_DTLB PREFETCH  ACCESS:          0  HIT:          0  MISS:          0
cpu0_DTLB WRITEBACK ACCESS:          0  HIT:          0  MISS:          0
cpu0_ITLB TOTAL     ACCESS:    5462974  HIT:    5462974  MISS:          0
cpu0_ITLB LOAD      ACCESS:    5462974  HIT:    5462974  MISS:          0
cpu0_ITLB RFO       ACCESS:          0  HIT:          0  MISS:          0
cpu0_ITLB PREFETCH  ACCESS:          0  HIT:          0  MISS:          0
cpu0_ITLB WRITEBACK ACCESS:          0  HIT:          0  MISS:          0
cpu0_STLB TOTAL     ACCESS:    5332157  HIT:    5006052  MISS:     326105
cpu0_STLB LOAD      ACCESS:    5260065  HIT:    4936200  MISS:     323865
cpu0_STLB RFO       ACCESS:      72092  HIT:      69852  MISS:       2240
cpu0_STLB PREFETCH  ACCESS:          0  HIT:          0  MISS:          0
cpu0_STLB WRITEBACK ACCESS:          0  HIT:          0  MISS:          0
cpu0_L1D TOTAL     ACCESS:   11174246  HIT:    5199893  MISS:    5974353
cpu0_L1D LOAD      ACCESS:    9814042  HIT:    3947231  MISS:    5866811
cpu0_L1D RFO       ACCESS:    1035011  HIT:     985724  MISS:      49287
cpu0_L1D PREFETCH  ACCESS:          0  HIT:          0  MISS:          0
cpu0_L1D WRITEBACK ACCESS:          0  HIT:          0  MISS:          0
cpu0_L2C TOTAL     ACCESS:    6485949  HIT:    2204739  MISS:    4281210
cpu0_L2C LOAD      ACCESS:    5866744  HIT:    1644046  MISS:    4222698
cpu0_L2C RFO       ACCESS:      49287  HIT:      17255  MISS:      32032
cpu0_L2C PREFETCH  ACCESS:          0  HIT:          0  MISS:          0
cpu0_L2C WRITEBACK ACCESS:     511663  HIT:     511650  MISS:         13
LLC TOTAL     ACCESS:    4655771  HIT:    2180406  MISS:    2475365
LLC LOAD      ACCESS:    4222696  HIT:    1764549  MISS:    2458147
LLC RFO       ACCESS:      32032  HIT:      15941  MISS:      16091
LLC PREFETCH  ACCESS:          0  HIT:          0  MISS:          0
LLC WRITEBACK ACCESS:     374576  HIT:     373663  MISS:        913
Heartbeat CPU 0 instructions: 98000000 cycles: 554359889 heartbeat IPC: 0.0733132 cumulative IPC: 0.0891066 (Simulation time: 2 hr 41 min 18 sec) 

Region of Interest Statistics
cpu0_DTLB TOTAL     ACCESS:   10539628  HIT:    5040760  MISS:    5498868
cpu0_DTLB LOAD      ACCESS:    9739169  HIT:    4315750  MISS:    5423419
cpu0_DTLB RFO       ACCESS:     800459  HIT:     725010  MISS:      75449
cpu0_DTLB PREFETCH  ACCESS:          0  HIT:          0  MISS:          0
cpu0_DTLB WRITEBACK ACCESS:          0  HIT:          0  MISS:          0
cpu0_ITLB TOTAL     ACCESS:    5746654  HIT:    5746654  MISS:          0
cpu0_ITLB LOAD      ACCESS:    5746654  HIT:    5746654  MISS:          0
cpu0_ITLB RFO       ACCESS:          0  HIT:          0  MISS:          0
cpu0_ITLB PREFETCH  ACCESS:          0  HIT:          0  MISS:          0
cpu0_ITLB WRITEBACK ACCESS:          0  HIT:          0  MISS:          0
cpu0_STLB TOTAL     ACCESS:    5498868  HIT:    5135182  MISS:     363686
cpu0_STLB LOAD      ACCESS:    5423419  HIT:    5062067  MISS:     361352
cpu0_STLB RFO       ACCESS:      75449  HIT:      73115  MISS:       2334
cpu0_STLB PREFETCH  ACCESS:          0  HIT:          0  MISS:          0
cpu0_STLB WRITEBACK ACCESS:          0  HIT:          0  MISS:          0
cpu0_L1D TOTAL     ACCESS:   11739983  HIT:    5513760  MISS:    6226223
cpu0_L1D LOAD      ACCESS:   10256136  HIT:    4148990  MISS:    6107146
cpu0_L1D RFO       ACCESS:    1121190  HIT:    1065435  MISS:      55755
cpu0_L1D PREFETCH  ACCESS:          0  HIT:          0  MISS:          0
cpu0_L1D WRITEBACK ACCESS:          0  HIT:          0  MISS:          0
cpu0_L2C TOTAL     ACCESS:    6797010  HIT:    2313424  MISS:    4483586
cpu0_L2C LOAD      ACCESS:    6107074  HIT:    1687507  MISS:    4419567
cpu0_L2C RFO       ACCESS:      55755  HIT:      19039  MISS:      36716
cpu0_L2C PREFETCH  ACCESS:          0  HIT:          0  MISS:          0
cpu0_L2C WRITEBACK ACCESS:     570859  HIT:     570845  MISS:         14
LLC TOTAL     ACCESS:    4910485  HIT:    2287048  MISS:    2623437
LLC LOAD      ACCESS:    4419565  HIT:    1815850  MISS:    2603715
LLC RFO       ACCESS:      36716  HIT:      18253  MISS:      18463
LLC PREFETCH  ACCESS:          0  HIT:          0  MISS:          0
LLC WRITEBACK ACCESS:     426915  HIT:     425890  MISS:       1025
Heartbeat CPU 0 instructions: 100000003 cycles: 569530049 heartbeat IPC: 0.131838 cumulative IPC: 0.0902771 (Simulation time: 2 hr 45 min 12 sec) 

Region of Interest Statistics
cpu0_DTLB TOTAL     ACCESS:   10964046  HIT:    5274431  MISS:    5689615
cpu0_DTLB LOAD      ACCESS:   10117005  HIT:    4511161  MISS:    5605844
cpu0_DTLB RFO       ACCESS:     847041  HIT:     763270  MISS:      83771
cpu0_DTLB PREFETCH  ACCESS:          0  HIT:          0  MISS:          0
cpu0_DTLB WRITEBACK ACCESS:          0  HIT:          0  MISS:          0
cpu0_ITLB TOTAL     ACCESS:    5964945  HIT:    5964945  MISS:          0
cpu0_ITLB LOAD      ACCESS:    5964945  HIT:    5964945  MISS:          0
cpu0_ITLB RFO       ACCESS:          0  HIT:          0  MISS:          0
cpu0_ITLB PREFETCH  ACCESS:          0  HIT:          0  MISS:          0
cpu0_ITLB WRITEBACK ACCESS:          0  HIT:          0  MISS:          0
cpu0_STLB TOTAL     ACCESS:    5689615  HIT:    5321831  MISS:     367784
cpu0_STLB LOAD      ACCESS:    5605844  HIT:    5240577  MISS:     365267
cpu0_STLB RFO       ACCESS:      83771  HIT:      81254  MISS:       2517
cpu0_STLB PREFETCH  ACCESS:          0  HIT:          0  MISS:          0
cpu0_STLB WRITEBACK ACCESS:          0  HIT:          0  MISS:          0
cpu0_L1D TOTAL     ACCESS:   12250795  HIT:    5810980  MISS:    6439815
cpu0_L1D LOAD      ACCESS:   10683133  HIT:    4364993  MISS:    6318140
cpu0_L1D RFO       ACCESS:    1200907  HIT:    1143642  MISS:      57265
cpu0_L1D PREFETCH  ACCESS:          0  HIT:          0  MISS:          0
cpu0_L1D WRITEBACK ACCESS:          0  HIT:          0  MISS:          0
cpu0_L2C TOTAL     ACCESS:    7032307  HIT:    2422651  MISS:    4609656
cpu0_L2C LOAD      ACCESS:    6318055  HIT:    1773748  MISS:    4544307
cpu0_L2C RFO       ACCESS:      57264  HIT:      20111  MISS:      37153
cpu0_L2C PREFETCH  ACCESS:          0  HIT:          0  MISS:          0
cpu0_L2C WRITEBACK ACCESS:     592578  HIT:     592563  MISS:         15
LLC TOTAL     ACCESS:    5041600  HIT:    2352033  MISS:    2689567
LLC LOAD      ACCESS:    4544305  HIT:    1874781  MISS:    2669524
LLC RFO       ACCESS:      37153  HIT:      18418  MISS:      18735
LLC PREFETCH  ACCESS:          0  HIT:          0  MISS:          0
LLC WRITEBACK ACCESS:     431961  HIT:     430897  MISS:       1064
Heartbeat CPU 0 instructions: 102000001 cycles: 596393097 heartbeat IPC: 0.0744516 cumulative IPC: 0.089545 (Simulation time: 2 hr 50 min 52 sec) 

Region of Interest Statistics
cpu0_DTLB TOTAL     ACCESS:   11443636  HIT:    5599852  MISS:    5843784
cpu0_DTLB LOAD      ACCESS:   10520146  HIT:    4763584  MISS:    5756562
cpu0_DTLB RFO       ACCESS:     923490  HIT:     836268  MISS:      87222
cpu0_DTLB PREFETCH  ACCESS:          0  HIT:          0  MISS:          0
cpu0_DTLB WRITEBACK ACCESS:          0  HIT:          0  MISS:          0
cpu0_ITLB TOTAL     ACCESS:    6248713  HIT:    6248713  MISS:          0
cpu0_ITLB LOAD      ACCESS:    6248713  HIT:    6248713  MISS:          0
cpu0_ITLB RFO       ACCESS:          0  HIT:          0  MISS:          0
cpu0_ITLB PREFETCH  ACCESS:          0  HIT:          0  MISS:          0
cpu0_ITLB WRITEBACK ACCESS:          0  HIT:          0  MISS:          0
cpu0_STLB TOTAL     ACCESS:    5843784  HIT:    5438962  MISS:     404822
cpu0_STLB LOAD      ACCESS:    5756562  HIT:    5354370  MISS:     402192
cpu0_STLB RFO       ACCESS:      87222  HIT:      84592  MISS:       2630
cpu0_STLB PREFETCH  ACCESS:          0  HIT:          0  MISS:          0
cpu0_STLB WRITEBACK ACCESS:          0  HIT:          0  MISS:          0
cpu0_L1D TOTAL     ACCESS:   12820117  HIT:    6143317  MISS:    6676800
cpu0_L1D LOAD      ACCESS:   11118719  HIT:    4575433  MISS:    6543286
cpu0_L1D RFO       ACCESS:    1297704  HIT:    1233648  MISS:      64056
cpu0_L1D PREFETCH  ACCESS:          0  HIT:          0  MISS:          0
cpu0_L1D WRITEBACK ACCESS:          0  HIT:          0  MISS:          0
cpu0_L2C TOTAL     ACCESS:    7328319  HIT:    2525546  MISS:    4802773
cpu0_L2C LOAD      ACCESS:    6543193  HIT:    1811278  MISS:    4731915
cpu0_L2C RFO       ACCESS:      64055  HIT:      22144  MISS:      41911
cpu0_L2C PREFETCH  ACCESS:          0  HIT:          0  MISS:          0
cpu0_L2C WRITEBACK ACCESS:     651613  HIT:     651596  MISS:         17
LLC TOTAL     ACCESS:    5288659  HIT:    2455662  MISS:    2832997
LLC LOAD      ACCESS:    4731913  HIT:    1921438  MISS:    2810475
LLC RFO       ACCESS:      41911  HIT:      20856  MISS:      21055
LLC PREFETCH  ACCESS:          0  HIT:          0  MISS:          0
LLC WRITEBACK ACCESS:     485905  HIT:     484710  MISS:       1195
Heartbeat CPU 0 instructions: 104000000 cycles: 610013512 heartbeat IPC: 0.146838 cumulative IPC: 0.090858 (Simulation time: 2 hr 54 min 28 sec) 

Region of Interest Statistics
cpu0_DTLB TOTAL     ACCESS:   11865398  HIT:    5846970  MISS:    6018428
cpu0_DTLB LOAD      ACCESS:   10889468  HIT:    4963465  MISS:    5926003
cpu0_DTLB RFO       ACCESS:     975930  HIT:     883505  MISS:      92425
cpu0_DTLB PREFETCH  ACCESS:          0  HIT:          0  MISS:          0
cpu0_DTLB WRITEBACK ACCESS:          0  HIT:          0  MISS:          0
cpu0_ITLB TOTAL     ACCESS:    6464734  HIT:    6464734  MISS:          0
cpu0_ITLB LOAD      ACCESS:    6464734  HIT:    6464734  MISS:          0
cpu0_ITLB RFO       ACCESS:          0  HIT:          0  MISS:          0
cpu0_ITLB PREFETCH  ACCESS:          0  HIT:          0  MISS:          0
cpu0_ITLB WRITEBACK ACCESS:          0  HIT:          0  MISS:          0
cpu0_STLB TOTAL     ACCESS:    6018428  HIT:    5609677  MISS:     408751
cpu0_STLB LOAD      ACCESS:    5926003  HIT:    5520065  MISS:     405938
cpu0_STLB RFO       ACCESS:      92425  HIT:      89612  MISS:       2813
cpu0_STLB PREFETCH  ACCESS:          0  HIT:          0  MISS:          0
cpu0_STLB WRITEBACK ACCESS:          0  HIT:          0  MISS:          0
cpu0_L1D TOTAL     ACCESS:   13331716  HIT:    6467637  MISS:    6864079
cpu0_L1D LOAD      ACCESS:   11532653  HIT:    4805179  MISS:    6727474
cpu0_L1D RFO       ACCESS:    1391440  HIT:    1325321  MISS:      66119
cpu0_L1D PREFETCH  ACCESS:          0  HIT:          0  MISS:          0
cpu0_L1D WRITEBACK ACCESS:          0  HIT:          0  MISS:          0
cpu0_L2C TOTAL     ACCESS:    7532325  HIT:    2618799  MISS:    4913526
cpu0_L2C LOAD      ACCESS:    6727370  HIT:    1886135  MISS:    4841235
cpu0_L2C RFO       ACCESS:      66118  HIT:      23559  MISS:      42559
cpu0_L2C PREFETCH  ACCESS:          0  HIT:          0  MISS:          0
cpu0_L2C WRITEBACK ACCESS:     668351  HIT:     668324  MISS:         27
LLC TOTAL     ACCESS:    5403331  HIT:    2511712  MISS:    2891619
LLC LOAD      ACCESS:    4841232  HIT:    1972568  MISS:    2868664
LLC RFO       ACCESS:      42559  HIT:      21115  MISS:      21444
LLC PREFETCH  ACCESS:          0  HIT:          0  MISS:          0
LLC WRITEBACK ACCESS:     489835  HIT:     488603  MISS:       1232
Heartbeat CPU 0 instructions: 106000000 cycles: 637012524 heartbeat IPC: 0.0740768 cumulative IPC: 0.0901288 (Simulation time: 3 hr 0 min 5 sec) 

Region of Interest Statistics
cpu0_DTLB TOTAL     ACCESS:   12344374  HIT:    6171591  MISS:    6172783
cpu0_DTLB LOAD      ACCESS:   11293689  HIT:    5215886  MISS:    6077803
cpu0_DTLB RFO       ACCESS:    1050685  HIT:     955705  MISS:      94980
cpu0_DTLB PREFETCH  ACCESS:          0  HIT:          0  MISS:          0
cpu0_DTLB WRITEBACK ACCESS:          0  HIT:          0  MISS:          0
cpu0_ITLB TOTAL     ACCESS:    6746659  HIT:    6746659  MISS:          0
cpu0_ITLB LOAD      ACCESS:    6746659  HIT:    6746659  MISS:          0
cpu0_ITLB RFO       ACCESS:          0  HIT:          0  MISS:          0
cpu0_ITLB PREFETCH  ACCESS:          0  HIT:          0  MISS:          0
cpu0_ITLB WRITEBACK ACCESS:          0  HIT:          0  MISS:          0
cpu0_STLB TOTAL     ACCESS:    6172783  HIT:    5727736  MISS:     445047
cpu0_STLB LOAD      ACCESS:    6077803  HIT:    5635681  MISS:     442122
cpu0_STLB RFO       ACCESS:      94980  HIT:      92055  MISS:       2925
cpu0_STLB PREFETCH  ACCESS:          0  HIT:          0  MISS:          0
cpu0_STLB WRITEBACK ACCESS:          0  HIT:          0  MISS:          0
cpu0_L1D TOTAL     ACCESS:   13899044  HIT:    6800773  MISS:    7098271
cpu0_L1D LOAD      ACCESS:   11967538  HIT:    5017532  MISS:    6950006
cpu0_L1D RFO       ACCESS:    1487694  HIT:    1414923  MISS:      72771
cpu0_L1D PREFETCH  ACCESS:          0  HIT:          0  MISS:          0
cpu0_L1D WRITEBACK ACCESS:          0  HIT:          0  MISS:          0
cpu0_L2C TOTAL     ACCESS:    7823325  HIT:    2720239  MISS:    5103086
cpu0_L2C LOAD      ACCESS:    6949899  HIT:    1924535  MISS:    5025364
cpu0_L2C RFO       ACCESS:      72769  HIT:      25530  MISS:      47239
cpu0_L2C PREFETCH  ACCESS:          0  HIT:          0  MISS:          0
cpu0_L2C WRITEBACK ACCESS:     725163  HIT:     725132  MISS:         31
LLC TOTAL     ACCESS:    5644538  HIT:    2609545  MISS:    3034993
LLC LOAD      ACCESS:    5025361  HIT:    2015885  MISS:    3009476
LLC RFO       ACCESS:      47239  HIT:      23423  MISS:      23816
LLC PREFETCH  ACCESS:          0  HIT:          0  MISS:          0
LLC WRITEBACK ACCESS:     541486  HIT:     540109  MISS:       1377
Heartbeat CPU 0 instructions: 108000002 cycles: 658828748 heartbeat IPC: 0.091675 cumulative IPC: 0.0901812 (Simulation time: 3 hr 5 min 1 sec) 

Region of Interest Statistics
cpu0_DTLB TOTAL     ACCESS:   12804019  HIT:    6466838  MISS:    6337181
cpu0_DTLB LOAD      ACCESS:   11688070  HIT:    5449195  MISS:    6238875
cpu0_DTLB RFO       ACCESS:    1115949  HIT:    1017643  MISS:      98306
cpu0_DTLB PREFETCH  ACCESS:          0  HIT:          0  MISS:          0
cpu0_DTLB WRITEBACK ACCESS:          0  HIT:          0  MISS:          0
cpu0_ITLB TOTAL     ACCESS:    7006093  HIT:    7006093  MISS:          0
cpu0_ITLB LOAD      ACCESS:    7006093  HIT:    7006093  MISS:          0
cpu0_ITLB RFO       ACCESS:          0  HIT:          0  MISS:          0
cpu0_ITLB PREFETCH  ACCESS:          0  HIT:          0  MISS:          0
cpu0_ITLB WRITEBACK ACCESS:          0  HIT:          0  MISS:          0
cpu0_STLB TOTAL     ACCESS:    6337181  HIT:    5867470  MISS:     469711
cpu0_STLB LOAD      ACCESS:    6238875  HIT:    5772224  MISS:     466651
cpu0_STLB RFO       ACCESS:      98306  HIT:      95246  MISS:       3060
cpu0_STLB PREFETCH  ACCESS:          0  HIT:          0  MISS:          0
cpu0_STLB WRITEBACK ACCESS:          0  HIT:          0  MISS:          0
cpu0_L1D TOTAL     ACCESS:   14445172  HIT:    7128380  MISS:    7316792
cpu0_L1D LOAD      ACCESS:   12395474  HIT:    5235363  MISS:    7160111
cpu0_L1D RFO       ACCESS:    1581229  HIT:    1503442  MISS:      77787
cpu0_L1D PREFETCH  ACCESS:          0  HIT:          0  MISS:          0
cpu0_L1D WRITEBACK ACCESS:          0  HIT:          0  MISS:          0
cpu0_L2C TOTAL     ACCESS:    8083820  HIT:    2818277  MISS:    5265543
cpu0_L2C LOAD      ACCESS:    7159996  HIT:    1976223  MISS:    5183773
cpu0_L2C RFO       ACCESS:      77785  HIT:      27283  MISS:      50502
cpu0_L2C PREFETCH  ACCESS:          0  HIT:          0  MISS:          0
cpu0_L2C WRITEBACK ACCESS:     767145  HIT:     767107  MISS:         38
LLC TOTAL     ACCESS:    5838716  HIT:    2693010  MISS:    3145706
LLC LOAD      ACCESS:    5183770  HIT:    2065224  MISS:    3118546
LLC RFO       ACCESS:      50502  HIT:      25117  MISS:      25385
LLC PREFETCH  ACCESS:          0  HIT:          0  MISS:          0
LLC WRITEBACK ACCESS:     573214  HIT:     571764  MISS:       1450
Heartbeat CPU 0 instructions: 110000003 cycles: 677691255 heartbeat IPC: 0.10603 cumulative IPC: 0.0906328 (Simulation time: 3 hr 9 min 26 sec) 

Region of Interest Statistics
cpu0_DTLB TOTAL     ACCESS:   13247246  HIT:    6740964  MISS:    6506282
cpu0_DTLB LOAD      ACCESS:   12070186  HIT:    5669058  MISS:    6401128
cpu0_DTLB RFO       ACCESS:    1177060  HIT:    1071906  MISS:     105154
cpu0_DTLB PREFETCH  ACCESS:          0  HIT:          0  MISS:          0
cpu0_DTLB WRITEBACK ACCESS:          0  HIT:          0  MISS:          0
cpu0_ITLB TOTAL     ACCESS:    7246658  HIT:    7246658  MISS:          0
cpu0_ITLB LOAD      ACCESS:    7246658  HIT:    7246658  MISS:          0
cpu0_ITLB RFO       ACCESS:          0  HIT:          0  MISS:          0
cpu0_ITLB PREFETCH  ACCESS:          0  HIT:          0  MISS:          0
cpu0_ITLB WRITEBACK ACCESS:          0  HIT:          0  MISS:          0
cpu0_STLB TOTAL     ACCESS:    6506282  HIT:    6020767  MISS:     485515
cpu0_STLB LOAD      ACCESS:    6401128  HIT:    5918840  MISS:     482288
cpu0_STLB RFO       ACCESS:     105154  HIT:     101927  MISS:       3227
cpu0_STLB PREFETCH  ACCESS:          0  HIT:          0  MISS:          0
cpu0_STLB WRITEBACK ACCESS:          0  HIT:          0  MISS:          0
cpu0_L1D TOTAL     ACCESS:   14982385  HIT:    7455793  MISS:    7526592
cpu0_L1D LOAD      ACCESS:   12822620  HIT:    5458883  MISS:    7363737
cpu0_L1D RFO       ACCESS:    1675605  HIT:    1594218  MISS:      81387
cpu0_L1D PREFETCH  ACCESS:          0  HIT:          0  MISS:          0
cpu0_L1D WRITEBACK ACCESS:          0  HIT:          0  MISS:          0
cpu0_L2C TOTAL     ACCESS:    8327856  HIT:    2923306  MISS:    5404550
cpu0_L2C LOAD      ACCESS:    7363611  HIT:    2043590  MISS:    5320021
cpu0_L2C RFO       ACCESS:      81384  HIT:      28849  MISS:      52535
cpu0_L2C PREFETCH  ACCESS:          0  HIT:          0  MISS:          0
cpu0_L2C WRITEBACK ACCESS:     801393  HIT:     801347  MISS:         46
LLC TOTAL     ACCESS:    6001758  HIT:    2765019  MISS:    3236739
LLC LOAD      ACCESS:    5320018  HIT:    2111655  MISS:    3208363
LLC RFO       ACCESS:      52535  HIT:      26047  MISS:      26488
LLC PREFETCH  ACCESS:          0  HIT:          0  MISS:          0
LLC WRITEBACK ACCESS:     597257  HIT:     595728  MISS:       1529
Heartbeat CPU 0 instructions: 112000004 cycles: 705021316 heartbeat IPC: 0.0731795 cumulative IPC: 0.0899409 (Simulation time: 3 hr 15 min 12 sec) 

Region of Interest Statistics
cpu0_DTLB TOTAL     ACCESS:   13728823  HIT:    7065736  MISS:    6663087
cpu0_DTLB LOAD      ACCESS:   12475623  HIT:    5921929  MISS:    6553694
cpu0_DTLB RFO       ACCESS:    1253200  HIT:    1143807  MISS:     109393
cpu0_DTLB PREFETCH  ACCESS:          0  HIT:          0  MISS:          0
cpu0_DTLB WRITEBACK ACCESS:          0  HIT:          0  MISS:          0
cpu0_ITLB TOTAL     ACCESS:    7531484  HIT:    7531484  MISS:          0
cpu0_ITLB LOAD      ACCESS:    7531484  HIT:    7531484  MISS:          0
cpu0_ITLB RFO       ACCESS:          0  HIT:          0  MISS:          0
cpu0_ITLB PREFETCH  ACCESS:          0  HIT:          0  MISS:          0
cpu0_ITLB WRITEBACK ACCESS:          0  HIT:          0  MISS:          0
cpu0_STLB TOTAL     ACCESS:    6663088  HIT:    6140692  MISS:     522396
cpu0_STLB LOAD      ACCESS:    6553695  HIT:    6034645  MISS:     519050
cpu0_STLB RFO       ACCESS:     109393  HIT:     106047  MISS:       3346
cpu0_STLB PREFETCH  ACCESS:          0  HIT:          0  MISS:          0
cpu0_STLB WRITEBACK ACCESS:          0  HIT:          0  MISS:          0
cpu0_L1D TOTAL     ACCESS:   15553395  HIT:    7787297  MISS:    7766098
cpu0_L1D LOAD      ACCESS:   13261224  HIT:    5669738  MISS:    7591486
cpu0_L1D RFO       ACCESS:    1771230  HIT:    1683135  MISS:      88095
cpu0_L1D PREFETCH  ACCESS:          0  HIT:          0  MISS:          0
cpu0_L1D WRITEBACK ACCESS:          0  HIT:          0  MISS:          0
cpu0_L2C TOTAL     ACCESS:    8627280  HIT:    3030033  MISS:    5597247
cpu0_L2C LOAD      ACCESS:    7591351  HIT:    2084155  MISS:    5507196
cpu0_L2C RFO       ACCESS:      88092  HIT:      30782  MISS:      57310
cpu0_L2C PREFETCH  ACCESS:          0  HIT:          0  MISS:          0
cpu0_L2C WRITEBACK ACCESS:     861320  HIT:     861271  MISS:         49
LLC TOTAL     ACCESS:    6247377  HIT:    2865574  MISS:    3381803
LLC LOAD      ACCESS:    5507193  HIT:    2156302  MISS:    3350891
LLC RFO       ACCESS:      57310  HIT:      28447  MISS:      28863
LLC PREFETCH  ACCESS:          0  HIT:          0  MISS:          0
LLC WRITEBACK ACCESS:     650182  HIT:     648521  MISS:       1661
Heartbeat CPU 0 instructions: 114000003 cycles: 718879392 heartbeat IPC: 0.14432 cumulative IPC: 0.0910125 (Simulation time: 3 hr 18 min 47 sec) 

Region of Interest Statistics
cpu0_DTLB TOTAL     ACCESS:   14152199  HIT:    7308499  MISS:    6843700
cpu0_DTLB LOAD      ACCESS:   12849687  HIT:    6121530  MISS:    6728157
cpu0_DTLB RFO       ACCESS:    1302512  HIT:    1186969  MISS:     115543
cpu0_DTLB PREFETCH  ACCESS:          0  HIT:          0  MISS:          0
cpu0_DTLB WRITEBACK ACCESS:          0  HIT:          0  MISS:          0
cpu0_ITLB TOTAL     ACCESS:    7747842  HIT:    7747842  MISS:          0
cpu0_ITLB LOAD      ACCESS:    7747842  HIT:    7747842  MISS:          0
cpu0_ITLB RFO       ACCESS:          0  HIT:          0  MISS:          0
cpu0_ITLB PREFETCH  ACCESS:          0  HIT:          0  MISS:          0
cpu0_ITLB WRITEBACK ACCESS:          0  HIT:          0  MISS:          0
cpu0_STLB TOTAL     ACCESS:    6843700  HIT:    6318037  MISS:     525663
cpu0_STLB LOAD      ACCESS:    6728157  HIT:    6206019  MISS:     522138
cpu0_STLB RFO       ACCESS:     115543  HIT:     112018  MISS:       3525
cpu0_STLB PREFETCH  ACCESS:          0  HIT:          0  MISS:          0
cpu0_STLB WRITEBACK ACCESS:          0  HIT:          0  MISS:          0
cpu0_L1D TOTAL     ACCESS:   16064131  HIT:    8102552  MISS:    7961579
cpu0_L1D LOAD      ACCESS:   13680408  HIT:    5896060  MISS:    7784348
cpu0_L1D RFO       ACCESS:    1859515  HIT:    1769769  MISS:      89746
cpu0_L1D PREFETCH  ACCESS:          0  HIT:          0  MISS:          0
cpu0_L1D WRITEBACK ACCESS:          0  HIT:          0  MISS:          0
cpu0_L2C TOTAL     ACCESS:    8840097  HIT:    3129179  MISS:    5710918
cpu0_L2C LOAD      ACCESS:    7784196  HIT:    2164593  MISS:    5619603
cpu0_L2C RFO       ACCESS:      89742  HIT:      31946  MISS:      57796
cpu0_L2C PREFETCH  ACCESS:          0  HIT:          0  MISS:          0
cpu0_L2C WRITEBACK ACCESS:     878674  HIT:     878611  MISS:         63
LLC TOTAL     ACCESS:    6364910  HIT:    2923167  MISS:    3441743
LLC LOAD      ACCESS:    5619600  HIT:    2209100  MISS:    3410500
LLC RFO       ACCESS:      57796  HIT:      28643  MISS:      29153
LLC PREFETCH  ACCESS:          0  HIT:          0  MISS:          0
LLC WRITEBACK ACCESS:     654058  HIT:     652367  MISS:       1691
Heartbeat CPU 0 instructions: 116000003 cycles: 745828359 heartbeat IPC: 0.0742143 cumulative IPC: 0.0903925 (Simulation time: 3 hr 24 min 33 sec) 

Region of Interest Statistics
cpu0_DTLB TOTAL     ACCESS:   14632318  HIT:    7631747  MISS:    7000571
cpu0_DTLB LOAD      ACCESS:   13253860  HIT:    6373639  MISS:    6880221
[...]
cpu0_ITLB PREFETCH  ACCESS:          0  HIT:          0  MISS:          0
cpu0_ITLB WRITEBACK ACCESS:          0  HIT:          0  MISS:          0
cpu0_ITLB TRANSLATION ACCESS:          0  HIT:          0  MISS:          0
cpu0_ITLB PREFETCH  REQUESTED:          0  ISSUED:          0  USEFUL:          0  USELESS:          0
cpu0_ITLB AVERAGE MISS LATENCY: -nan cycles
cpu0_L1I TOTAL     ACCESS:          7  HIT:          7  MISS:          0
cpu0_L1I LOAD      ACCESS:          7  HIT:          7  MISS:          0
cpu0_L1I RFO       ACCESS:          0  HIT:          0  MISS:          0
cpu0_L1I PREFETCH  ACCESS:          0  HIT:          0  MISS:          0
cpu0_L1I WRITEBACK ACCESS:          0  HIT:          0  MISS:          0
cpu0_L1I TRANSLATION ACCESS:          0  HIT:          0  MISS:          0
cpu0_L1I PREFETCH  REQUESTED:          0  ISSUED:          0  USEFUL:          0  USELESS:          0
cpu0_L1I AVERAGE MISS LATENCY: -nan cycles
cpu0_STLB TOTAL     ACCESS:  171880631  HIT:  161169311  MISS:   10711320
cpu0_STLB LOAD      ACCESS:  168696010  HIT:  158053985  MISS:   10642025
cpu0_STLB RFO       ACCESS:    3184621  HIT:    3115326  MISS:      69295
cpu0_STLB PREFETCH  ACCESS:          0  HIT:          0  MISS:          0
cpu0_STLB WRITEBACK ACCESS:          0  HIT:          0  MISS:          0
cpu0_STLB TRANSLATION ACCESS:          0  HIT:          0  MISS:          0
cpu0_STLB PREFETCH  REQUESTED:          0  ISSUED:          0  USEFUL:          0  USELESS:          0
cpu0_STLB AVERAGE MISS LATENCY: 18.7191 cycles
cpu0_L1D TOTAL     ACCESS:  365765397  HIT:  170397567  MISS:  195367830
cpu0_L1D LOAD      ACCESS:  320462439  HIT:  128678977  MISS:  191783462
cpu0_L1D RFO       ACCESS:   34622361  HIT:   32932542  MISS:    1689819
cpu0_L1D PREFETCH  ACCESS:          0  HIT:          0  MISS:          0
cpu0_L1D WRITEBACK ACCESS:          0  HIT:          0  MISS:          0
cpu0_L1D TRANSLATION ACCESS:   10680597  HIT:    8786048  MISS:    1894549
cpu0_L1D PREFETCH  REQUESTED:          0  ISSUED:          0  USEFUL:          0  USELESS:          0
cpu0_L1D AVERAGE MISS LATENCY: 176.392 cycles
cpu0_L2C TOTAL     ACCESS:  213734554  HIT:   74486895  MISS:  139247659
cpu0_L2C LOAD      ACCESS:  191781763  HIT:   54476901  MISS:  137304862
cpu0_L2C RFO       ACCESS:    1689765  HIT:     604023  MISS:    1085742
cpu0_L2C PREFETCH  ACCESS:          0  HIT:          0  MISS:          0
cpu0_L2C WRITEBACK ACCESS:   18368477  HIT:   18367945  MISS:        532
cpu0_L2C TRANSLATION ACCESS:    1894549  HIT:    1038026  MISS:     856523
cpu0_L2C PREFETCH  REQUESTED:          0  ISSUED:          0  USEFUL:          0  USELESS:          0
cpu0_L2C AVERAGE MISS LATENCY: 232.003 cycles
LLC TOTAL     ACCESS:  152922199  HIT:   71513520  MISS:   81408679
LLC LOAD      ACCESS:  137304807  HIT:   56478971  MISS:   80825836
LLC RFO       ACCESS:    1085742  HIT:     548539  MISS:     537203
LLC PREFETCH  ACCESS:          0  HIT:          0  MISS:          0
LLC WRITEBACK ACCESS:   13675127  HIT:   13635877  MISS:      39250
LLC TRANSLATION ACCESS:     856523  HIT:     850133  MISS:       6390
LLC PREFETCH  REQUESTED:          0  ISSUED:          0  USEFUL:          0  USELESS:          0
LLC AVERAGE MISS LATENCY: 360.916 cycles
~~~~~~~~~~Reuse Distance Profiler output~~~~~~~~~~
0	19532608	10354384
1	62220512	55807888
2	6643984	5195744
3	7028128	4901968
4	6448912	3545472
5	6087920	3259744
6	4203072	2645120
7	2607456	1649264
8	2043136	1481808
9	2019232	1617456
10	1859760	1586720
11	1395040	1172688
12	934336	766192
13	743488	614272
14	645536	527712
15	565760	429472
16	576464	436224
17	535328	423904
18	504192	422160
19	459248	375568
20	417760	360480
21	417376	366864
22	481408	437808
23	420784	391872
24	375488	350496
25	321696	298640
26	281632	259712
27	283568	262240
28	243136	222656
29	247792	223152
30	236368	216976
31	227328	203296
32	206512	170720
33	194944	162192
34	188736	160496
35	177072	154720
36	153920	131264
37	148736	130352
38	125536	112560
39	129392	116608
40	124240	112768
41	112320	101088
42	113952	104048
43	123680	113104
44	121232	109840
45	109216	98560
46	114528	103968
47	113920	102304
48	107472	96160
49	89712	77952
50	102448	88896
51	113776	99888
52	112224	96896
53	104112	89472
54	109136	92800
55	109008	92848
56	110032	92192
57	106288	85424
58	101520	81392
59	117152	95808
60	112512	89648
61	130240	106224
62	132544	106480
63	131392	104144
64	226976	156768
66	237248	167136
68	280896	208128
70	257600	182816
72	198160	116880
74	199040	109344
76	190544	92224
78	207520	97136
80	210736	90144
82	217968	89392
84	216192	82704
86	217136	86480
88	199536	75952
90	192064	83952
92	161456	70096
94	154128	80192
96	133504	73328
98	119936	72144
100	102560	66880
102	107328	78416
104	92272	70144
106	94448	76992
108	94160	77872
110	98048	81744
112	85616	70784
114	91488	80592
116	83200	73328
118	87056	78208
120	80416	73424
122	93408	86560
124	83088	76560
126	92416	87232
128	159456	150736
132	145360	138928
136	140880	134784
140	132928	127744
144	140672	135920
148	131808	127152
152	125296	121552
156	119760	116352
160	112176	108768
164	113840	110560
168	117744	114448
172	152544	149568
176	122320	118720
180	104800	101808
184	95456	92336
188	98368	94992
192	92688	89600
196	90864	87536
200	81904	79120
204	86480	83616
208	83104	79840
212	80432	77712
216	76464	74000
220	75792	73168
224	75280	72784
228	75280	72560
232	74704	71984
236	75152	72720
240	73472	71616
244	74864	72752
248	71424	68704
252	73424	70464
256	146944	142304
264	144512	139696
272	142576	137856
280	141056	136208
288	143424	138832
296	148784	144112
304	142112	137520
312	155584	151104
320	149136	144576
328	150800	146944
336	155536	151760
344	158000	153952
352	156032	152016
360	150640	147280
368	148768	145840
376	141216	138416
384	142400	139504
392	138416	135728
400	140800	138048
408	141488	139088
416	140256	137776
424	135136	132496
432	122240	119792
440	128688	124784
448	130736	118128
456	126352	106336
464	111344	99776
472	103120	99104
480	100096	97728
488	95296	93008
496	99696	97008
504	94320	92176
512	182992	178320
528	184384	179984
544	181472	176592
560	177408	173552
576	185184	180096
592	172976	167584
608	186592	181312
624	176608	171376
640	181536	175312
656	177344	170448
672	183056	175808
688	182416	174944
704	182912	175248
720	180560	171840
736	179920	171232
752	173968	164528
768	168512	158192
784	162944	152624
800	160528	150272
816	159728	149680
832	155552	144704
848	153376	142864
864	140064	129968
880	138160	128336
896	127616	118080
912	292640	283296
928	382624	374032
944	128784	119728
960	109936	101120
976	113760	105264
992	114128	105984
1008	113488	105184
1024	223680	208384
1056	206848	190720
1088	197488	182992
1120	188464	174896
1152	234368	221648
1184	9811360	9766928
1216	258192	237664
1248	250592	238080
1280	250480	238528
1312	251344	240352
1344	244880	234304
1376	248688	239024
1408	246928	237808
1440	258832	249632
1472	242416	233504
1504	249408	240800
1536	248240	240176
1568	251488	243216
1600	238512	231008
1632	193776	182304
1664	179680	157968
1696	151920	144528
1728	143728	137792
1760	146448	140720
1792	139200	133184
1824	211840	205904
1856	314752	309072
1888	142528	136944
1920	136496	130784
1952	133696	128048
1984	119392	114240
2016	104944	99392
2048	197136	186400
2112	178848	168864
2176	167184	157152
2240	161952	152336
2304	176256	166640
2368	4895024	4864288
2432	287232	274576
2496	372560	362560
2560	487440	478592
2624	589600	581984
2688	634352	627520
2752	766768	760016
2816	616480	603536
2880	565904	560048
2944	540976	535536
3008	512944	506816
3072	474928	468736
3136	456880	450288
3200	429088	423008
3264	377280	370608
3328	345616	339024
3392	328800	322800
3456	317072	310576
3520	341440	334272
3584	2265872	2250096
3648	356320	350496
3712	475824	470288
3776	479184	473648
3840	542624	535984
3904	535232	528576
3968	522608	514960
4032	463024	452752
4096	819232	809136
4224	690992	682688
4352	598320	592224
4480	454896	448976
4608	414944	408960
4736	2216048	2201600
4864	435232	428576
4992	556736	550208
5120	574432	568096
5248	513280	506528
5376	469056	463952
5504	466352	461696
5632	396944	391888
5760	416352	411072
5888	1149280	1140400
6016	385200	379584
6144	481088	476848
6272	518096	514160
6400	469616	464496
6528	407968	403728
6656	355392	351600
6784	325568	321664
6912	296960	293360
7040	292032	288208
7168	979424	972192
7296	314336	310704
7424	368544	365216
7552	338752	334880
7680	311744	308944
7808	283296	280112
7936	271968	268560
8064	254480	251776
8192	931152	923040
8448	557616	552096
8704	606816	601280
8960	515104	510048
9216	495424	489824
9472	1107152	1100304
9728	516016	510688
9984	473168	468416
10240	425952	421776
10496	398176	393712
10752	665568	660160
11008	527808	523632
11264	460528	456048
11520	432576	427584
11776	635696	630240
12032	407840	403488
12288	407920	403184
12544	396384	393024
12800	379280	375648
13056	500800	496192
13312	375760	371888
13568	354928	350960
13824	341936	339120
14080	328176	324256
14336	550896	546800
14592	343856	340224
14848	327760	324560
15104	301760	298768
15360	396144	392384
15616	318016	314976
15872	338320	334400
16128	300560	297808
16384	694720	688416
16896	586384	580960
17408	545680	540400
17920	636352	630768
18432	532416	527616
18944	724672	718720
19456	517904	512480
19968	544352	539376
20480	542592	537840
20992	482208	477600
21504	533536	528336
22016	466496	462656
22528	499328	494768
23040	456960	452016
23552	498976	495120
24064	440128	435584
24576	400288	396672
25088	450000	445312
25600	399264	395264
26112	425824	421472
26624	391232	387616
27136	396848	392928
27648	375744	372208
28160	364080	360944
28672	434112	430544
29184	344608	341584
29696	371280	368240
30208	352640	349984
30720	352144	348928
31232	330992	328512
31744	333056	330608
32256	341952	339312
32768	651408	646048
33792	616544	611008
34816	591664	586128
35840	586976	582144
36864	571104	566672
37888	596864	592560
38912	539216	534944
39936	533088	529552
40960	519520	515664
41984	491824	488528
43008	504288	500672
44032	476352	473024
45056	473136	469632
46080	456064	452384
47104	457808	454848
48128	436736	433600
49152	428160	425088
50176	419040	416128
51200	408432	405008
52224	402944	400336
53248	386720	383680
54272	377264	374512
55296	363648	361152
56320	365552	362960
57344	372752	370560
58368	353472	351040
59392	348208	345376
60416	339360	336320
61440	333088	330320
62464	322224	319712
63488	324576	322192
64512	316576	314256
65536	623024	618800
67584	608208	603488
69632	571216	566976
71680	569856	565200
73728	549536	545552
75776	537360	533440
77824	514640	510704
79872	503888	499232
81920	485888	482144
83968	481136	476848
86016	467136	462960
88064	450704	446880
90112	435536	431648
92160	432064	428176
94208	415424	411904
96256	408880	405040
98304	394976	391424
100352	385104	381520
102400	377568	373968
104448	367056	363728
106496	357536	353920
108544	356688	353280
110592	382176	378576
112640	333008	329824
114688	336896	333008
116736	329520	326144
118784	323440	319808
120832	318368	314832
122880	309312	306016
124928	303920	300608
126976	296592	293840
129024	290832	288032
131072	562624	557440
135168	538896	533648
139264	513984	508352
143360	507408	502176
147456	491600	486688
151552	481056	475792
155648	466576	461616
159744	451456	445872
163840	438752	433376
167936	419088	414400
172032	414864	409760
176128	397296	392384
180224	391808	387232
184320	385104	380480
188416	361360	356496
192512	353136	348688
196608	345888	342064
200704	334352	330080
204800	333248	328464
208896	325264	321056
212992	312320	307744
217088	306352	301536
221184	305920	300288
225280	302432	296544
229376	300128	294400
233472	288800	283744
237568	289184	282784
241664	284112	278304
245760	287824	282128
249856	273680	268384
253952	266512	260624
258048	259728	254704
262144	503344	495104
270336	486896	478592
278528	483184	473376
286720	448240	440816
294912	415264	408576
303104	400704	393728
311296	389360	382624
319488	355744	349760
327680	346704	340544
335872	326576	320928
344064	309584	303776
352256	289680	284688
360448	276816	271824
368640	253968	249712
376832	238528	234096
385024	238816	234096
393216	233392	229008
401408	216848	212608
409600	212672	208560
417792	208576	204816
425984	205680	201472
434176	194256	190272
442368	192304	188592
450560	185120	181104
458752	179968	175680
466944	178000	174576
475136	166944	163424
483328	160944	157136
491520	160336	156800
499712	156704	153520
507904	142208	139264
516096	130672	127952
524288	245984	240352
540672	231856	226928
557056	210720	205952
573440	213600	208352
589824	200640	196160
606208	198528	193872
622592	180272	175712
638976	184384	180064
655360	185424	181152
671744	157056	152720
688128	136512	131824
704512	134288	130416
720896	121904	117936
737280	105760	101664
753664	95600	91888
770048	104240	100832
786432	97760	94208
802816	93536	90080
819200	119104	115072
835584	121312	115888
851968	207872	201552
868352	223728	216400
884736	305520	298400
901120	487504	479216
917504	503632	494272
933888	650608	640736
950272	453888	445344
966656	384592	376736
983040	648064	637792
999424	544576	535920
1015808	437536	432320
1032192	100016	95120
1048576	887488	871584
1081344	1125888	1111392
1114112	1000288	987200
1146880	555248	544944
1179648	853408	843072
1212416	553152	544736
1245184	1042608	1029264
1277952	634736	625632
1310720	586480	579840
1343488	484624	478192
1376256	441872	436768
1409024	396464	390816
1441792	340016	336016
1474560	238256	233008
1507328	493936	486784
1540096	498560	494576
1572864	104496	102032
1605632	312032	308016
1638400	140160	137552
1671168	451216	446352
1703936	262464	259296
1736704	179408	176768
1769472	169312	165488
1802240	671328	665792
1835008	135792	133728
1867776	118720	117232
1900544	20096	18656
1933312	216576	214080
1966080	125104	123152
1998848	19408	18560
2031616	114016	112512
2064384	34304	32384
2097152	599312	594928
2162688	31808	31104
2228224	150928	149216
2293760	44112	42896
2359296	165648	163824
2424832	190720	188176
2490368	276352	273088
2555904	358064	354240
2621440	319648	315760
2686976	124736	123264
2752512	8992	8640
2818048	8944	8416
2883584	189136	187312
2949120	29488	29088
3014656	8224	7728
3080192	107104	105488
3145728	113984	112752
3211264	77392	76720
3276800	143616	142752
3342336	175072	173392
3407872	100960	100240
3473408	8736	8432
3538944	17584	17104
3604480	189856	188672
3670016	8128	7872
3735552	98544	97760
3801088	33840	33648
3866624	33696	33040
3932160	83728	82800
3997696	16224	15936
4063232	82624	82048
4128768	11680	11504
4194304	102528	101520
4325376	192336	191392
4456448	4352	4272
4587520	104176	102912
4718592	62288	62064
4849664	2048	1920
4980736	2224	2016
5111808	92048	91152
5242880	1408	1344
5373952	880	848
5505024	82480	81728
5636096	3056	2992
5767168	2592	2272
5898240	155344	154800
6029312	48	48
6160384	0	0
6291456	0	0
6422528	0	0
6553600	16	16
6684672	0	0
6815744	16	16
6946816	0	0
7077888	0	0
7208960	16	16
7340032	16	16
7471104	0	0
7602176	0	0
7733248	0	0
7864320	32	32
7995392	0	0
8126464	16	16
8257536	0	0
8388608	16	16
8650752	0	0
8912896	16	16
9175040	64	64
9437184	0	0
9699328	16	16
9961472	16	16
10223616	32	32
10485760	16	16
10747904	0	0
11010048	16	16
11272192	16	16
11534336	0	0
11796480	0	0
12058624	0	0
12320768	0	0
12582912	64	48
12845056	32	32
13107200	0	0
13369344	0	0
13631488	16	16
13893632	16	16
14155776	0	0
14417920	32	32
14680064	16	16
14942208	0	0
15204352	16	16
15466496	0	0
15728640	0	0
15990784	0	0
16252928	0	0
16515072	48	16
16777216	0	0
17301504	0	0
17825792	0	0
18350080	0	0
18874368	32	32
19398656	48	48
19922944	48	48
20447232	64	64
20971520	32	16
21495808	48	32
22020096	16	16
22544384	32	32
23068672	64	64
23592960	32	32
24117248	48	48
24641536	16	16
25165824	32	32
25690112	64	64
26214400	64	64
26738688	32	32
27262976	64	64
27787264	96	96
28311552	64	64
28835840	32	32
29360128	16	16
29884416	16	16
30408704	32	32
30932992	16	16
31457280	64	64
31981568	64	64
32505856	48	48
33030144	64	64
33554432	128	128
34603008	176	176
35651584	128	112
36700160	32	32
37748736	112	112
38797312	80	64
39845888	112	96
40894464	160	160
41943040	48	48
42991616	80	64
44040192	64	64
45088768	208	208
46137344	176	176
47185920	96	96
48234496	112	112
49283072	128	128
50331648	224	224
51380224	288	288
52428800	208	208
53477376	272	272
54525952	192	192
55574528	160	144
56623104	176	176
57671680	144	144
58720256	112	112
59768832	112	112
60817408	192	192
61865984	224	224
62914560	128	128
63963136	144	144
65011712	128	128
66060288	96	96
67108864	240	240
69206016	384	368
71303168	224	224
73400320	192	192
75497472	304	304
77594624	336	336
79691776	208	208
81788928	112	112
83886080	256	256
85983232	224	224
88080384	176	176
90177536	336	336
92274688	256	256
94371840	224	224
96468992	400	400
98566144	416	416
100663296	464	464
102760448	528	528
104857600	368	368
106954752	288	288
109051904	288	288
111149056	288	288
113246208	288	288
115343360	256	256
117440512	240	240
119537664	288	288
121634816	192	192
123731968	272	272
125829120	368	368
127926272	272	272
130023424	352	352
132120576	304	304
134217728	688	688
138412032	896	896
142606336	1376	1376
146800640	471552	471552
150994944	1310096	1310096
155189248	701728	701728
159383552	2587344	2587344
163577856	1889520	1889520
167772160	1179712	1179712
171966464	658960	658960
176160768	388352	388352
180355072	435408	435408
184549376	3689728	3689728
188743680	1295984	1295984
192937984	1465440	1465440
197132288	336320	336320
201326592	1390176	1390176
205520896	1603904	1603904
209715200	2288608	2288608
213909504	610144	610144
218103808	1992448	1992448
222298112	2407296	2407296
226492416	0	0
230686720	0	0
234881024	0	0
239075328	0	0
243269632	0	0
247463936	0	0
251658240	0	0
255852544	0	0
260046848	0	0
264241152	0	0
268435456	0	0
276824064	0	0
285212672	0	0
293601280	0	0
301989888	0	0
310378496	0	0
318767104	0	0
327155712	0	0
335544320	0	0
343932928	0	0
352321536	0	0
360710144	0	0
369098752	0	0
377487360	0	0
385875968	0	0
394264576	0	0
402653184	0	0
411041792	0	0
419430400	0	0
427819008	0	0
436207616	0	0
444596224	0	0
452984832	0	0
461373440	0	0
469762048	0	0
478150656	0	0
486539264	0	0
494927872	0	0
503316480	0	0
511705088	0	0
520093696	0	0
528482304	0	0
536870912	0	0
553648128	0	0
570425344	0	0
587202560	0	0
603979776	0	0
620756992	0	0
637534208	0	0
654311424	0	0
671088640	0	0
687865856	0	0
704643072	0	0
721420288	0	0
738197504	0	0
754974720	0	0
771751936	0	0
788529152	0	0
805306368	0	0
822083584	0	0
838860800	0	0
855638016	0	0
872415232	0	0
889192448	0	0
905969664	0	0
922746880	0	0
939524096	0	0
956301312	0	0
973078528	0	0
989855744	0	0
1006632960	0	0
1023410176	0	0
1040187392	0	0
1056964608	0	0
1073741824	0	0
1107296256	0	0
1140850688	0	0
1174405120	0	0
1207959552	0	0
1241513984	0	0
1275068416	0	0
1308622848	0	0
1342177280	0	0
1375731712	0	0
1409286144	0	0
1442840576	0	0
1476395008	0	0
1509949440	0	0
1543503872	0	0
1577058304	0	0
1610612736	0	0
1644167168	0	0
1677721600	0	0
1711276032	0	0
1744830464	0	0
1778384896	0	0
1811939328	0	0
1845493760	0	0
1879048192	0	0
1912602624	0	0
1946157056	0	0
1979711488	0	0
2013265920	0	0
2046820352	0	0
2080374784	0	0
2113929216	0	0
2147483648	0	0
2214592512	0	0
2281701376	0	0
2348810240	0	0
2415919104	0	0
2483027968	0	0
2550136832	0	0
2617245696	0	0
2684354560	0	0
2751463424	0	0
2818572288	0	0
2885681152	0	0
2952790016	0	0
3019898880	0	0
3087007744	0	0
3154116608	0	0
3221225472	0	0
3288334336	0	0
3355443200	0	0
3422552064	0	0
3489660928	0	0
3556769792	0	0
3623878656	0	0
3690987520	0	0
3758096384	0	0
3825205248	0	0
3892314112	0	0
3959422976	0	0
4026531840	0	0
4093640704	0	0
4160749568	0	0
4227858432	0	0
~~~~~~~~~~Reuse Distance Profiler output end~~~~~~~~~~

Sampler size:1692045

DRAM Statistics
 CHANNEL 0
 RQ ROW_BUFFER_HIT:     107648  ROW_BUFFER_MISS:   81248968
 DBUS AVG_CONGESTED_CYCLE:    3.94582
 WQ ROW_BUFFER_HIT:     522942  ROW_BUFFER_MISS:    8621647  FULL:          0


CPU 0 Branch Prediction Accuracy: 87.9092% MPKI: 29.2176 Average ROB Occupancy at Mispredict: 22.7321
Branch type MPKI
BRANCH_DIRECT_JUMP: 2.66667e-06
BRANCH_INDIRECT: 0
BRANCH_CONDITIONAL: 29.2176
BRANCH_DIRECT_CALL: 0
BRANCH_INDIRECT_CALL: 0
BRANCH_RETURN: 0

