
*** ChampSim Multicore Out-of-Order Simulator ***

Warmup Instructions: 50000000
Simulation Instructions: 1500000000
Number of CPUs: 1
Off-chip DRAM Size: 4 GiB Channels: 1 Width: 64-bit Data Rate: 3200 MT/s

VirtualMemory physical capacity: 8588881920 num_ppages: 2096895
VirtualMemory page size: 4096 log2_page_size: 12

CPU 0 runs /s/traces/champsim_traces/429.mcf-22B.champsimtrace.xz
CPU 0 Bimodal branch predictor
Basic BTB sets: 1024 ways: 8 indirect buffer size: 4096 RAS size: 64
Initializing LRU.
Initializing LRU.
Initializing LRU.
Initializing LRU.
Initializing rdLRU.
Initializing LRU.
Heartbeat CPU 0 instructions: 2000002 cycles: 500540 heartbeat IPC: 3.99569 cumulative IPC: 3.99569 (Simulation time: 0 hr 0 min 41 sec) 
Heartbeat CPU 0 instructions: 4000000 cycles: 1003583 heartbeat IPC: 3.9758 cumulative IPC: 3.98572 (Simulation time: 0 hr 1 min 30 sec) 
Heartbeat CPU 0 instructions: 6000003 cycles: 1504213 heartbeat IPC: 3.99497 cumulative IPC: 3.9888 (Simulation time: 0 hr 2 min 18 sec) 
Heartbeat CPU 0 instructions: 8000001 cycles: 2008148 heartbeat IPC: 3.96876 cumulative IPC: 3.98377 (Simulation time: 0 hr 3 min 8 sec) 
Heartbeat CPU 0 instructions: 10000003 cycles: 2515190 heartbeat IPC: 3.94445 cumulative IPC: 3.97584 (Simulation time: 0 hr 4 min 0 sec) 
Heartbeat CPU 0 instructions: 12000000 cycles: 3116828 heartbeat IPC: 3.32425 cumulative IPC: 3.85007 (Simulation time: 0 hr 5 min 1 sec) 
Heartbeat CPU 0 instructions: 14000003 cycles: 3618281 heartbeat IPC: 3.98842 cumulative IPC: 3.86924 (Simulation time: 0 hr 5 min 50 sec) 
Heartbeat CPU 0 instructions: 16000004 cycles: 4124102 heartbeat IPC: 3.95397 cumulative IPC: 3.87963 (Simulation time: 0 hr 6 min 42 sec) 
Heartbeat CPU 0 instructions: 18000000 cycles: 4631614 heartbeat IPC: 3.94079 cumulative IPC: 3.88633 (Simulation time: 0 hr 7 min 33 sec) 
Heartbeat CPU 0 instructions: 20000004 cycles: 5175274 heartbeat IPC: 3.67878 cumulative IPC: 3.86453 (Simulation time: 0 hr 8 min 28 sec) 
Heartbeat CPU 0 instructions: 22000004 cycles: 5684288 heartbeat IPC: 3.92917 cumulative IPC: 3.87032 (Simulation time: 0 hr 9 min 19 sec) 
Heartbeat CPU 0 instructions: 24000000 cycles: 6193793 heartbeat IPC: 3.92537 cumulative IPC: 3.87485 (Simulation time: 0 hr 10 min 11 sec) 
Heartbeat CPU 0 instructions: 26000002 cycles: 6703499 heartbeat IPC: 3.92383 cumulative IPC: 3.87857 (Simulation time: 0 hr 11 min 4 sec) 
Heartbeat CPU 0 instructions: 28000000 cycles: 7213380 heartbeat IPC: 3.92248 cumulative IPC: 3.88168 (Simulation time: 0 hr 11 min 55 sec) 
Heartbeat CPU 0 instructions: 30000003 cycles: 7718562 heartbeat IPC: 3.95898 cumulative IPC: 3.88673 (Simulation time: 0 hr 12 min 46 sec) 
Heartbeat CPU 0 instructions: 32000002 cycles: 8223968 heartbeat IPC: 3.95721 cumulative IPC: 3.89107 (Simulation time: 0 hr 13 min 38 sec) 
Heartbeat CPU 0 instructions: 34000004 cycles: 8731619 heartbeat IPC: 3.93972 cumulative IPC: 3.89389 (Simulation time: 0 hr 14 min 28 sec) 
Heartbeat CPU 0 instructions: 36000004 cycles: 9240729 heartbeat IPC: 3.92842 cumulative IPC: 3.8958 (Simulation time: 0 hr 15 min 18 sec) 
Heartbeat CPU 0 instructions: 38000003 cycles: 9747903 heartbeat IPC: 3.94342 cumulative IPC: 3.89827 (Simulation time: 0 hr 16 min 12 sec) 
Heartbeat CPU 0 instructions: 40000001 cycles: 10256895 heartbeat IPC: 3.92933 cumulative IPC: 3.89982 (Simulation time: 0 hr 17 min 4 sec) 
Heartbeat CPU 0 instructions: 42000001 cycles: 10767086 heartbeat IPC: 3.9201 cumulative IPC: 3.90078 (Simulation time: 0 hr 17 min 56 sec) 
Heartbeat CPU 0 instructions: 44000001 cycles: 11277631 heartbeat IPC: 3.91738 cumulative IPC: 3.90153 (Simulation time: 0 hr 18 min 49 sec) 
Heartbeat CPU 0 instructions: 46000001 cycles: 11788437 heartbeat IPC: 3.91538 cumulative IPC: 3.90213 (Simulation time: 0 hr 19 min 41 sec) 
Heartbeat CPU 0 instructions: 48000000 cycles: 12298078 heartbeat IPC: 3.92433 cumulative IPC: 3.90305 (Simulation time: 0 hr 20 min 41 sec) 
Heartbeat CPU 0 instructions: 50000000 cycles: 12802191 heartbeat IPC: 3.96736 cumulative IPC: 3.90558 (Simulation time: 0 hr 21 min 31 sec) 

Warmup complete CPU 0 instructions: 50000004 cycles: 12802192 (Simulation time: 0 hr 21 min 31 sec) 

Heartbeat CPU 0 instructions: 52000001 cycles: 18804184 heartbeat IPC: 0.333223 cumulative IPC: 0.333222 (Simulation time: 0 hr 24 min 15 sec) 

Region of Interest Statistics
cpu0_DTLB TOTAL     ACCESS:     419761  HIT:     403408  MISS:      16353
cpu0_DTLB LOAD      ACCESS:     240103  HIT:     223830  MISS:      16273
cpu0_DTLB RFO       ACCESS:     179658  HIT:     179578  MISS:         80
cpu0_DTLB PREFETCH  ACCESS:          0  HIT:          0  MISS:          0
cpu0_DTLB WRITEBACK ACCESS:          0  HIT:          0  MISS:          0
cpu0_ITLB TOTAL     ACCESS:     119074  HIT:     119074  MISS:          0
cpu0_ITLB LOAD      ACCESS:     119074  HIT:     119074  MISS:          0
cpu0_ITLB RFO       ACCESS:          0  HIT:          0  MISS:          0
cpu0_ITLB PREFETCH  ACCESS:          0  HIT:          0  MISS:          0
cpu0_ITLB WRITEBACK ACCESS:          0  HIT:          0  MISS:          0
cpu0_STLB TOTAL     ACCESS:      16353  HIT:       4166  MISS:      12187
cpu0_STLB LOAD      ACCESS:      16273  HIT:       4086  MISS:      12187
cpu0_STLB RFO       ACCESS:         80  HIT:         80  MISS:          0
cpu0_STLB PREFETCH  ACCESS:          0  HIT:          0  MISS:          0
cpu0_STLB WRITEBACK ACCESS:          0  HIT:          0  MISS:          0
cpu0_L1D TOTAL     ACCESS:     769176  HIT:     698391  MISS:      70785
cpu0_L1D LOAD      ACCESS:     271408  HIT:     201477  MISS:      69931
cpu0_L1D RFO       ACCESS:     486072  HIT:     486069  MISS:          3
cpu0_L1D PREFETCH  ACCESS:          0  HIT:          0  MISS:          0
cpu0_L1D WRITEBACK ACCESS:          0  HIT:          0  MISS:          0
cpu0_L2C TOTAL     ACCESS:     110575  HIT:      45283  MISS:      65292
cpu0_L2C LOAD      ACCESS:      69926  HIT:       4998  MISS:      64928
cpu0_L2C RFO       ACCESS:          3  HIT:          3  MISS:          0
cpu0_L2C PREFETCH  ACCESS:          0  HIT:          0  MISS:          0
cpu0_L2C WRITEBACK ACCESS:      39795  HIT:      39745  MISS:         50
LLC TOTAL     ACCESS:      98466  HIT:      48927  MISS:      49539
LLC LOAD      ACCESS:      64927  HIT:      15420  MISS:      49507
LLC RFO       ACCESS:          0  HIT:          0  MISS:          0
LLC PREFETCH  ACCESS:          0  HIT:          0  MISS:          0
LLC WRITEBACK ACCESS:      33225  HIT:      33195  MISS:         30
Heartbeat CPU 0 instructions: 54000003 cycles: 23710440 heartbeat IPC: 0.407643 cumulative IPC: 0.366695 (Simulation time: 0 hr 26 min 15 sec) 

Region of Interest Statistics
cpu0_DTLB TOTAL     ACCESS:     856763  HIT:     836425  MISS:      20338
cpu0_DTLB LOAD      ACCESS:     497986  HIT:     477745  MISS:      20241
cpu0_DTLB RFO       ACCESS:     358777  HIT:     358680  MISS:         97
cpu0_DTLB PREFETCH  ACCESS:          0  HIT:          0  MISS:          0
cpu0_DTLB WRITEBACK ACCESS:          0  HIT:          0  MISS:          0
cpu0_ITLB TOTAL     ACCESS:     249362  HIT:     249362  MISS:          0
cpu0_ITLB LOAD      ACCESS:     249362  HIT:     249362  MISS:          0
cpu0_ITLB RFO       ACCESS:          0  HIT:          0  MISS:          0
cpu0_ITLB PREFETCH  ACCESS:          0  HIT:          0  MISS:          0
cpu0_ITLB WRITEBACK ACCESS:          0  HIT:          0  MISS:          0
cpu0_STLB TOTAL     ACCESS:      20338  HIT:       6992  MISS:      13346
cpu0_STLB LOAD      ACCESS:      20241  HIT:       6896  MISS:      13345
cpu0_STLB RFO       ACCESS:         97  HIT:         96  MISS:          1
cpu0_STLB PREFETCH  ACCESS:          0  HIT:          0  MISS:          0
cpu0_STLB WRITEBACK ACCESS:          0  HIT:          0  MISS:          0
cpu0_L1D TOTAL     ACCESS:    1540730  HIT:    1434092  MISS:     106638
cpu0_L1D LOAD      ACCESS:     554444  HIT:     448759  MISS:     105685
cpu0_L1D RFO       ACCESS:     973444  HIT:     973439  MISS:          5
cpu0_L1D PREFETCH  ACCESS:          0  HIT:          0  MISS:          0
cpu0_L1D WRITEBACK ACCESS:          0  HIT:          0  MISS:          0
cpu0_L2C TOTAL     ACCESS:     154882  HIT:      54418  MISS:     100464
cpu0_L2C LOAD      ACCESS:     105680  HIT:       5650  MISS:     100030
cpu0_L2C RFO       ACCESS:          5  HIT:          4  MISS:          1
cpu0_L2C PREFETCH  ACCESS:          0  HIT:          0  MISS:          0
cpu0_L2C WRITEBACK ACCESS:      48249  HIT:      48155  MISS:         94
LLC TOTAL     ACCESS:     144264  HIT:      61885  MISS:      82379
LLC LOAD      ACCESS:     100029  HIT:      17700  MISS:      82329
LLC RFO       ACCESS:          1  HIT:          0  MISS:          1
LLC PREFETCH  ACCESS:          0  HIT:          0  MISS:          0
LLC WRITEBACK ACCESS:      43895  HIT:      43848  MISS:         47
Heartbeat CPU 0 instructions: 56000003 cycles: 27704958 heartbeat IPC: 0.500686 cumulative IPC: 0.40261 (Simulation time: 0 hr 28 min 2 sec) 

Region of Interest Statistics
cpu0_DTLB TOTAL     ACCESS:    1296844  HIT:    1273219  MISS:      23625
cpu0_DTLB LOAD      ACCESS:     758205  HIT:     734709  MISS:      23496
cpu0_DTLB RFO       ACCESS:     538639  HIT:     538510  MISS:        129
cpu0_DTLB PREFETCH  ACCESS:          0  HIT:          0  MISS:          0
cpu0_DTLB WRITEBACK ACCESS:          0  HIT:          0  MISS:          0
cpu0_ITLB TOTAL     ACCESS:     384072  HIT:     384072  MISS:          0
cpu0_ITLB LOAD      ACCESS:     384072  HIT:     384072  MISS:          0
cpu0_ITLB RFO       ACCESS:          0  HIT:          0  MISS:          0
cpu0_ITLB PREFETCH  ACCESS:          0  HIT:          0  MISS:          0
cpu0_ITLB WRITEBACK ACCESS:          0  HIT:          0  MISS:          0
cpu0_STLB TOTAL     ACCESS:      23625  HIT:       8106  MISS:      15519
cpu0_STLB LOAD      ACCESS:      23496  HIT:       7978  MISS:      15518
cpu0_STLB RFO       ACCESS:        129  HIT:        128  MISS:          1
cpu0_STLB PREFETCH  ACCESS:          0  HIT:          0  MISS:          0
cpu0_STLB WRITEBACK ACCESS:          0  HIT:          0  MISS:          0
cpu0_L1D TOTAL     ACCESS:    2314100  HIT:    2173399  MISS:     140701
cpu0_L1D LOAD      ACCESS:     836731  HIT:     697131  MISS:     139600
cpu0_L1D RFO       ACCESS:    1462400  HIT:    1462395  MISS:          5
cpu0_L1D PREFETCH  ACCESS:          0  HIT:          0  MISS:          0
cpu0_L1D WRITEBACK ACCESS:          0  HIT:          0  MISS:          0
cpu0_L2C TOTAL     ACCESS:     199340  HIT:      65338  MISS:     134002
cpu0_L2C LOAD      ACCESS:     139595  HIT:       6149  MISS:     133446
cpu0_L2C RFO       ACCESS:          5  HIT:          4  MISS:          1
cpu0_L2C PREFETCH  ACCESS:          0  HIT:          0  MISS:          0
cpu0_L2C WRITEBACK ACCESS:      58644  HIT:      58498  MISS:        146
LLC TOTAL     ACCESS:     185169  HIT:      75187  MISS:     109982
LLC LOAD      ACCESS:     133445  HIT:      23517  MISS:     109928
LLC RFO       ACCESS:          1  HIT:          0  MISS:          1
LLC PREFETCH  ACCESS:          0  HIT:          0  MISS:          0
LLC WRITEBACK ACCESS:      51314  HIT:      51263  MISS:         51
Heartbeat CPU 0 instructions: 58000004 cycles: 31866846 heartbeat IPC: 0.480551 cumulative IPC: 0.419625 (Simulation time: 0 hr 30 min 21 sec) 

Region of Interest Statistics
cpu0_DTLB TOTAL     ACCESS:    1720811  HIT:    1686848  MISS:      33963
cpu0_DTLB LOAD      ACCESS:    1000962  HIT:     967170  MISS:      33792
cpu0_DTLB RFO       ACCESS:     719849  HIT:     719678  MISS:        171
cpu0_DTLB PREFETCH  ACCESS:          0  HIT:          0  MISS:          0
cpu0_DTLB WRITEBACK ACCESS:          0  HIT:          0  MISS:          0
cpu0_ITLB TOTAL     ACCESS:     494239  HIT:     494239  MISS:          0
cpu0_ITLB LOAD      ACCESS:     494239  HIT:     494239  MISS:          0
cpu0_ITLB RFO       ACCESS:          0  HIT:          0  MISS:          0
cpu0_ITLB PREFETCH  ACCESS:          0  HIT:          0  MISS:          0
cpu0_ITLB WRITEBACK ACCESS:          0  HIT:          0  MISS:          0
cpu0_STLB TOTAL     ACCESS:      33963  HIT:      10414  MISS:      23549
cpu0_STLB LOAD      ACCESS:      33792  HIT:      10244  MISS:      23548
cpu0_STLB RFO       ACCESS:        171  HIT:        170  MISS:          1
cpu0_STLB PREFETCH  ACCESS:          0  HIT:          0  MISS:          0
cpu0_STLB WRITEBACK ACCESS:          0  HIT:          0  MISS:          0
cpu0_L1D TOTAL     ACCESS:    3081956  HIT:    2890294  MISS:     191662
cpu0_L1D LOAD      ACCESS:    1102763  HIT:     912429  MISS:     190334
cpu0_L1D RFO       ACCESS:    1956467  HIT:    1956461  MISS:          6
cpu0_L1D PREFETCH  ACCESS:          0  HIT:          0  MISS:          0
cpu0_L1D WRITEBACK ACCESS:          0  HIT:          0  MISS:          0
cpu0_L2C TOTAL     ACCESS:     277289  HIT:      93503  MISS:     183786
cpu0_L2C LOAD      ACCESS:     190323  HIT:       7255  MISS:     183068
cpu0_L2C RFO       ACCESS:          6  HIT:          5  MISS:          1
cpu0_L2C PREFETCH  ACCESS:          0  HIT:          0  MISS:          0
cpu0_L2C WRITEBACK ACCESS:      85638  HIT:      85449  MISS:        189
LLC TOTAL     ACCESS:     261055  HIT:     113261  MISS:     147794
LLC LOAD      ACCESS:     183067  HIT:      35376  MISS:     147691
LLC RFO       ACCESS:          1  HIT:          0  MISS:          1
LLC PREFETCH  ACCESS:          0  HIT:          0  MISS:          0
LLC WRITEBACK ACCESS:      77459  HIT:      77360  MISS:         99
Heartbeat CPU 0 instructions: 60000000 cycles: 41074675 heartbeat IPC: 0.217206 cumulative IPC: 0.353701 (Simulation time: 0 hr 33 min 17 sec) 

Region of Interest Statistics
cpu0_DTLB TOTAL     ACCESS:    2169889  HIT:    2117685  MISS:      52204
cpu0_DTLB LOAD      ACCESS:    1284282  HIT:    1232382  MISS:      51900
cpu0_DTLB RFO       ACCESS:     885607  HIT:     885303  MISS:        304
cpu0_DTLB PREFETCH  ACCESS:          0  HIT:          0  MISS:          0
cpu0_DTLB WRITEBACK ACCESS:          0  HIT:          0  MISS:          0
cpu0_ITLB TOTAL     ACCESS:     637179  HIT:     637179  MISS:          0
cpu0_ITLB LOAD      ACCESS:     637179  HIT:     637179  MISS:          0
cpu0_ITLB RFO       ACCESS:          0  HIT:          0  MISS:          0
cpu0_ITLB PREFETCH  ACCESS:          0  HIT:          0  MISS:          0
cpu0_ITLB WRITEBACK ACCESS:          0  HIT:          0  MISS:          0
cpu0_STLB TOTAL     ACCESS:      52204  HIT:      14747  MISS:      37457
cpu0_STLB LOAD      ACCESS:      51900  HIT:      14446  MISS:      37454
cpu0_STLB RFO       ACCESS:        304  HIT:        301  MISS:          3
cpu0_STLB PREFETCH  ACCESS:          0  HIT:          0  MISS:          0
cpu0_STLB WRITEBACK ACCESS:          0  HIT:          0  MISS:          0
cpu0_L1D TOTAL     ACCESS:    3861673  HIT:    3545532  MISS:     316141
cpu0_L1D LOAD      ACCESS:    1427089  HIT:    1112908  MISS:     314181
cpu0_L1D RFO       ACCESS:    2398375  HIT:    2398346  MISS:         29
cpu0_L1D PREFETCH  ACCESS:          0  HIT:          0  MISS:          0
cpu0_L1D WRITEBACK ACCESS:          0  HIT:          0  MISS:          0
cpu0_L2C TOTAL     ACCESS:     444247  HIT:     139408  MISS:     304839
cpu0_L2C LOAD      ACCESS:     314145  HIT:      10327  MISS:     303818
cpu0_L2C RFO       ACCESS:         29  HIT:         25  MISS:          4
cpu0_L2C PREFETCH  ACCESS:          0  HIT:          0  MISS:          0
cpu0_L2C WRITEBACK ACCESS:     128142  HIT:     127918  MISS:        224
LLC TOTAL     ACCESS:     422095  HIT:     201934  MISS:     220161
LLC LOAD      ACCESS:     303817  HIT:      84088  MISS:     219729
LLC RFO       ACCESS:          4  HIT:          1  MISS:          3
LLC PREFETCH  ACCESS:          0  HIT:          0  MISS:          0
LLC WRITEBACK ACCESS:     117481  HIT:     117056  MISS:        425
Heartbeat CPU 0 instructions: 62000000 cycles: 44493238 heartbeat IPC: 0.585041 cumulative IPC: 0.378656 (Simulation time: 0 hr 35 min 16 sec) 

Region of Interest Statistics
cpu0_DTLB TOTAL     ACCESS:    2597298  HIT:    2536910  MISS:      60388
cpu0_DTLB LOAD      ACCESS:    1529958  HIT:    1469946  MISS:      60012
cpu0_DTLB RFO       ACCESS:    1067340  HIT:    1066964  MISS:        376
cpu0_DTLB PREFETCH  ACCESS:          0  HIT:          0  MISS:          0
cpu0_DTLB WRITEBACK ACCESS:          0  HIT:          0  MISS:          0
cpu0_ITLB TOTAL     ACCESS:     752027  HIT:     752027  MISS:          0
cpu0_ITLB LOAD      ACCESS:     752027  HIT:     752027  MISS:          0
cpu0_ITLB RFO       ACCESS:          0  HIT:          0  MISS:          0
cpu0_ITLB PREFETCH  ACCESS:          0  HIT:          0  MISS:          0
cpu0_ITLB WRITEBACK ACCESS:          0  HIT:          0  MISS:          0
cpu0_STLB TOTAL     ACCESS:      60388  HIT:      17390  MISS:      42998
cpu0_STLB LOAD      ACCESS:      60012  HIT:      17017  MISS:      42995
cpu0_STLB RFO       ACCESS:        376  HIT:        373  MISS:          3
cpu0_STLB PREFETCH  ACCESS:          0  HIT:          0  MISS:          0
cpu0_STLB WRITEBACK ACCESS:          0  HIT:          0  MISS:          0
cpu0_L1D TOTAL     ACCESS:    4632474  HIT:    4274928  MISS:     357546
cpu0_L1D LOAD      ACCESS:    1693206  HIT:    1337762  MISS:     355444
cpu0_L1D RFO       ACCESS:    2897622  HIT:    2897592  MISS:         30
cpu0_L1D PREFETCH  ACCESS:          0  HIT:          0  MISS:          0
cpu0_L1D WRITEBACK ACCESS:          0  HIT:          0  MISS:          0
cpu0_L2C TOTAL     ACCESS:     508703  HIT:     163747  MISS:     344956
cpu0_L2C LOAD      ACCESS:     355395  HIT:      11557  MISS:     343838
cpu0_L2C RFO       ACCESS:         30  HIT:         26  MISS:          4
cpu0_L2C PREFETCH  ACCESS:          0  HIT:          0  MISS:          0
cpu0_L2C WRITEBACK ACCESS:     151206  HIT:     150947  MISS:        259
LLC TOTAL     ACCESS:     484137  HIT:     232339  MISS:     251798
LLC LOAD      ACCESS:     343837  HIT:      92804  MISS:     251033
LLC RFO       ACCESS:          4  HIT:          1  MISS:          3
LLC PREFETCH  ACCESS:          0  HIT:          0  MISS:          0
LLC WRITEBACK ACCESS:     139441  HIT:     138685  MISS:        756
Heartbeat CPU 0 instructions: 64000001 cycles: 47074447 heartbeat IPC: 0.774831 cumulative IPC: 0.408494 (Simulation time: 0 hr 36 min 58 sec) 

Region of Interest Statistics
cpu0_DTLB TOTAL     ACCESS:    3028628  HIT:    2963594  MISS:      65034
cpu0_DTLB LOAD      ACCESS:    1779477  HIT:    1714841  MISS:      64636
cpu0_DTLB RFO       ACCESS:    1249151  HIT:    1248753  MISS:        398
cpu0_DTLB PREFETCH  ACCESS:          0  HIT:          0  MISS:          0
cpu0_DTLB WRITEBACK ACCESS:          0  HIT:          0  MISS:          0
cpu0_ITLB TOTAL     ACCESS:     861111  HIT:     861111  MISS:          0
cpu0_ITLB LOAD      ACCESS:     861111  HIT:     861111  MISS:          0
cpu0_ITLB RFO       ACCESS:          0  HIT:          0  MISS:          0
cpu0_ITLB PREFETCH  ACCESS:          0  HIT:          0  MISS:          0
cpu0_ITLB WRITEBACK ACCESS:          0  HIT:          0  MISS:          0
cpu0_STLB TOTAL     ACCESS:      65034  HIT:      19422  MISS:      45612
cpu0_STLB LOAD      ACCESS:      64636  HIT:      19027  MISS:      45609
cpu0_STLB RFO       ACCESS:        398  HIT:        395  MISS:          3
cpu0_STLB PREFETCH  ACCESS:          0  HIT:          0  MISS:          0
cpu0_STLB WRITEBACK ACCESS:          0  HIT:          0  MISS:          0
cpu0_L1D TOTAL     ACCESS:    5402691  HIT:    5016159  MISS:     386532
cpu0_L1D LOAD      ACCESS:    1960379  HIT:    1576040  MISS:     384339
cpu0_L1D RFO       ACCESS:    3398090  HIT:    3398060  MISS:         30
cpu0_L1D PREFETCH  ACCESS:          0  HIT:          0  MISS:          0
cpu0_L1D WRITEBACK ACCESS:          0  HIT:          0  MISS:          0
cpu0_L2C TOTAL     ACCESS:     551005  HIT:     177799  MISS:     373206
cpu0_L2C LOAD      ACCESS:     384285  HIT:      12263  MISS:     372022
cpu0_L2C RFO       ACCESS:         30  HIT:         26  MISS:          4
cpu0_L2C PREFETCH  ACCESS:          0  HIT:          0  MISS:          0
cpu0_L2C WRITEBACK ACCESS:     164527  HIT:     164240  MISS:        287
LLC TOTAL     ACCESS:     525437  HIT:     252336  MISS:     273101
LLC LOAD      ACCESS:     372021  HIT:      99797  MISS:     272224
LLC RFO       ACCESS:          4  HIT:          1  MISS:          3
LLC PREFETCH  ACCESS:          0  HIT:          0  MISS:          0
LLC WRITEBACK ACCESS:     152519  HIT:     151653  MISS:        866
Heartbeat CPU 0 instructions: 66000000 cycles: 53206737 heartbeat IPC: 0.326142 cumulative IPC: 0.395995 (Simulation time: 0 hr 39 min 26 sec) 

Region of Interest Statistics
cpu0_DTLB TOTAL     ACCESS:    3455662  HIT:    3377764  MISS:      77898
cpu0_DTLB LOAD      ACCESS:    2026766  HIT:    1949341  MISS:      77425
cpu0_DTLB RFO       ACCESS:    1428896  HIT:    1428423  MISS:        473
cpu0_DTLB PREFETCH  ACCESS:          0  HIT:          0  MISS:          0
cpu0_DTLB WRITEBACK ACCESS:          0  HIT:          0  MISS:          0
cpu0_ITLB TOTAL     ACCESS:     999701  HIT:     999701  MISS:          0
cpu0_ITLB LOAD      ACCESS:     999701  HIT:     999701  MISS:          0
cpu0_ITLB RFO       ACCESS:          0  HIT:          0  MISS:          0
cpu0_ITLB PREFETCH  ACCESS:          0  HIT:          0  MISS:          0
cpu0_ITLB WRITEBACK ACCESS:          0  HIT:          0  MISS:          0
cpu0_STLB TOTAL     ACCESS:      77898  HIT:      23640  MISS:      54258
cpu0_STLB LOAD      ACCESS:      77425  HIT:      23171  MISS:      54254
cpu0_STLB RFO       ACCESS:        473  HIT:        469  MISS:          4
cpu0_STLB PREFETCH  ACCESS:          0  HIT:          0  MISS:          0
cpu0_STLB WRITEBACK ACCESS:          0  HIT:          0  MISS:          0
cpu0_L1D TOTAL     ACCESS:    6168484  HIT:    5710515  MISS:     457969
cpu0_L1D LOAD      ACCESS:    2234597  HIT:    1778995  MISS:     455602
cpu0_L1D RFO       ACCESS:    3881132  HIT:    3881098  MISS:         34
cpu0_L1D PREFETCH  ACCESS:          0  HIT:          0  MISS:          0
cpu0_L1D WRITEBACK ACCESS:          0  HIT:          0  MISS:          0
cpu0_L2C TOTAL     ACCESS:     655869  HIT:     213322  MISS:     442547
cpu0_L2C LOAD      ACCESS:     455535  HIT:      14287  MISS:     441248
cpu0_L2C RFO       ACCESS:         34  HIT:         29  MISS:          5
cpu0_L2C PREFETCH  ACCESS:          0  HIT:          0  MISS:          0
cpu0_L2C WRITEBACK ACCESS:     197967  HIT:     197641  MISS:        326
LLC TOTAL     ACCESS:     627559  HIT:     299814  MISS:     327745
LLC LOAD      ACCESS:     441246  HIT:     114676  MISS:     326570
LLC RFO       ACCESS:          5  HIT:          1  MISS:          4
LLC PREFETCH  ACCESS:          0  HIT:          0  MISS:          0
LLC WRITEBACK ACCESS:     185340  HIT:     184187  MISS:       1153
Heartbeat CPU 0 instructions: 68000000 cycles: 57635855 heartbeat IPC: 0.451557 cumulative IPC: 0.401484 (Simulation time: 0 hr 41 min 45 sec) 

Region of Interest Statistics
cpu0_DTLB TOTAL     ACCESS:    3891148  HIT:    3804986  MISS:      86162
cpu0_DTLB LOAD      ACCESS:    2281212  HIT:    2195565  MISS:      85647
cpu0_DTLB RFO       ACCESS:    1609936  HIT:    1609421  MISS:        515
cpu0_DTLB PREFETCH  ACCESS:          0  HIT:          0  MISS:          0
cpu0_DTLB WRITEBACK ACCESS:          0  HIT:          0  MISS:          0
cpu0_ITLB TOTAL     ACCESS:    1113942  HIT:    1113942  MISS:          0
cpu0_ITLB LOAD      ACCESS:    1113942  HIT:    1113942  MISS:          0
cpu0_ITLB RFO       ACCESS:          0  HIT:          0  MISS:          0
cpu0_ITLB PREFETCH  ACCESS:          0  HIT:          0  MISS:          0
cpu0_ITLB WRITEBACK ACCESS:          0  HIT:          0  MISS:          0
cpu0_STLB TOTAL     ACCESS:      86162  HIT:      26283  MISS:      59879
cpu0_STLB LOAD      ACCESS:      85647  HIT:      25772  MISS:      59875
cpu0_STLB RFO       ACCESS:        515  HIT:        511  MISS:          4
cpu0_STLB PREFETCH  ACCESS:          0  HIT:          0  MISS:          0
cpu0_STLB WRITEBACK ACCESS:          0  HIT:          0  MISS:          0
cpu0_L1D TOTAL     ACCESS:    6938289  HIT:    6430692  MISS:     507597
cpu0_L1D LOAD      ACCESS:    2503969  HIT:    1998796  MISS:     505173
cpu0_L1D RFO       ACCESS:    4375973  HIT:    4375939  MISS:         34
cpu0_L1D PREFETCH  ACCESS:          0  HIT:          0  MISS:          0
cpu0_L1D WRITEBACK ACCESS:          0  HIT:          0  MISS:          0
cpu0_L2C TOTAL     ACCESS:     732296  HIT:     241300  MISS:     490996
cpu0_L2C LOAD      ACCESS:     505107  HIT:      15465  MISS:     489642
cpu0_L2C RFO       ACCESS:         34  HIT:         29  MISS:          5
cpu0_L2C PREFETCH  ACCESS:          0  HIT:          0  MISS:          0
cpu0_L2C WRITEBACK ACCESS:     224765  HIT:     224413  MISS:        352
LLC TOTAL     ACCESS:     700725  HIT:     331220  MISS:     369505
LLC LOAD      ACCESS:     489640  HIT:     121525  MISS:     368115
LLC RFO       ACCESS:          5  HIT:          1  MISS:          4
LLC PREFETCH  ACCESS:          0  HIT:          0  MISS:          0
LLC WRITEBACK ACCESS:     210083  HIT:     208717  MISS:       1366
Heartbeat CPU 0 instructions: 70000002 cycles: 62829835 heartbeat IPC: 0.385062 cumulative IPC: 0.399779 (Simulation time: 0 hr 44 min 0 sec) 

Region of Interest Statistics
cpu0_DTLB TOTAL     ACCESS:    4324989  HIT:    4230086  MISS:      94903
cpu0_DTLB LOAD      ACCESS:    2529075  HIT:    2434712  MISS:      94363
cpu0_DTLB RFO       ACCESS:    1795914  HIT:    1795374  MISS:        540
cpu0_DTLB PREFETCH  ACCESS:          0  HIT:          0  MISS:          0
cpu0_DTLB WRITEBACK ACCESS:          0  HIT:          0  MISS:          0
cpu0_ITLB TOTAL     ACCESS:    1255695  HIT:    1255695  MISS:          0
cpu0_ITLB LOAD      ACCESS:    1255695  HIT:    1255695  MISS:          0
cpu0_ITLB RFO       ACCESS:          0  HIT:          0  MISS:          0
cpu0_ITLB PREFETCH  ACCESS:          0  HIT:          0  MISS:          0
cpu0_ITLB WRITEBACK ACCESS:          0  HIT:          0  MISS:          0
cpu0_STLB TOTAL     ACCESS:      94903  HIT:      28661  MISS:      66242
cpu0_STLB LOAD      ACCESS:      94363  HIT:      28126  MISS:      66237
cpu0_STLB RFO       ACCESS:        540  HIT:        535  MISS:          5
cpu0_STLB PREFETCH  ACCESS:          0  HIT:          0  MISS:          0
cpu0_STLB WRITEBACK ACCESS:          0  HIT:          0  MISS:          0
cpu0_L1D TOTAL     ACCESS:    7702229  HIT:    7137729  MISS:     564500
cpu0_L1D LOAD      ACCESS:    2766170  HIT:    2204169  MISS:     562001
cpu0_L1D RFO       ACCESS:    4871378  HIT:    4871343  MISS:         35
cpu0_L1D PREFETCH  ACCESS:          0  HIT:          0  MISS:          0
cpu0_L1D WRITEBACK ACCESS:          0  HIT:          0  MISS:          0
cpu0_L2C TOTAL     ACCESS:     819024  HIT:     272236  MISS:     546788
cpu0_L2C LOAD      ACCESS:     561932  HIT:      16565  MISS:     545367
cpu0_L2C RFO       ACCESS:         35  HIT:         29  MISS:          6
cpu0_L2C PREFETCH  ACCESS:          0  HIT:          0  MISS:          0
cpu0_L2C WRITEBACK ACCESS:     254593  HIT:     254210  MISS:        383
LLC TOTAL     ACCESS:     784768  HIT:     367043  MISS:     417725
LLC LOAD      ACCESS:     545365  HIT:     129299  MISS:     416066
LLC RFO       ACCESS:          6  HIT:          1  MISS:          5
LLC PREFETCH  ACCESS:          0  HIT:          0  MISS:          0
LLC WRITEBACK ACCESS:     238365  HIT:     236737  MISS:       1628
Heartbeat CPU 0 instructions: 72000000 cycles: 67215443 heartbeat IPC: 0.456037 cumulative IPC: 0.404313 (Simulation time: 0 hr 45 min 59 sec) 

Region of Interest Statistics
cpu0_DTLB TOTAL     ACCESS:    4754510  HIT:    4649820  MISS:     104690
cpu0_DTLB LOAD      ACCESS:    2765988  HIT:    2661875  MISS:     104113
cpu0_DTLB RFO       ACCESS:    1988522  HIT:    1987945  MISS:        577
cpu0_DTLB PREFETCH  ACCESS:          0  HIT:          0  MISS:          0
cpu0_DTLB WRITEBACK ACCESS:          0  HIT:          0  MISS:          0
cpu0_ITLB TOTAL     ACCESS:    1418133  HIT:    1418133  MISS:          0
cpu0_ITLB LOAD      ACCESS:    1418133  HIT:    1418133  MISS:          0
cpu0_ITLB RFO       ACCESS:          0  HIT:          0  MISS:          0
cpu0_ITLB PREFETCH  ACCESS:          0  HIT:          0  MISS:          0
cpu0_ITLB WRITEBACK ACCESS:          0  HIT:          0  MISS:          0
cpu0_STLB TOTAL     ACCESS:     104690  HIT:      31196  MISS:      73494
cpu0_STLB LOAD      ACCESS:     104113  HIT:      30624  MISS:      73489
cpu0_STLB RFO       ACCESS:        577  HIT:        572  MISS:          5
cpu0_STLB PREFETCH  ACCESS:          0  HIT:          0  MISS:          0
cpu0_STLB WRITEBACK ACCESS:          0  HIT:          0  MISS:          0
cpu0_L1D TOTAL     ACCESS:    8464859  HIT:    7850639  MISS:     614220
cpu0_L1D LOAD      ACCESS:    3012370  HIT:    2400726  MISS:     611644
cpu0_L1D RFO       ACCESS:    5380602  HIT:    5380567  MISS:         35
cpu0_L1D PREFETCH  ACCESS:          0  HIT:          0  MISS:          0
cpu0_L1D WRITEBACK ACCESS:          0  HIT:          0  MISS:          0
cpu0_L2C TOTAL     ACCESS:     903273  HIT:     307756  MISS:     595517
cpu0_L2C LOAD      ACCESS:     611574  HIT:      17550  MISS:     594024
cpu0_L2C RFO       ACCESS:         35  HIT:         29  MISS:          6
cpu0_L2C PREFETCH  ACCESS:          0  HIT:          0  MISS:          0
cpu0_L2C WRITEBACK ACCESS:     289123  HIT:     288704  MISS:        419
LLC TOTAL     ACCESS:     867102  HIT:     402576  MISS:     464526
LLC LOAD      ACCESS:     594022  HIT:     131546  MISS:     462476
LLC RFO       ACCESS:          6  HIT:          1  MISS:          5
LLC PREFETCH  ACCESS:          0  HIT:          0  MISS:          0
LLC WRITEBACK ACCESS:     272006  HIT:     269994  MISS:       2012
Heartbeat CPU 0 instructions: 74000000 cycles: 71769114 heartbeat IPC: 0.439206 cumulative IPC: 0.407008 (Simulation time: 0 hr 48 min 0 sec) 

Region of Interest Statistics
cpu0_DTLB TOTAL     ACCESS:    5183439  HIT:    5069389  MISS:     114050
cpu0_DTLB LOAD      ACCESS:    3001428  HIT:    2887966  MISS:     113462
cpu0_DTLB RFO       ACCESS:    2182011  HIT:    2181423  MISS:        588
cpu0_DTLB PREFETCH  ACCESS:          0  HIT:          0  MISS:          0
cpu0_DTLB WRITEBACK ACCESS:          0  HIT:          0  MISS:          0
cpu0_ITLB TOTAL     ACCESS:    1592702  HIT:    1592702  MISS:          0
cpu0_ITLB LOAD      ACCESS:    1592702  HIT:    1592702  MISS:          0
cpu0_ITLB RFO       ACCESS:          0  HIT:          0  MISS:          0
cpu0_ITLB PREFETCH  ACCESS:          0  HIT:          0  MISS:          0
cpu0_ITLB WRITEBACK ACCESS:          0  HIT:          0  MISS:          0
cpu0_STLB TOTAL     ACCESS:     114050  HIT:      33546  MISS:      80504
cpu0_STLB LOAD      ACCESS:     113462  HIT:      32963  MISS:      80499
cpu0_STLB RFO       ACCESS:        588  HIT:        583  MISS:          5
cpu0_STLB PREFETCH  ACCESS:          0  HIT:          0  MISS:          0
cpu0_STLB WRITEBACK ACCESS:          0  HIT:          0  MISS:          0
cpu0_L1D TOTAL     ACCESS:    9222361  HIT:    8559107  MISS:     663254
cpu0_L1D LOAD      ACCESS:    3252884  HIT:    2592267  MISS:     660617
cpu0_L1D RFO       ACCESS:    5890630  HIT:    5890595  MISS:         35
cpu0_L1D PREFETCH  ACCESS:          0  HIT:          0  MISS:          0
cpu0_L1D WRITEBACK ACCESS:          0  HIT:          0  MISS:          0
cpu0_L2C TOTAL     ACCESS:     986622  HIT:     343077  MISS:     643545
cpu0_L2C LOAD      ACCESS:     660545  HIT:      18541  MISS:     642004
cpu0_L2C RFO       ACCESS:         35  HIT:         29  MISS:          6
cpu0_L2C PREFETCH  ACCESS:          0  HIT:          0  MISS:          0
cpu0_L2C WRITEBACK ACCESS:     323440  HIT:     322992  MISS:        448
LLC TOTAL     ACCESS:     948724  HIT:     437104  MISS:     511620
LLC LOAD      ACCESS:     642002  HIT:     132829  MISS:     509173
LLC RFO       ACCESS:          6  HIT:          1  MISS:          5
LLC PREFETCH  ACCESS:          0  HIT:          0  MISS:          0
LLC WRITEBACK ACCESS:     305629  HIT:     303225  MISS:       2404
Heartbeat CPU 0 instructions: 76000000 cycles: 76449083 heartbeat IPC: 0.427353 cumulative IPC: 0.408504 (Simulation time: 0 hr 50 min 3 sec) 

Region of Interest Statistics
cpu0_DTLB TOTAL     ACCESS:    5611942  HIT:    5488105  MISS:     123837
cpu0_DTLB LOAD      ACCESS:    3236968  HIT:    3113739  MISS:     123229
cpu0_DTLB RFO       ACCESS:    2374974  HIT:    2374366  MISS:        608
cpu0_DTLB PREFETCH  ACCESS:          0  HIT:          0  MISS:          0
cpu0_DTLB WRITEBACK ACCESS:          0  HIT:          0  MISS:          0
cpu0_ITLB TOTAL     ACCESS:    1762917  HIT:    1762917  MISS:          0
cpu0_ITLB LOAD      ACCESS:    1762917  HIT:    1762917  MISS:          0
cpu0_ITLB RFO       ACCESS:          0  HIT:          0  MISS:          0
cpu0_ITLB PREFETCH  ACCESS:          0  HIT:          0  MISS:          0
cpu0_ITLB WRITEBACK ACCESS:          0  HIT:          0  MISS:          0
cpu0_STLB TOTAL     ACCESS:     123837  HIT:      36557  MISS:      87280
cpu0_STLB LOAD      ACCESS:     123229  HIT:      35954  MISS:      87275
cpu0_STLB RFO       ACCESS:        608  HIT:        603  MISS:          5
cpu0_STLB PREFETCH  ACCESS:          0  HIT:          0  MISS:          0
cpu0_STLB WRITEBACK ACCESS:          0  HIT:          0  MISS:          0
cpu0_L1D TOTAL     ACCESS:    9984624  HIT:    9272911  MISS:     711713
cpu0_L1D LOAD      ACCESS:    3498119  HIT:    2789112  MISS:     709007
cpu0_L1D RFO       ACCESS:    6400923  HIT:    6400888  MISS:         35
cpu0_L1D PREFETCH  ACCESS:          0  HIT:          0  MISS:          0
cpu0_L1D WRITEBACK ACCESS:          0  HIT:          0  MISS:          0
cpu0_L2C TOTAL     ACCESS:    1069044  HIT:     378050  MISS:     690994
cpu0_L2C LOAD      ACCESS:     708933  HIT:      19546  MISS:     689387
cpu0_L2C RFO       ACCESS:         35  HIT:         29  MISS:          6
cpu0_L2C PREFETCH  ACCESS:          0  HIT:          0  MISS:          0
cpu0_L2C WRITEBACK ACCESS:     357405  HIT:     356921  MISS:        484
LLC TOTAL     ACCESS:    1029303  HIT:     470688  MISS:     558615
LLC LOAD      ACCESS:     689385  HIT:     133566  MISS:     555819
LLC RFO       ACCESS:          6  HIT:          1  MISS:          5
LLC PREFETCH  ACCESS:          0  HIT:          0  MISS:          0
LLC WRITEBACK ACCESS:     338795  HIT:     336049  MISS:       2746
Heartbeat CPU 0 instructions: 78000004 cycles: 80037863 heartbeat IPC: 0.557294 cumulative IPC: 0.416446 (Simulation time: 0 hr 51 min 38 sec) 

Region of Interest Statistics
cpu0_DTLB TOTAL     ACCESS:    6045143  HIT:    5915152  MISS:     129991
cpu0_DTLB LOAD      ACCESS:    3476765  HIT:    3347403  MISS:     129362
cpu0_DTLB RFO       ACCESS:    2568378  HIT:    2567749  MISS:        629
cpu0_DTLB PREFETCH  ACCESS:          0  HIT:          0  MISS:          0
cpu0_DTLB WRITEBACK ACCESS:          0  HIT:          0  MISS:          0
cpu0_ITLB TOTAL     ACCESS:    1931859  HIT:    1931859  MISS:          0
cpu0_ITLB LOAD      ACCESS:    1931859  HIT:    1931859  MISS:          0
cpu0_ITLB RFO       ACCESS:          0  HIT:          0  MISS:          0
cpu0_ITLB PREFETCH  ACCESS:          0  HIT:          0  MISS:          0
cpu0_ITLB WRITEBACK ACCESS:          0  HIT:          0  MISS:          0
cpu0_STLB TOTAL     ACCESS:     129991  HIT:      39295  MISS:      90696
cpu0_STLB LOAD      ACCESS:     129362  HIT:      38671  MISS:      90691
cpu0_STLB RFO       ACCESS:        629  HIT:        624  MISS:          5
cpu0_STLB PREFETCH  ACCESS:          0  HIT:          0  MISS:          0
cpu0_STLB WRITEBACK ACCESS:          0  HIT:          0  MISS:          0
cpu0_L1D TOTAL     ACCESS:   10754068  HIT:   10009264  MISS:     744804
cpu0_L1D LOAD      ACCESS:    3753635  HIT:    3011589  MISS:     742046
cpu0_L1D RFO       ACCESS:    6911458  HIT:    6911423  MISS:         35
cpu0_L1D PREFETCH  ACCESS:          0  HIT:          0  MISS:          0
cpu0_L1D WRITEBACK ACCESS:          0  HIT:          0  MISS:          0
cpu0_L2C TOTAL     ACCESS:    1124021  HIT:     400625  MISS:     723396
cpu0_L2C LOAD      ACCESS:     741972  HIT:      20215  MISS:     721757
cpu0_L2C RFO       ACCESS:         35  HIT:         29  MISS:          6
cpu0_L2C PREFETCH  ACCESS:          0  HIT:          0  MISS:          0
cpu0_L2C WRITEBACK ACCESS:     379291  HIT:     378791  MISS:        500
LLC TOTAL     ACCESS:    1084358  HIT:     493517  MISS:     590841
LLC LOAD      ACCESS:     721755  HIT:     133961  MISS:     587794
LLC RFO       ACCESS:          6  HIT:          1  MISS:          5
LLC PREFETCH  ACCESS:          0  HIT:          0  MISS:          0
LLC WRITEBACK ACCESS:     361464  HIT:     358470  MISS:       2994
Heartbeat CPU 0 instructions: 80000002 cycles: 93586981 heartbeat IPC: 0.147611 cumulative IPC: 0.371357 (Simulation time: 0 hr 54 min 44 sec) 

Region of Interest Statistics
cpu0_DTLB TOTAL     ACCESS:    6545934  HIT:    6407090  MISS:     138844
cpu0_DTLB LOAD      ACCESS:    3833042  HIT:    3694838  MISS:     138204
cpu0_DTLB RFO       ACCESS:    2712892  HIT:    2712252  MISS:        640
cpu0_DTLB PREFETCH  ACCESS:          0  HIT:          0  MISS:          0
cpu0_DTLB WRITEBACK ACCESS:          0  HIT:          0  MISS:          0
cpu0_ITLB TOTAL     ACCESS:    2102351  HIT:    2102351  MISS:          0
cpu0_ITLB LOAD      ACCESS:    2102351  HIT:    2102351  MISS:          0
cpu0_ITLB RFO       ACCESS:          0  HIT:          0  MISS:          0
cpu0_ITLB PREFETCH  ACCESS:          0  HIT:          0  MISS:          0
cpu0_ITLB WRITEBACK ACCESS:          0  HIT:          0  MISS:          0
cpu0_STLB TOTAL     ACCESS:     138844  HIT:      43091  MISS:      95753
cpu0_STLB LOAD      ACCESS:     138204  HIT:      42457  MISS:      95747
cpu0_STLB RFO       ACCESS:        640  HIT:        634  MISS:          6
cpu0_STLB PREFETCH  ACCESS:          0  HIT:          0  MISS:          0
cpu0_STLB WRITEBACK ACCESS:          0  HIT:          0  MISS:          0
cpu0_L1D TOTAL     ACCESS:   11553947  HIT:   10649043  MISS:     904904
cpu0_L1D LOAD      ACCESS:    4164913  HIT:    3263091  MISS:     901822
cpu0_L1D RFO       ACCESS:    7295022  HIT:    7294938  MISS:         84
cpu0_L1D PREFETCH  ACCESS:          0  HIT:          0  MISS:          0
cpu0_L1D WRITEBACK ACCESS:          0  HIT:          0  MISS:          0
cpu0_L2C TOTAL     ACCESS:    1306849  HIT:     425937  MISS:     880912
cpu0_L2C LOAD      ACCESS:     901748  HIT:      22569  MISS:     879179
cpu0_L2C RFO       ACCESS:         84  HIT:         73  MISS:         11
cpu0_L2C PREFETCH  ACCESS:          0  HIT:          0  MISS:          0
cpu0_L2C WRITEBACK ACCESS:     402019  HIT:     401476  MISS:        543
LLC TOTAL     ACCESS:    1266413  HIT:     597048  MISS:     669365
LLC LOAD      ACCESS:     879177  HIT:     213056  MISS:     666121
LLC RFO       ACCESS:         11  HIT:          3  MISS:          8
LLC PREFETCH  ACCESS:          0  HIT:          0  MISS:          0
LLC WRITEBACK ACCESS:     386046  HIT:     382865  MISS:       3181
Heartbeat CPU 0 instructions: 82000002 cycles: 98613750 heartbeat IPC: 0.39787 cumulative IPC: 0.37291 (Simulation time: 0 hr 56 min 43 sec) 

Region of Interest Statistics
cpu0_DTLB TOTAL     ACCESS:    7019169  HIT:    6870283  MISS:     148886
cpu0_DTLB LOAD      ACCESS:    4146914  HIT:    3998708  MISS:     148206
cpu0_DTLB RFO       ACCESS:    2872255  HIT:    2871575  MISS:        680
cpu0_DTLB PREFETCH  ACCESS:          0  HIT:          0  MISS:          0
cpu0_DTLB WRITEBACK ACCESS:          0  HIT:          0  MISS:          0
cpu0_ITLB TOTAL     ACCESS:    2258465  HIT:    2258465  MISS:          0
cpu0_ITLB LOAD      ACCESS:    2258465  HIT:    2258465  MISS:          0
cpu0_ITLB RFO       ACCESS:          0  HIT:          0  MISS:          0
cpu0_ITLB PREFETCH  ACCESS:          0  HIT:          0  MISS:          0
cpu0_ITLB WRITEBACK ACCESS:          0  HIT:          0  MISS:          0
cpu0_STLB TOTAL     ACCESS:     148886  HIT:      47369  MISS:     101517
cpu0_STLB LOAD      ACCESS:     148206  HIT:      46696  MISS:     101510
cpu0_STLB RFO       ACCESS:        680  HIT:        673  MISS:          7
cpu0_STLB PREFETCH  ACCESS:          0  HIT:          0  MISS:          0
cpu0_STLB WRITEBACK ACCESS:          0  HIT:          0  MISS:          0
cpu0_L1D TOTAL     ACCESS:   12337615  HIT:   11310456  MISS:    1027159
cpu0_L1D LOAD      ACCESS:    4516608  HIT:    3492752  MISS:    1023856
cpu0_L1D RFO       ACCESS:    7721272  HIT:    7721158  MISS:        114
cpu0_L1D PREFETCH  ACCESS:          0  HIT:          0  MISS:          0
cpu0_L1D WRITEBACK ACCESS:          0  HIT:          0  MISS:          0
cpu0_L2C TOTAL     ACCESS:    1456748  HIT:     455624  MISS:    1001124
cpu0_L2C LOAD      ACCESS:    1023775  HIT:      24461  MISS:     999314
cpu0_L2C RFO       ACCESS:        114  HIT:         99  MISS:         15
cpu0_L2C PREFETCH  ACCESS:          0  HIT:          0  MISS:          0
cpu0_L2C WRITEBACK ACCESS:     429670  HIT:     429097  MISS:        573
LLC TOTAL     ACCESS:    1408825  HIT:     706367  MISS:     702458
LLC LOAD      ACCESS:     999312  HIT:     300535  MISS:     698777
LLC RFO       ACCESS:         15  HIT:          5  MISS:         10
LLC PREFETCH  ACCESS:          0  HIT:          0  MISS:          0
LLC WRITEBACK ACCESS:     408276  HIT:     404666  MISS:       3610
Heartbeat CPU 0 instructions: 84000000 cycles: 102192727 heartbeat IPC: 0.558818 cumulative IPC: 0.380353 (Simulation time: 0 hr 58 min 39 sec) 

Region of Interest Statistics
cpu0_DTLB TOTAL     ACCESS:    7446764  HIT:    7285492  MISS:     161272
cpu0_DTLB LOAD      ACCESS:    4390237  HIT:    4229692  MISS:     160545
cpu0_DTLB RFO       ACCESS:    3056527  HIT:    3055800  MISS:        727
cpu0_DTLB PREFETCH  ACCESS:          0  HIT:          0  MISS:          0
cpu0_DTLB WRITEBACK ACCESS:          0  HIT:          0  MISS:          0
cpu0_ITLB TOTAL     ACCESS:    2383535  HIT:    2383535  MISS:          0
cpu0_ITLB LOAD      ACCESS:    2383535  HIT:    2383535  MISS:          0
cpu0_ITLB RFO       ACCESS:          0  HIT:          0  MISS:          0
cpu0_ITLB PREFETCH  ACCESS:          0  HIT:          0  MISS:          0
cpu0_ITLB WRITEBACK ACCESS:          0  HIT:          0  MISS:          0
cpu0_STLB TOTAL     ACCESS:     161272  HIT:      53480  MISS:     107792
cpu0_STLB LOAD      ACCESS:     160545  HIT:      52760  MISS:     107785
cpu0_STLB RFO       ACCESS:        727  HIT:        720  MISS:          7
cpu0_STLB PREFETCH  ACCESS:          0  HIT:          0  MISS:          0
cpu0_STLB WRITEBACK ACCESS:          0  HIT:          0  MISS:          0
cpu0_L1D TOTAL     ACCESS:   13102532  HIT:   12025860  MISS:    1076672
cpu0_L1D LOAD      ACCESS:    4775169  HIT:    3701855  MISS:    1073314
cpu0_L1D RFO       ACCESS:    8221396  HIT:    8221282  MISS:        114
cpu0_L1D PREFETCH  ACCESS:          0  HIT:          0  MISS:          0
cpu0_L1D WRITEBACK ACCESS:          0  HIT:          0  MISS:          0
cpu0_L2C TOTAL     ACCESS:    1536252  HIT:     486708  MISS:    1049544
cpu0_L2C LOAD      ACCESS:    1073233  HIT:      25554  MISS:    1047679
cpu0_L2C RFO       ACCESS:        114  HIT:         99  MISS:         15
cpu0_L2C PREFETCH  ACCESS:          0  HIT:          0  MISS:          0
cpu0_L2C WRITEBACK ACCESS:     459661  HIT:     459063  MISS:        598
LLC TOTAL     ACCESS:    1485701  HIT:     744494  MISS:     741207
LLC LOAD      ACCESS:    1047677  HIT:     310927  MISS:     736750
LLC RFO       ACCESS:         15  HIT:          5  MISS:         10
LLC PREFETCH  ACCESS:          0  HIT:          0  MISS:          0
LLC WRITEBACK ACCESS:     436757  HIT:     432379  MISS:       4378
Heartbeat CPU 0 instructions: 86000001 cycles: 105958935 heartbeat IPC: 0.531038 cumulative IPC: 0.386445 (Simulation time: 1 hr 0 min 39 sec) 

Region of Interest Statistics
cpu0_DTLB TOTAL     ACCESS:    7872334  HIT:    7700609  MISS:     171725
cpu0_DTLB LOAD      ACCESS:    4629476  HIT:    4458502  MISS:     170974
cpu0_DTLB RFO       ACCESS:    3242858  HIT:    3242107  MISS:        751
cpu0_DTLB PREFETCH  ACCESS:          0  HIT:          0  MISS:          0
cpu0_DTLB WRITEBACK ACCESS:          0  HIT:          0  MISS:          0
cpu0_ITLB TOTAL     ACCESS:    2512934  HIT:    2512934  MISS:          0
cpu0_ITLB LOAD      ACCESS:    2512934  HIT:    2512934  MISS:          0
cpu0_ITLB RFO       ACCESS:          0  HIT:          0  MISS:          0
cpu0_ITLB PREFETCH  ACCESS:          0  HIT:          0  MISS:          0
cpu0_ITLB WRITEBACK ACCESS:          0  HIT:          0  MISS:          0
cpu0_STLB TOTAL     ACCESS:     171725  HIT:      57506  MISS:     114219
cpu0_STLB LOAD      ACCESS:     170974  HIT:      56762  MISS:     114212
cpu0_STLB RFO       ACCESS:        751  HIT:        744  MISS:          7
cpu0_STLB PREFETCH  ACCESS:          0  HIT:          0  MISS:          0
cpu0_STLB WRITEBACK ACCESS:          0  HIT:          0  MISS:          0
cpu0_L1D TOTAL     ACCESS:   13868819  HIT:   12744342  MISS:    1124477
cpu0_L1D LOAD      ACCESS:    5030102  HIT:    3909055  MISS:    1121047
cpu0_L1D RFO       ACCESS:    8726351  HIT:    8726237  MISS:        114
cpu0_L1D PREFETCH  ACCESS:          0  HIT:          0  MISS:          0
cpu0_L1D WRITEBACK ACCESS:          0  HIT:          0  MISS:          0
cpu0_L2C TOTAL     ACCESS:    1615007  HIT:     518614  MISS:    1096393
cpu0_L2C LOAD      ACCESS:    1120965  HIT:      26496  MISS:    1094469
cpu0_L2C RFO       ACCESS:        114  HIT:         99  MISS:         15
cpu0_L2C PREFETCH  ACCESS:          0  HIT:          0  MISS:          0
cpu0_L2C WRITEBACK ACCESS:     490612  HIT:     489986  MISS:        626
LLC TOTAL     ACCESS:    1562815  HIT:     779854  MISS:     782961
LLC LOAD      ACCESS:    1094467  HIT:     316681  MISS:     777786
LLC RFO       ACCESS:         15  HIT:          5  MISS:         10
LLC PREFETCH  ACCESS:          0  HIT:          0  MISS:          0
LLC WRITEBACK ACCESS:     467050  HIT:     461959  MISS:       5091
Heartbeat CPU 0 instructions: 88000002 cycles: 111877686 heartbeat IPC: 0.337909 cumulative IPC: 0.383546 (Simulation time: 1 hr 2 min 52 sec) 

Region of Interest Statistics
cpu0_DTLB TOTAL     ACCESS:    8302061  HIT:    8120251  MISS:     181810
cpu0_DTLB LOAD      ACCESS:    4876408  HIT:    4695364  MISS:     181044
cpu0_DTLB RFO       ACCESS:    3425653  HIT:    3424887  MISS:        766
cpu0_DTLB PREFETCH  ACCESS:          0  HIT:          0  MISS:          0
cpu0_DTLB WRITEBACK ACCESS:          0  HIT:          0  MISS:          0
cpu0_ITLB TOTAL     ACCESS:    2656468  HIT:    2656468  MISS:          0
cpu0_ITLB LOAD      ACCESS:    2656468  HIT:    2656468  MISS:          0
cpu0_ITLB RFO       ACCESS:          0  HIT:          0  MISS:          0
cpu0_ITLB PREFETCH  ACCESS:          0  HIT:          0  MISS:          0
cpu0_ITLB WRITEBACK ACCESS:          0  HIT:          0  MISS:          0
cpu0_STLB TOTAL     ACCESS:     181810  HIT:      60908  MISS:     120902
cpu0_STLB LOAD      ACCESS:     181044  HIT:      60150  MISS:     120894
cpu0_STLB RFO       ACCESS:        766  HIT:        758  MISS:          8
cpu0_STLB PREFETCH  ACCESS:          0  HIT:          0  MISS:          0
cpu0_STLB WRITEBACK ACCESS:          0  HIT:          0  MISS:          0
cpu0_L1D TOTAL     ACCESS:   14636346  HIT:   13450350  MISS:    1185996
cpu0_L1D LOAD      ACCESS:    5299216  HIT:    4116732  MISS:    1182484
cpu0_L1D RFO       ACCESS:    9218113  HIT:    9217997  MISS:        116
cpu0_L1D PREFETCH  ACCESS:          0  HIT:          0  MISS:          0
cpu0_L1D WRITEBACK ACCESS:          0  HIT:          0  MISS:          0
cpu0_L2C TOTAL     ACCESS:    1706978  HIT:     550264  MISS:    1156714
cpu0_L2C LOAD      ACCESS:    1182399  HIT:      27693  MISS:    1154706
cpu0_L2C RFO       ACCESS:        116  HIT:        100  MISS:         16
cpu0_L2C PREFETCH  ACCESS:          0  HIT:          0  MISS:          0
cpu0_L2C WRITEBACK ACCESS:     521067  HIT:     520394  MISS:        673
LLC TOTAL     ACCESS:    1653615  HIT:     817637  MISS:     835978
LLC LOAD      ACCESS:    1154704  HIT:     324358  MISS:     830346
LLC RFO       ACCESS:         16  HIT:          5  MISS:         11
LLC PREFETCH  ACCESS:          0  HIT:          0  MISS:          0
LLC WRITEBACK ACCESS:     497576  HIT:     492037  MISS:       5539
Heartbeat CPU 0 instructions: 90000003 cycles: 115439088 heartbeat IPC: 0.561577 cumulative IPC: 0.389723 (Simulation time: 1 hr 4 min 38 sec) 

Region of Interest Statistics
cpu0_DTLB TOTAL     ACCESS:    8729167  HIT:    8536066  MISS:     193101
cpu0_DTLB LOAD      ACCESS:    5121573  HIT:    4929420  MISS:     192153
cpu0_DTLB RFO       ACCESS:    3607594  HIT:    3606646  MISS:        948
cpu0_DTLB PREFETCH  ACCESS:          0  HIT:          0  MISS:          0
cpu0_DTLB WRITEBACK ACCESS:          0  HIT:          0  MISS:          0
cpu0_ITLB TOTAL     ACCESS:    2779441  HIT:    2779441  MISS:          0
cpu0_ITLB LOAD      ACCESS:    2779441  HIT:    2779441  MISS:          0
cpu0_ITLB RFO       ACCESS:          0  HIT:          0  MISS:          0
cpu0_ITLB PREFETCH  ACCESS:          0  HIT:          0  MISS:          0
cpu0_ITLB WRITEBACK ACCESS:          0  HIT:          0  MISS:          0
cpu0_STLB TOTAL     ACCESS:     193101  HIT:      69327  MISS:     123774
cpu0_STLB LOAD      ACCESS:     192153  HIT:      68387  MISS:     123766
cpu0_STLB RFO       ACCESS:        948  HIT:        940  MISS:          8
cpu0_STLB PREFETCH  ACCESS:          0  HIT:          0  MISS:          0
cpu0_STLB WRITEBACK ACCESS:          0  HIT:          0  MISS:          0
cpu0_L1D TOTAL     ACCESS:   15407306  HIT:   14187747  MISS:    1219559
cpu0_L1D LOAD      ACCESS:    5569943  HIT:    4353942  MISS:    1216001
cpu0_L1D RFO       ACCESS:    9715487  HIT:    9715371  MISS:        116
cpu0_L1D PREFETCH  ACCESS:          0  HIT:          0  MISS:          0
cpu0_L1D WRITEBACK ACCESS:          0  HIT:          0  MISS:          0
cpu0_L2C TOTAL     ACCESS:    1755813  HIT:     566076  MISS:    1189737
cpu0_L2C LOAD      ACCESS:    1215906  HIT:      28216  MISS:    1187690
cpu0_L2C RFO       ACCESS:        116  HIT:        100  MISS:         16
cpu0_L2C PREFETCH  ACCESS:          0  HIT:          0  MISS:          0
cpu0_L2C WRITEBACK ACCESS:     536349  HIT:     535656  MISS:        693
LLC TOTAL     ACCESS:    1702908  HIT:     838584  MISS:     864324
LLC LOAD      ACCESS:    1187688  HIT:     329153  MISS:     858535
LLC RFO       ACCESS:         16  HIT:          5  MISS:         11
LLC PREFETCH  ACCESS:          0  HIT:          0  MISS:          0
LLC WRITEBACK ACCESS:     513866  HIT:     508171  MISS:       5695
Heartbeat CPU 0 instructions: 92000002 cycles: 118309803 heartbeat IPC: 0.69669 cumulative IPC: 0.398076 (Simulation time: 1 hr 6 min 25 sec) 

Region of Interest Statistics
cpu0_DTLB TOTAL     ACCESS:    9150760  HIT:    8946912  MISS:     203848
cpu0_DTLB LOAD      ACCESS:    5359940  HIT:    5157055  MISS:     202885
cpu0_DTLB RFO       ACCESS:    3790820  HIT:    3789857  MISS:        963
cpu0_DTLB PREFETCH  ACCESS:          0  HIT:          0  MISS:          0
cpu0_DTLB WRITEBACK ACCESS:          0  HIT:          0  MISS:          0
cpu0_ITLB TOTAL     ACCESS:    2894075  HIT:    2894075  MISS:          0
cpu0_ITLB LOAD      ACCESS:    2894075  HIT:    2894075  MISS:          0
cpu0_ITLB RFO       ACCESS:          0  HIT:          0  MISS:          0
cpu0_ITLB PREFETCH  ACCESS:          0  HIT:          0  MISS:          0
cpu0_ITLB WRITEBACK ACCESS:          0  HIT:          0  MISS:          0
cpu0_STLB TOTAL     ACCESS:     203848  HIT:      76644  MISS:     127204
cpu0_STLB LOAD      ACCESS:     202885  HIT:      75689  MISS:     127196
cpu0_STLB RFO       ACCESS:        963  HIT:        955  MISS:          8
cpu0_STLB PREFETCH  ACCESS:          0  HIT:          0  MISS:          0
cpu0_STLB WRITEBACK ACCESS:          0  HIT:          0  MISS:          0
cpu0_L1D TOTAL     ACCESS:   16179887  HIT:   14929394  MISS:    1250493
cpu0_L1D LOAD      ACCESS:    5834709  HIT:    4587838  MISS:    1246871
cpu0_L1D RFO       ACCESS:   10219887  HIT:   10219771  MISS:        116
cpu0_L1D PREFETCH  ACCESS:          0  HIT:          0  MISS:          0
cpu0_L1D WRITEBACK ACCESS:          0  HIT:          0  MISS:          0
cpu0_L2C TOTAL     ACCESS:    1803828  HIT:     583902  MISS:    1219926
cpu0_L2C LOAD      ACCESS:    1246773  HIT:      28937  MISS:    1217836
cpu0_L2C RFO       ACCESS:        116  HIT:        100  MISS:         16
cpu0_L2C PREFETCH  ACCESS:          0  HIT:          0  MISS:          0
cpu0_L2C WRITEBACK ACCESS:     553433  HIT:     552714  MISS:        719
LLC TOTAL     ACCESS:    1747087  HIT:     856905  MISS:     890182
LLC LOAD      ACCESS:    1217834  HIT:     333546  MISS:     884288
LLC RFO       ACCESS:         16  HIT:          5  MISS:         11
LLC PREFETCH  ACCESS:          0  HIT:          0  MISS:          0
LLC WRITEBACK ACCESS:     527882  HIT:     522085  MISS:       5797
Heartbeat CPU 0 instructions: 94000004 cycles: 127651315 heartbeat IPC: 0.214098 cumulative IPC: 0.383111 (Simulation time: 1 hr 9 min 6 sec) 

Region of Interest Statistics
cpu0_DTLB TOTAL     ACCESS:    9606060  HIT:    9391449  MISS:     214611
cpu0_DTLB LOAD      ACCESS:    5650067  HIT:    5436453  MISS:     213614
cpu0_DTLB RFO       ACCESS:    3955993  HIT:    3954996  MISS:        997
cpu0_DTLB PREFETCH  ACCESS:          0  HIT:          0  MISS:          0
cpu0_DTLB WRITEBACK ACCESS:          0  HIT:          0  MISS:          0
cpu0_ITLB TOTAL     ACCESS:    3037472  HIT:    3037472  MISS:          0
cpu0_ITLB LOAD      ACCESS:    3037472  HIT:    3037472  MISS:          0
cpu0_ITLB RFO       ACCESS:          0  HIT:          0  MISS:          0
cpu0_ITLB PREFETCH  ACCESS:          0  HIT:          0  MISS:          0
cpu0_ITLB WRITEBACK ACCESS:          0  HIT:          0  MISS:          0
cpu0_STLB TOTAL     ACCESS:     214611  HIT:      80641  MISS:     133970
cpu0_STLB LOAD      ACCESS:     213614  HIT:      79654  MISS:     133960
cpu0_STLB RFO       ACCESS:        997  HIT:        987  MISS:         10
cpu0_STLB PREFETCH  ACCESS:          0  HIT:          0  MISS:          0
cpu0_STLB WRITEBACK ACCESS:          0  HIT:          0  MISS:          0
cpu0_L1D TOTAL     ACCESS:   16957365  HIT:   15603696  MISS:    1353669
cpu0_L1D LOAD      ACCESS:    6160614  HIT:    4810787  MISS:    1349827
cpu0_L1D RFO       ACCESS:   10664728  HIT:   10664592  MISS:        136
cpu0_L1D PREFETCH  ACCESS:          0  HIT:          0  MISS:          0
cpu0_L1D WRITEBACK ACCESS:          0  HIT:          0  MISS:          0
cpu0_L2C TOTAL     ACCESS:    1934671  HIT:     613459  MISS:    1321212
cpu0_L2C LOAD      ACCESS:    1349727  HIT:      30706  MISS:    1319021
cpu0_L2C RFO       ACCESS:        136  HIT:        117  MISS:         19
cpu0_L2C PREFETCH  ACCESS:          0  HIT:          0  MISS:          0
cpu0_L2C WRITEBACK ACCESS:     581102  HIT:     580331  MISS:        771
LLC TOTAL     ACCESS:    1875983  HIT:     917372  MISS:     958611
LLC LOAD      ACCESS:    1319019  HIT:     366515  MISS:     952504
LLC RFO       ACCESS:         19  HIT:          6  MISS:         13
LLC PREFETCH  ACCESS:          0  HIT:          0  MISS:          0
LLC WRITEBACK ACCESS:     555544  HIT:     549544  MISS:       6000
Heartbeat CPU 0 instructions: 96000000 cycles: 130962474 heartbeat IPC: 0.604017 cumulative IPC: 0.389302 (Simulation time: 1 hr 10 min 40 sec) 

Region of Interest Statistics
cpu0_DTLB TOTAL     ACCESS:   10042007  HIT:    9822283  MISS:     219724
cpu0_DTLB LOAD      ACCESS:    5906485  HIT:    5687767  MISS:     218718
cpu0_DTLB RFO       ACCESS:    4135522  HIT:    4134516  MISS:       1006
cpu0_DTLB PREFETCH  ACCESS:          0  HIT:          0  MISS:          0
cpu0_DTLB WRITEBACK ACCESS:          0  HIT:          0  MISS:          0
cpu0_ITLB TOTAL     ACCESS:    3171361  HIT:    3171361  MISS:          0
cpu0_ITLB LOAD      ACCESS:    3171361  HIT:    3171361  MISS:          0
cpu0_ITLB RFO       ACCESS:          0  HIT:          0  MISS:          0
cpu0_ITLB PREFETCH  ACCESS:          0  HIT:          0  MISS:          0
cpu0_ITLB WRITEBACK ACCESS:          0  HIT:          0  MISS:          0
cpu0_STLB TOTAL     ACCESS:     219724  HIT:      82796  MISS:     136928
cpu0_STLB LOAD      ACCESS:     218718  HIT:      81800  MISS:     136918
cpu0_STLB RFO       ACCESS:       1006  HIT:        996  MISS:         10
cpu0_STLB PREFETCH  ACCESS:          0  HIT:          0  MISS:          0
cpu0_STLB WRITEBACK ACCESS:          0  HIT:          0  MISS:          0
cpu0_L1D TOTAL     ACCESS:   17728550  HIT:   16333269  MISS:    1395281
cpu0_L1D LOAD      ACCESS:    6442232  HIT:    5050863  MISS:    1391369
cpu0_L1D RFO       ACCESS:   11151343  HIT:   11151207  MISS:        136
cpu0_L1D PREFETCH  ACCESS:          0  HIT:          0  MISS:          0
cpu0_L1D WRITEBACK ACCESS:          0  HIT:          0  MISS:          0
cpu0_L2C TOTAL     ACCESS:    1991289  HIT:     629165  MISS:    1362124
cpu0_L2C LOAD      ACCESS:    1391268  HIT:      31375  MISS:    1359893
cpu0_L2C RFO       ACCESS:        136  HIT:        117  MISS:         19
cpu0_L2C PREFETCH  ACCESS:          0  HIT:          0  MISS:          0
cpu0_L2C WRITEBACK ACCESS:     596109  HIT:     595317  MISS:        792
LLC TOTAL     ACCESS:    1933403  HIT:     948687  MISS:     984716
LLC LOAD      ACCESS:    1359891  HIT:     381449  MISS:     978442
LLC RFO       ACCESS:         19  HIT:          6  MISS:         13
LLC PREFETCH  ACCESS:          0  HIT:          0  MISS:          0
LLC WRITEBACK ACCESS:     572073  HIT:     565908  MISS:       6165
Heartbeat CPU 0 instructions: 98000001 cycles: 133231147 heartbeat IPC: 0.881573 cumulative IPC: 0.398575 (Simulation time: 1 hr 12 min 9 sec) 

Region of Interest Statistics
cpu0_DTLB TOTAL     ACCESS:   10473814  HIT:   10250027  MISS:     223787
cpu0_DTLB LOAD      ACCESS:    6157964  HIT:    5935192  MISS:     222772
cpu0_DTLB RFO       ACCESS:    4315850  HIT:    4314835  MISS:       1015
cpu0_DTLB PREFETCH  ACCESS:          0  HIT:          0  MISS:          0
cpu0_DTLB WRITEBACK ACCESS:          0  HIT:          0  MISS:          0
cpu0_ITLB TOTAL     ACCESS:    3281414  HIT:    3281414  MISS:          0
cpu0_ITLB LOAD      ACCESS:    3281414  HIT:    3281414  MISS:          0
cpu0_ITLB RFO       ACCESS:          0  HIT:          0  MISS:          0
cpu0_ITLB PREFETCH  ACCESS:          0  HIT:          0  MISS:          0
cpu0_ITLB WRITEBACK ACCESS:          0  HIT:          0  MISS:          0
cpu0_STLB TOTAL     ACCESS:     223787  HIT:      85174  MISS:     138613
cpu0_STLB LOAD      ACCESS:     222772  HIT:      84169  MISS:     138603
cpu0_STLB RFO       ACCESS:       1015  HIT:       1005  MISS:         10
cpu0_STLB PREFETCH  ACCESS:          0  HIT:          0  MISS:          0
cpu0_STLB WRITEBACK ACCESS:          0  HIT:          0  MISS:          0
cpu0_L1D TOTAL     ACCESS:   18499905  HIT:   17077381  MISS:    1422524
cpu0_L1D LOAD      ACCESS:    6715643  HIT:    5297079  MISS:    1418564
cpu0_L1D RFO       ACCESS:   11647611  HIT:   11647475  MISS:        136
cpu0_L1D PREFETCH  ACCESS:          0  HIT:          0  MISS:          0
cpu0_L1D WRITEBACK ACCESS:          0  HIT:          0  MISS:          0
cpu0_L2C TOTAL     ACCESS:    2028505  HIT:     639610  MISS:    1388895
cpu0_L2C LOAD      ACCESS:    1418462  HIT:      31833  MISS:    1386629
cpu0_L2C RFO       ACCESS:        136  HIT:        117  MISS:         19
cpu0_L2C PREFETCH  ACCESS:          0  HIT:          0  MISS:          0
cpu0_L2C WRITEBACK ACCESS:     606083  HIT:     605272  MISS:        811
LLC TOTAL     ACCESS:    1970011  HIT:     968799  MISS:    1001212
LLC LOAD      ACCESS:    1386627  HIT:     391816  MISS:     994811
LLC RFO       ACCESS:         19  HIT:          6  MISS:         13
LLC PREFETCH  ACCESS:          0  HIT:          0  MISS:          0
LLC WRITEBACK ACCESS:     581929  HIT:     575638  MISS:       6291
Heartbeat CPU 0 instructions: 100000000 cycles: 135367736 heartbeat IPC: 0.936071 cumulative IPC: 0.407945 (Simulation time: 1 hr 13 min 18 sec) 

Region of Interest Statistics
cpu0_DTLB TOTAL     ACCESS:   10906319  HIT:   10680286  MISS:     226033
cpu0_DTLB LOAD      ACCESS:    6404502  HIT:    6179486  MISS:     225016
cpu0_DTLB RFO       ACCESS:    4501817  HIT:    4500800  MISS:       1017
cpu0_DTLB PREFETCH  ACCESS:          0  HIT:          0  MISS:          0
cpu0_DTLB WRITEBACK ACCESS:          0  HIT:          0  MISS:          0
cpu0_ITLB TOTAL     ACCESS:    3440196  HIT:    3440196  MISS:          0
cpu0_ITLB LOAD      ACCESS:    3440196  HIT:    3440196  MISS:          0
cpu0_ITLB RFO       ACCESS:          0  HIT:          0  MISS:          0
cpu0_ITLB PREFETCH  ACCESS:          0  HIT:          0  MISS:          0
cpu0_ITLB WRITEBACK ACCESS:          0  HIT:          0  MISS:          0
cpu0_STLB TOTAL     ACCESS:     226033  HIT:      86164  MISS:     139869
cpu0_STLB LOAD      ACCESS:     225016  HIT:      85158  MISS:     139858
cpu0_STLB RFO       ACCESS:       1017  HIT:       1006  MISS:         11
cpu0_STLB PREFETCH  ACCESS:          0  HIT:          0  MISS:          0
cpu0_STLB WRITEBACK ACCESS:          0  HIT:          0  MISS:          0
cpu0_L1D TOTAL     ACCESS:   19266165  HIT:   17814901  MISS:    1451264
cpu0_L1D LOAD      ACCESS:    6979659  HIT:    5532410  MISS:    1447249
cpu0_L1D RFO       ACCESS:   12148600  HIT:   12148463  MISS:        137
cpu0_L1D PREFETCH  ACCESS:          0  HIT:          0  MISS:          0
cpu0_L1D WRITEBACK ACCESS:          0  HIT:          0  MISS:          0
cpu0_L2C TOTAL     ACCESS:    2068131  HIT:     650933  MISS:    1417198
cpu0_L2C LOAD      ACCESS:    1447147  HIT:      32256  MISS:    1414891
cpu0_L2C RFO       ACCESS:        137  HIT:        117  MISS:         20
cpu0_L2C PREFETCH  ACCESS:          0  HIT:          0  MISS:          0
cpu0_L2C WRITEBACK ACCESS:     616969  HIT:     616127  MISS:        842
LLC TOTAL     ACCESS:    2006579  HIT:     989358  MISS:    1017221
LLC LOAD      ACCESS:    1414888  HIT:     404132  MISS:    1010756
LLC RFO       ACCESS:         20  HIT:          6  MISS:         14
LLC PREFETCH  ACCESS:          0  HIT:          0  MISS:          0
LLC WRITEBACK ACCESS:     590226  HIT:     583872  MISS:       6354
Heartbeat CPU 0 instructions: 102000003 cycles: 138595902 heartbeat IPC: 0.619548 cumulative IPC: 0.413375 (Simulation time: 1 hr 15 min 2 sec) 

Region of Interest Statistics
cpu0_DTLB TOTAL     ACCESS:   11332330  HIT:   11098845  MISS:     233485
cpu0_DTLB LOAD      ACCESS:    6642428  HIT:    6409989  MISS:     232439
cpu0_DTLB RFO       ACCESS:    4689902  HIT:    4688856  MISS:       1046
cpu0_DTLB PREFETCH  ACCESS:          0  HIT:          0  MISS:          0
cpu0_DTLB WRITEBACK ACCESS:          0  HIT:          0  MISS:          0
cpu0_ITLB TOTAL     ACCESS:    3592032  HIT:    3592032  MISS:          0
cpu0_ITLB LOAD      ACCESS:    3592032  HIT:    3592032  MISS:          0
cpu0_ITLB RFO       ACCESS:          0  HIT:          0  MISS:          0
cpu0_ITLB PREFETCH  ACCESS:          0  HIT:          0  MISS:          0
cpu0_ITLB WRITEBACK ACCESS:          0  HIT:          0  MISS:          0
cpu0_STLB TOTAL     ACCESS:     233485  HIT:      88450  MISS:     145035
cpu0_STLB LOAD      ACCESS:     232439  HIT:      87415  MISS:     145024
cpu0_STLB RFO       ACCESS:       1046  HIT:       1035  MISS:         11
cpu0_STLB PREFETCH  ACCESS:          0  HIT:          0  MISS:          0
cpu0_STLB WRITEBACK ACCESS:          0  HIT:          0  MISS:          0
cpu0_L1D TOTAL     ACCESS:   20028774  HIT:   18536714  MISS:    1492060
cpu0_L1D LOAD      ACCESS:    7229612  HIT:    5741635  MISS:    1487977
cpu0_L1D RFO       ACCESS:   12656127  HIT:   12655990  MISS:        137
cpu0_L1D PREFETCH  ACCESS:          0  HIT:          0  MISS:          0
cpu0_L1D WRITEBACK ACCESS:          0  HIT:          0  MISS:          0
cpu0_L2C TOTAL     ACCESS:    2135322  HIT:     678245  MISS:    1457077
cpu0_L2C LOAD      ACCESS:    1487871  HIT:      33160  MISS:    1454711
cpu0_L2C RFO       ACCESS:        137  HIT:        117  MISS:         20
cpu0_L2C PREFETCH  ACCESS:          0  HIT:          0  MISS:          0
cpu0_L2C WRITEBACK ACCESS:     643368  HIT:     642491  MISS:        877
LLC TOTAL     ACCESS:    2070593  HIT:    1019214  MISS:    1051379
LLC LOAD      ACCESS:    1454708  HIT:     410250  MISS:    1044458
LLC RFO       ACCESS:         20  HIT:          6  MISS:         14
LLC PREFETCH  ACCESS:          0  HIT:          0  MISS:          0
LLC WRITEBACK ACCESS:     614396  HIT:     607591  MISS:       6805
Heartbeat CPU 0 instructions: 104000000 cycles: 140674219 heartbeat IPC: 0.962316 cumulative IPC: 0.422297 (Simulation time: 1 hr 16 min 12 sec) 

Region of Interest Statistics
cpu0_DTLB TOTAL     ACCESS:   11761552  HIT:   11523840  MISS:     237712
cpu0_DTLB LOAD      ACCESS:    6881704  HIT:    6645041  MISS:     236663
cpu0_DTLB RFO       ACCESS:    4879848  HIT:    4878799  MISS:       1049
cpu0_DTLB PREFETCH  ACCESS:          0  HIT:          0  MISS:          0
cpu0_DTLB WRITEBACK ACCESS:          0  HIT:          0  MISS:          0
cpu0_ITLB TOTAL     ACCESS:    3762783  HIT:    3762783  MISS:          0
cpu0_ITLB LOAD      ACCESS:    3762783  HIT:    3762783  MISS:          0
cpu0_ITLB RFO       ACCESS:          0  HIT:          0  MISS:          0
cpu0_ITLB PREFETCH  ACCESS:          0  HIT:          0  MISS:          0
cpu0_ITLB WRITEBACK ACCESS:          0  HIT:          0  MISS:          0
cpu0_STLB TOTAL     ACCESS:     237712  HIT:      91363  MISS:     146349
cpu0_STLB LOAD      ACCESS:     236663  HIT:      90325  MISS:     146338
cpu0_STLB RFO       ACCESS:       1049  HIT:       1038  MISS:         11
cpu0_STLB PREFETCH  ACCESS:          0  HIT:          0  MISS:          0
cpu0_STLB WRITEBACK ACCESS:          0  HIT:          0  MISS:          0
cpu0_L1D TOTAL     ACCESS:   20792108  HIT:   19276913  MISS:    1515195
cpu0_L1D LOAD      ACCESS:    7481999  HIT:    5970930  MISS:    1511069
cpu0_L1D RFO       ACCESS:   13165765  HIT:   13165628  MISS:        137
cpu0_L1D PREFETCH  ACCESS:          0  HIT:          0  MISS:          0
cpu0_L1D WRITEBACK ACCESS:          0  HIT:          0  MISS:          0
cpu0_L2C TOTAL     ACCESS:    2171715  HIT:     692015  MISS:    1479700
cpu0_L2C LOAD      ACCESS:    1510963  HIT:      33651  MISS:    1477312
cpu0_L2C RFO       ACCESS:        137  HIT:        117  MISS:         20
cpu0_L2C PREFETCH  ACCESS:          0  HIT:          0  MISS:          0
cpu0_L2C WRITEBACK ACCESS:     656626  HIT:     655734  MISS:        892
LLC TOTAL     ACCESS:    2107078  HIT:    1037692  MISS:    1069386
LLC LOAD      ACCESS:    1477309  HIT:     415145  MISS:    1062164
LLC RFO       ACCESS:         20  HIT:          6  MISS:         14
LLC PREFETCH  ACCESS:          0  HIT:          0  MISS:          0
LLC WRITEBACK ACCESS:     628273  HIT:     621168  MISS:       7105
Heartbeat CPU 0 instructions: 106000004 cycles: 143540483 heartbeat IPC: 0.697774 cumulative IPC: 0.428337 (Simulation time: 1 hr 17 min 41 sec) 

Region of Interest Statistics
cpu0_DTLB TOTAL     ACCESS:   12190854  HIT:   11947833  MISS:     243021
cpu0_DTLB LOAD      ACCESS:    7120149  HIT:    6878188  MISS:     241961
cpu0_DTLB RFO       ACCESS:    5070705  HIT:    5069645  MISS:       1060
cpu0_DTLB PREFETCH  ACCESS:          0  HIT:          0  MISS:          0
cpu0_DTLB WRITEBACK ACCESS:          0  HIT:          0  MISS:          0
cpu0_ITLB TOTAL     ACCESS:    3934283  HIT:    3934283  MISS:          0
cpu0_ITLB LOAD      ACCESS:    3934283  HIT:    3934283  MISS:          0
cpu0_ITLB RFO       ACCESS:          0  HIT:          0  MISS:          0
cpu0_ITLB PREFETCH  ACCESS:          0  HIT:          0  MISS:          0
cpu0_ITLB WRITEBACK ACCESS:          0  HIT:          0  MISS:          0
cpu0_STLB TOTAL     ACCESS:     243021  HIT:      93263  MISS:     149758
cpu0_STLB LOAD      ACCESS:     241961  HIT:      92214  MISS:     149747
cpu0_STLB RFO       ACCESS:       1060  HIT:       1049  MISS:         11
cpu0_STLB PREFETCH  ACCESS:          0  HIT:          0  MISS:          0
cpu0_STLB WRITEBACK ACCESS:          0  HIT:          0  MISS:          0
cpu0_L1D TOTAL     ACCESS:   21556441  HIT:   20007607  MISS:    1548834
cpu0_L1D LOAD      ACCESS:    7733270  HIT:    6188613  MISS:    1544657
cpu0_L1D RFO       ACCESS:   13675441  HIT:   13675304  MISS:        137
cpu0_L1D PREFETCH  ACCESS:          0  HIT:          0  MISS:          0
cpu0_L1D WRITEBACK ACCESS:          0  HIT:          0  MISS:          0
cpu0_L2C TOTAL     ACCESS:    2227213  HIT:     714594  MISS:    1512619
cpu0_L2C LOAD      ACCESS:    1544548  HIT:      34347  MISS:    1510201
cpu0_L2C RFO       ACCESS:        137  HIT:        117  MISS:         20
cpu0_L2C PREFETCH  ACCESS:          0  HIT:          0  MISS:          0
cpu0_L2C WRITEBACK ACCESS:     678488  HIT:     677583  MISS:        905
LLC TOTAL     ACCESS:    2161325  HIT:    1062813  MISS:    1098512
LLC LOAD      ACCESS:    1510198  HIT:     419376  MISS:    1090822
LLC RFO       ACCESS:         20  HIT:          6  MISS:         14
LLC PREFETCH  ACCESS:          0  HIT:          0  MISS:          0
LLC WRITEBACK ACCESS:     649614  HIT:     642044  MISS:       7570
Heartbeat CPU 0 instructions: 108000003 cycles: 151649636 heartbeat IPC: 0.246635 cumulative IPC: 0.417725 (Simulation time: 1 hr 20 min 13 sec) 

Region of Interest Statistics
cpu0_DTLB TOTAL     ACCESS:   12636677  HIT:   12383602  MISS:     253075
cpu0_DTLB LOAD      ACCESS:    7390845  HIT:    7138864  MISS:     251981
cpu0_DTLB RFO       ACCESS:    5245832  HIT:    5244738  MISS:       1094
cpu0_DTLB PREFETCH  ACCESS:          0  HIT:          0  MISS:          0
cpu0_DTLB WRITEBACK ACCESS:          0  HIT:          0  MISS:          0
cpu0_ITLB TOTAL     ACCESS:    4096305  HIT:    4096305  MISS:          0
cpu0_ITLB LOAD      ACCESS:    4096305  HIT:    4096305  MISS:          0
cpu0_ITLB RFO       ACCESS:          0  HIT:          0  MISS:          0
cpu0_ITLB PREFETCH  ACCESS:          0  HIT:          0  MISS:          0
cpu0_ITLB WRITEBACK ACCESS:          0  HIT:          0  MISS:          0
cpu0_STLB TOTAL     ACCESS:     253075  HIT:      96413  MISS:     156662
cpu0_STLB LOAD      ACCESS:     251981  HIT:      95331  MISS:     156650
cpu0_STLB RFO       ACCESS:       1094  HIT:       1082  MISS:         12
cpu0_STLB PREFETCH  ACCESS:          0  HIT:          0  MISS:          0
cpu0_STLB WRITEBACK ACCESS:          0  HIT:          0  MISS:          0
cpu0_L1D TOTAL     ACCESS:   22328603  HIT:   20694654  MISS:    1633949
cpu0_L1D LOAD      ACCESS:    8030573  HIT:    6400983  MISS:    1629590
cpu0_L1D RFO       ACCESS:   14143444  HIT:   14143292  MISS:        152
cpu0_L1D PREFETCH  ACCESS:          0  HIT:          0  MISS:          0
cpu0_L1D WRITEBACK ACCESS:          0  HIT:          0  MISS:          0
cpu0_L2C TOTAL     ACCESS:    2342621  HIT:     746526  MISS:    1596095
cpu0_L2C LOAD      ACCESS:    1629480  HIT:      35909  MISS:    1593571
cpu0_L2C RFO       ACCESS:        152  HIT:        131  MISS:         21
cpu0_L2C PREFETCH  ACCESS:          0  HIT:          0  MISS:          0
cpu0_L2C WRITEBACK ACCESS:     708782  HIT:     707823  MISS:        959
LLC TOTAL     ACCESS:    2277592  HIT:    1116119  MISS:    1161473
LLC LOAD      ACCESS:    1593568  HIT:     440314  MISS:    1153254
LLC RFO       ACCESS:         21  HIT:          6  MISS:         15
LLC PREFETCH  ACCESS:          0  HIT:          0  MISS:          0
LLC WRITEBACK ACCESS:     682459  HIT:     674376  MISS:       8083
Heartbeat CPU 0 instructions: 110000004 cycles: 156814308 heartbeat IPC: 0.387246 cumulative IPC: 0.416632 (Simulation time: 1 hr 21 min 45 sec) 

Region of Interest Statistics
cpu0_DTLB TOTAL     ACCESS:   13139396  HIT:   12882316  MISS:     257080
cpu0_DTLB LOAD      ACCESS:    7749464  HIT:    7493481  MISS:     255983
cpu0_DTLB RFO       ACCESS:    5389932  HIT:    5388835  MISS:       1097
cpu0_DTLB PREFETCH  ACCESS:          0  HIT:          0  MISS:          0
cpu0_DTLB WRITEBACK ACCESS:          0  HIT:          0  MISS:          0
cpu0_ITLB TOTAL     ACCESS:    4242989  HIT:    4242989  MISS:          0
cpu0_ITLB LOAD      ACCESS:    4242989  HIT:    4242989  MISS:          0
cpu0_ITLB RFO       ACCESS:          0  HIT:          0  MISS:          0
cpu0_ITLB PREFETCH  ACCESS:          0  HIT:          0  MISS:          0
cpu0_ITLB WRITEBACK ACCESS:          0  HIT:          0  MISS:          0
cpu0_STLB TOTAL     ACCESS:     257080  HIT:      99972  MISS:     157108
cpu0_STLB LOAD      ACCESS:     255983  HIT:      98887  MISS:     157096
cpu0_STLB RFO       ACCESS:       1097  HIT:       1085  MISS:         12
cpu0_STLB PREFETCH  ACCESS:          0  HIT:          0  MISS:          0
cpu0_STLB WRITEBACK ACCESS:          0  HIT:          0  MISS:          0
cpu0_L1D TOTAL     ACCESS:   23128209  HIT:   21358796  MISS:    1769413
cpu0_L1D LOAD      ACCESS:    8444739  HIT:    6679796  MISS:    1764943
cpu0_L1D RFO       ACCESS:   14528438  HIT:   14528248  MISS:        190
cpu0_L1D PREFETCH  ACCESS:          0  HIT:          0  MISS:          0
cpu0_L1D WRITEBACK ACCESS:          0  HIT:          0  MISS:          0
cpu0_L2C TOTAL     ACCESS:    2485640  HIT:     756410  MISS:    1729230
cpu0_L2C LOAD      ACCESS:    1764831  HIT:      38175  MISS:    1726656
cpu0_L2C RFO       ACCESS:        190  HIT:        163  MISS:         27
cpu0_L2C PREFETCH  ACCESS:          0  HIT:          0  MISS:          0
cpu0_L2C WRITEBACK ACCESS:     716339  HIT:     715364  MISS:        975
LLC TOTAL     ACCESS:    2415471  HIT:    1238258  MISS:    1177213
LLC LOAD      ACCESS:    1726653  HIT:     557718  MISS:    1168935
LLC RFO       ACCESS:         27  HIT:          9  MISS:         18
LLC PREFETCH  ACCESS:          0  HIT:          0  MISS:          0
LLC WRITEBACK ACCESS:     687219  HIT:     679081  MISS:       8138
Heartbeat CPU 0 instructions: 112000001 cycles: 159145302 heartbeat IPC: 0.858002 cumulative IPC: 0.423662 (Simulation time: 1 hr 23 min 18 sec) 

Region of Interest Statistics
cpu0_DTLB TOTAL     ACCESS:   13573365  HIT:   13312171  MISS:     261194
cpu0_DTLB LOAD      ACCESS:    8002545  HIT:    7742458  MISS:     260087
cpu0_DTLB RFO       ACCESS:    5570820  HIT:    5569713  MISS:       1107
cpu0_DTLB PREFETCH  ACCESS:          0  HIT:          0  MISS:          0
cpu0_DTLB WRITEBACK ACCESS:          0  HIT:          0  MISS:          0
cpu0_ITLB TOTAL     ACCESS:    4356797  HIT:    4356797  MISS:          0
cpu0_ITLB LOAD      ACCESS:    4356797  HIT:    4356797  MISS:          0
cpu0_ITLB RFO       ACCESS:          0  HIT:          0  MISS:          0
cpu0_ITLB PREFETCH  ACCESS:          0  HIT:          0  MISS:          0
cpu0_ITLB WRITEBACK ACCESS:          0  HIT:          0  MISS:          0
cpu0_STLB TOTAL     ACCESS:     261194  HIT:     101082  MISS:     160112
cpu0_STLB LOAD      ACCESS:     260087  HIT:      99987  MISS:     160100
cpu0_STLB RFO       ACCESS:       1107  HIT:       1095  MISS:         12
cpu0_STLB PREFETCH  ACCESS:          0  HIT:          0  MISS:          0
cpu0_STLB WRITEBACK ACCESS:          0  HIT:          0  MISS:          0
cpu0_L1D TOTAL     ACCESS:   23898966  HIT:   22095180  MISS:    1803786
cpu0_L1D LOAD      ACCESS:    8715727  HIT:    6916468  MISS:    1799259
cpu0_L1D RFO       ACCESS:   15025226  HIT:   15025036  MISS:        190
cpu0_L1D PREFETCH  ACCESS:          0  HIT:          0  MISS:          0
cpu0_L1D WRITEBACK ACCESS:          0  HIT:          0  MISS:          0
cpu0_L2C TOTAL     ACCESS:    2536531  HIT:     773606  MISS:    1762925
cpu0_L2C LOAD      ACCESS:    1799143  HIT:      38831  MISS:    1760312
cpu0_L2C RFO       ACCESS:        190  HIT:        163  MISS:         27
cpu0_L2C PREFETCH  ACCESS:          0  HIT:          0  MISS:          0
cpu0_L2C WRITEBACK ACCESS:     732861  HIT:     731860  MISS:       1001
LLC TOTAL     ACCESS:    2463845  HIT:    1265389  MISS:    1198456
LLC LOAD      ACCESS:    1760309  HIT:     570494  MISS:    1189815
LLC RFO       ACCESS:         27  HIT:          9  MISS:         18
LLC PREFETCH  ACCESS:          0  HIT:          0  MISS:          0
LLC WRITEBACK ACCESS:     701924  HIT:     693425  MISS:       8499
Heartbeat CPU 0 instructions: 114000003 cycles: 161564780 heartbeat IPC: 0.826625 cumulative IPC: 0.430216 (Simulation time: 1 hr 24 min 53 sec) 

Region of Interest Statistics
cpu0_DTLB TOTAL     ACCESS:   14003185  HIT:   13737084  MISS:     266101
cpu0_DTLB LOAD      ACCESS:    8251208  HIT:    7986241  MISS:     264967
cpu0_DTLB RFO       ACCESS:    5751977  HIT:    5750843  MISS:       1134
cpu0_DTLB PREFETCH  ACCESS:          0  HIT:          0  MISS:          0
cpu0_DTLB WRITEBACK ACCESS:          0  HIT:          0  MISS:          0
cpu0_ITLB TOTAL     ACCESS:    4463257  HIT:    4463257  MISS:          0
cpu0_ITLB LOAD      ACCESS:    4463257  HIT:    4463257  MISS:          0
cpu0_ITLB RFO       ACCESS:          0  HIT:          0  MISS:          0
cpu0_ITLB PREFETCH  ACCESS:          0  HIT:          0  MISS:          0
cpu0_ITLB WRITEBACK ACCESS:          0  HIT:          0  MISS:          0
cpu0_STLB TOTAL     ACCESS:     266101  HIT:     102619  MISS:     163482
cpu0_STLB LOAD      ACCESS:     264967  HIT:     101497  MISS:     163470
cpu0_STLB RFO       ACCESS:       1134  HIT:       1122  MISS:         12
cpu0_STLB PREFETCH  ACCESS:          0  HIT:          0  MISS:          0
cpu0_STLB WRITEBACK ACCESS:          0  HIT:          0  MISS:          0
cpu0_L1D TOTAL     ACCESS:   24669337  HIT:   22833035  MISS:    1836302
cpu0_L1D LOAD      ACCESS:    8981824  HIT:    7150109  MISS:    1831715
cpu0_L1D RFO       ACCESS:   15526150  HIT:   15525960  MISS:        190
cpu0_L1D PREFETCH  ACCESS:          0  HIT:          0  MISS:          0
cpu0_L1D WRITEBACK ACCESS:          0  HIT:          0  MISS:          0
cpu0_L2C TOTAL     ACCESS:    2586411  HIT:     791594  MISS:    1794817
cpu0_L2C LOAD      ACCESS:    1831599  HIT:      39445  MISS:    1792154
cpu0_L2C RFO       ACCESS:        190  HIT:        163  MISS:         27
cpu0_L2C PREFETCH  ACCESS:          0  HIT:          0  MISS:          0
cpu0_L2C WRITEBACK ACCESS:     750225  HIT:     749194  MISS:       1031
LLC TOTAL     ACCESS:    2511332  HIT:    1290251  MISS:    1221081
LLC LOAD      ACCESS:    1792151  HIT:     580132  MISS:    1212019
LLC RFO       ACCESS:         27  HIT:          9  MISS:         18
LLC PREFETCH  ACCESS:          0  HIT:          0  MISS:          0
LLC WRITEBACK ACCESS:     717549  HIT:     708633  MISS:       8916
Heartbeat CPU 0 instructions: 116000003 cycles: 165095876 heartbeat IPC: 0.566396 cumulative IPC: 0.433373 (Simulation time: 1 hr 26 min 19 sec) 

Region of Interest Statistics
cpu0_DTLB TOTAL     ACCESS:   14464192  HIT:   14194189  MISS:     270003
cpu0_DTLB LOAD      ACCESS:    8548612  HIT:    8279749  MISS:     268863
cpu0_DTLB RFO       ACCESS:    5915580  HIT:    5914440  MISS:       1140
[...]
cpu0_ITLB LOAD      ACCESS:  107833869  HIT:  107833869  MISS:          0
cpu0_ITLB RFO       ACCESS:          0  HIT:          0  MISS:          0
cpu0_ITLB PREFETCH  ACCESS:          0  HIT:          0  MISS:          0
cpu0_ITLB WRITEBACK ACCESS:          0  HIT:          0  MISS:          0
cpu0_ITLB TRANSLATION ACCESS:          0  HIT:          0  MISS:          0
cpu0_ITLB PREFETCH  REQUESTED:          0  ISSUED:          0  USEFUL:          0  USELESS:          0
cpu0_ITLB AVERAGE MISS LATENCY: -nan cycles
cpu0_STLB TOTAL     ACCESS:    6918950  HIT:    2426701  MISS:    4492249
cpu0_STLB LOAD      ACCESS:    6892333  HIT:    2400336  MISS:    4491997
cpu0_STLB RFO       ACCESS:      26617  HIT:      26365  MISS:        252
cpu0_STLB PREFETCH  ACCESS:          0  HIT:          0  MISS:          0
cpu0_STLB WRITEBACK ACCESS:          0  HIT:          0  MISS:          0
cpu0_STLB TRANSLATION ACCESS:          0  HIT:          0  MISS:          0
cpu0_STLB PREFETCH  REQUESTED:          0  ISSUED:          0  USEFUL:          0  USELESS:          0
cpu0_STLB AVERAGE MISS LATENCY: 36.3692 cycles
cpu0_L1D TOTAL     ACCESS:  578002134  HIT:  532380650  MISS:   45621484
cpu0_L1D LOAD      ACCESS:  209255046  HIT:  163758998  MISS:   45496048
cpu0_L1D RFO       ACCESS:  364324710  HIT:  364320059  MISS:       4651
cpu0_L1D PREFETCH  ACCESS:          0  HIT:          0  MISS:          0
cpu0_L1D WRITEBACK ACCESS:          0  HIT:          0  MISS:          0
cpu0_L1D TRANSLATION ACCESS:    4422378  HIT:    4301593  MISS:     120785
cpu0_L1D PREFETCH  REQUESTED:          0  ISSUED:          0  USEFUL:          0  USELESS:          0
cpu0_L1D AVERAGE MISS LATENCY: 299.624 cycles
cpu0_L2C TOTAL     ACCESS:   65262858  HIT:   20659086  MISS:   44603772
cpu0_L2C LOAD      ACCESS:   45493244  HIT:     957992  MISS:   44535252
cpu0_L2C RFO       ACCESS:       4647  HIT:       3965  MISS:        682
cpu0_L2C PREFETCH  ACCESS:          0  HIT:          0  MISS:          0
cpu0_L2C WRITEBACK ACCESS:   19644182  HIT:   19619685  MISS:      24497
cpu0_L2C TRANSLATION ACCESS:     120785  HIT:      77444  MISS:      43341
cpu0_L2C PREFETCH  REQUESTED:          0  ISSUED:          0  USEFUL:          0  USELESS:          0
cpu0_L2C AVERAGE MISS LATENCY: 295.071 cycles
LLC TOTAL     ACCESS:   63488768  HIT:   33152889  MISS:   30335879
LLC LOAD      ACCESS:   44535182  HIT:   14506669  MISS:   30028513
LLC RFO       ACCESS:        682  HIT:        253  MISS:        429
LLC PREFETCH  ACCESS:          0  HIT:          0  MISS:          0
LLC WRITEBACK ACCESS:   18909563  HIT:   18608831  MISS:     300732
LLC TRANSLATION ACCESS:      43341  HIT:      37136  MISS:       6205
LLC PREFETCH  REQUESTED:          0  ISSUED:          0  USEFUL:          0  USELESS:          0
LLC AVERAGE MISS LATENCY: 402.991 cycles
~~~~~~~~~~Reuse Distance Profiler output~~~~~~~~~~
0	195574880	3633712
1	22826064	2720064
2	22531616	5461728
3	20714448	5751664
4	21592752	6105328
5	21379184	4905712
6	18832112	4831760
7	11919936	4521680
8	8739200	3864032
9	9789328	4649424
10	8064832	5218368
11	7403968	4709600
12	7083632	6254416
13	5957136	4948704
14	3877200	3289712
15	3280480	2737232
16	3286256	2600064
17	2761584	2239328
18	3021888	2399808
19	3089360	1680816
20	4124800	2256896
21	2567200	1369392
22	1808192	925600
23	1973984	912592
24	2210288	1182880
25	2877520	1196768
26	1489168	630016
27	1550576	554400
28	1541424	559760
29	1289632	521216
30	1201840	350928
31	1179136	238320
32	1660496	218640
33	1004976	229392
34	1283584	246432
35	1330160	225200
36	1044944	197280
37	1022000	171984
38	1317456	182352
39	1305792	123328
40	1096544	92288
41	1167472	68928
42	1041568	60640
43	969792	79504
44	820960	46512
45	847696	41280
46	790544	50384
47	769568	47296
48	754352	42176
49	808688	30256
50	727152	24800
51	644624	27088
52	589072	33872
53	572720	22624
54	713936	19024
55	645936	15888
56	742912	17120
57	639072	23104
58	558496	22400
59	595472	17376
60	533552	14208
61	406864	14816
62	365680	18112
63	261056	20224
64	489632	46832
66	466816	49648
68	589296	35040
70	622272	34464
72	559696	46032
74	523776	54736
76	560528	76720
78	625216	85680
80	635216	71888
82	691728	63888
84	879664	65456
86	755680	58800
88	586560	59696
90	579424	81792
92	633920	76928
94	613600	59456
96	628208	52896
98	697184	55584
100	773520	69744
102	518080	88048
104	558640	79088
106	494048	53968
108	507392	42000
110	540192	31776
112	453360	26432
114	419888	22784
116	365824	16064
118	448384	14448
120	432256	12112
122	457376	10080
124	483568	8688
126	451056	8032
128	708656	12176
132	597984	10000
136	282912	9584
140	178528	9856
144	94048	10976
148	41856	13328
152	20416	15040
156	18176	18064
160	22128	22128
164	27552	27552
168	32656	32640
172	41488	41472
176	54416	54400
180	68880	68864
184	82608	82592
188	106592	106592
192	136400	136384
196	165024	165024
200	205072	205072
204	268832	268784
208	334544	334512
212	401216	401136
216	506080	505984
220	622976	622896
224	701088	700944
228	818736	818624
232	965664	965552
236	1024656	1024416
240	1110336	1110112
244	1234336	1234016
248	1306464	1306160
252	1343120	1342528
256	2548288	2547072
264	2248096	2246096
272	2153296	2149840
280	2743472	2737840
288	3987136	3976064
296	5793600	5765136
304	6558720	6508800
312	6153408	6066016
320	5031920	4940960
328	3623600	3508528
336	2553840	2379648
344	2231536	1990672
352	2483632	2188432
360	2649472	2496832
368	2892304	2809520
376	1983904	1913696
384	892336	819824
392	651040	600992
400	523616	502288
408	385344	378928
416	296576	293904
424	232416	230928
432	168496	167600
440	103280	102688
448	56400	55984
456	34640	34304
464	24368	23776
472	17792	17440
480	13952	13664
488	10224	9840
496	8336	8000
504	8320	7904
512	19008	18496
528	18048	17728
544	19392	19136
560	26032	25776
576	37616	37280
592	50032	49648
608	61456	61008
624	75040	74624
640	100464	100160
656	122192	122032
672	154192	154032
688	130576	130432
704	88016	87872
720	56992	56800
736	47552	47152
752	32976	32816
768	20096	19984
784	13968	13872
800	9808	9600
816	6864	6816
832	4368	4288
848	4128	4080
864	6512	6496
880	9936	9904
896	12192	12112
912	14272	14208
928	17872	17824
944	24160	23904
960	30304	30240
976	36320	36288
992	51824	51728
1008	62208	62064
1024	143552	143504
1056	135504	135472
1088	67712	67712
1120	40176	40128
1152	20208	19824
1184	12288	11984
1216	12832	12768
1248	18480	18416
1280	26592	26464
1312	39904	39888
1344	73872	73840
1376	81328	81104
1408	102320	102256
1440	73728	73664
1472	38976	38816
1504	20224	20144
1536	10224	10176
1568	10368	10320
1600	11984	11952
1632	17904	17904
1664	26160	26144
1696	44592	44592
1728	53008	53008
1760	61968	61952
1792	67104	66944
1824	42816	42752
1856	24880	24768
1888	14016	14016
1920	11056	11040
1952	13264	13216
1984	16368	16336
2016	23920	23840
2048	66304	66192
2112	83264	83168
2176	65504	65472
2240	27040	26816
2304	22976	22928
2368	38192	38176
2432	57120	56992
2496	71040	70912
2560	49920	49488
2624	22848	22672
2688	21536	21376
2752	34816	34784
2816	40928	40784
2880	45712	45680
2944	28784	28768
3008	18880	18880
3072	24528	24512
3136	30192	29968
3200	32944	32928
3264	34096	34016
3328	20416	20416
3392	15424	15424
3456	20160	20160
3520	21552	21552
3584	25216	25200
3648	26112	26096
3712	16080	16080
3776	15232	15232
3840	17488	17472
3904	18944	18944
3968	22272	22272
4032	19808	19792
4096	27520	27520
4224	31152	31152
4352	33568	33568
4480	23856	23856
4608	28192	28160
4736	30800	30768
4864	21712	21712
4992	24896	24880
5120	27264	27264
5248	19616	19616
5376	22448	22432
5504	23312	23296
5632	21760	21712
5760	22976	22880
5888	22992	22960
6016	17760	17744
6144	19872	19824
6272	18160	18144
6400	14992	14992
6528	18160	18144
6656	15088	15072
6784	13600	13584
6912	16864	16848
7040	13504	13504
7168	11968	11968
7296	14864	14864
7424	17216	17104
7552	14528	14448
7680	19008	18896
7808	13792	13728
7936	11600	11584
8064	11664	11664
8192	21472	21472
8448	20624	20624
8704	20976	20976
8960	18704	18704
9216	17984	17984
9472	17264	17264
9728	16608	16608
9984	15408	15408
10240	15888	15888
10496	15792	15792
10752	14640	14640
11008	14048	14048
11264	13344	13344
11520	13088	13088
11776	11952	11952
12032	12048	12048
12288	11952	11952
12544	10208	10208
12800	11216	11216
13056	10208	10208
13312	10688	10688
13568	9424	9424
13824	10144	10144
14080	9264	9264
14336	9264	9264
14592	9408	9408
14848	8064	8064
15104	7664	7664
15360	8352	8352
15616	8784	8784
15872	9616	9600
16128	11152	10976
16384	17120	16992
16896	14688	14688
17408	13504	13504
17920	12352	12352
18432	12384	12384
18944	10832	10832
19456	11344	11344
19968	10800	10800
20480	10096	10096
20992	9680	9680
21504	8960	8960
22016	9232	9232
22528	8640	8640
23040	8176	8176
23552	7824	7824
24064	7216	7216
24576	7440	7440
25088	6736	6736
25600	6400	6400
26112	6912	6912
26624	5984	5984
27136	6336	6336
27648	6592	6592
28160	6304	6304
28672	5632	5632
29184	5664	5664
29696	5968	5968
30208	4672	4672
30720	5264	5264
31232	4976	4976
31744	5152	5152
32256	5248	5248
32768	10896	10896
33792	9552	9552
34816	9696	9696
35840	9584	9584
36864	8336	8336
37888	7264	7264
38912	8096	8096
39936	6720	6720
40960	7984	7984
41984	6944	6944
43008	6672	6672
44032	6032	6032
45056	5552	5552
46080	5712	5712
47104	5696	5696
48128	4640	4640
49152	4800	4800
50176	4880	4880
51200	5152	5152
52224	5392	5392
53248	5008	5008
54272	4192	4192
55296	5088	5088
56320	4080	4080
57344	4672	4672
58368	4000	4000
59392	3680	3680
60416	4752	4752
61440	4096	4096
62464	3824	3824
63488	3968	3968
64512	4896	4896
65536	9248	9248
67584	8864	8864
69632	8576	8576
71680	8336	8336
73728	8576	8576
75776	7776	7776
77824	8720	8720
79872	7776	7776
81920	7232	7232
83968	7104	7104
86016	6976	6976
88064	8256	8256
90112	7120	7120
92160	7104	7104
94208	6960	6960
96256	30304	30304
98304	17712	17712
100352	19568	19568
102400	25440	25440
104448	613968	613968
106496	2149504	2149504
108544	1660368	1660368
110592	534704	534704
112640	295776	295776
114688	97792	97792
116736	101280	101280
118784	68368	68368
120832	109472	109472
122880	48672	48672
124928	32688	32688
126976	32432	32432
129024	54080	54080
131072	73712	73712
135168	63040	63040
139264	48176	48176
143360	40960	40960
147456	44560	44560
151552	45280	45280
155648	41824	41824
159744	45600	45600
163840	47968	47968
167936	43248	43248
172032	38160	38160
176128	38320	38320
180224	36192	36192
184320	36000	36000
188416	36384	36384
192512	36560	36560
196608	37376	37376
200704	37072	37072
204800	33344	33344
208896	31824	31824
212992	32160	32160
217088	35536	35536
221184	34320	34320
225280	32880	32880
229376	31472	31472
233472	32368	32368
237568	34944	34944
241664	33680	33680
245760	33024	33024
249856	33552	33552
253952	30848	30848
258048	28848	28848
262144	56864	56864
270336	55968	55968
278528	56384	56384
286720	58864	58864
294912	57488	57488
303104	57728	57728
311296	56064	56064
319488	52800	52800
327680	52432	52432
335872	51152	51152
344064	49520	49520
352256	48736	48736
360448	48416	48416
368640	46704	46704
376832	47728	47728
385024	48624	48624
393216	47760	47760
401408	47584	47584
409600	48160	48160
417792	46768	46768
425984	47632	47632
434176	47456	47456
442368	45200	45200
450560	46160	46160
458752	46368	46368
466944	44960	44960
475136	44320	44320
483328	43808	43808
491520	44480	44480
499712	44656	44656
507904	44368	44368
516096	43040	43040
524288	85648	85648
540672	83152	83152
557056	82208	82208
573440	81536	81536
589824	79888	79888
606208	79568	79568
622592	80400	80400
638976	80000	80000
655360	78624	78624
671744	77216	77216
688128	78208	78208
704512	76848	76848
720896	78736	78736
737280	78240	78240
753664	76608	76608
770048	77088	77088
786432	74592	74592
802816	71632	71632
819200	75024	75024
835584	70816	70816
851968	70576	70576
868352	69344	69344
884736	67776	67776
901120	68992	68992
917504	67536	67536
933888	65488	65488
950272	68208	68208
966656	67472	67472
983040	67376	67376
999424	67408	67408
1015808	68064	68064
1032192	66048	66048
1048576	131392	131392
1081344	136272	136272
1114112	133856	133856
1146880	132784	132784
1179648	137056	137056
1212416	142784	142784
1245184	144528	144528
1277952	145280	145280
1310720	153600	153600
1343488	157088	157088
1376256	152800	152800
1409024	166688	166688
1441792	166336	166336
1474560	165344	165344
1507328	168400	168400
1540096	203952	203952
1572864	195024	195024
1605632	186224	186224
1638400	206464	206464
1671168	254720	254720
1703936	245136	245136
1736704	244928	244928
1769472	237536	237536
1802240	224512	224512
1835008	230544	230544
1867776	266928	266928
1900544	193504	193504
1933312	196256	196256
1966080	174960	174960
1998848	157520	157520
2031616	147184	147184
2064384	139248	139248
2097152	275984	275984
2162688	280384	280384
2228224	323776	323776
2293760	315600	315600
2359296	245744	245744
2424832	323152	323152
2490368	250944	250944
2555904	230720	230720
2621440	235744	235744
2686976	209344	209344
2752512	217504	217504
2818048	177072	177072
2883584	197344	197344
2949120	188096	188096
3014656	158144	158144
3080192	149072	149072
3145728	136144	136144
3211264	136192	136192
3276800	148128	148128
3342336	167520	167520
3407872	248752	248752
3473408	225312	225312
3538944	196672	196672
3604480	228656	228656
3670016	193056	193056
3735552	190784	190784
3801088	206608	206608
3866624	142992	142992
3932160	96688	96688
3997696	88464	88464
4063232	73712	73712
4128768	22400	22400
4194304	32592	32592
4325376	21648	21648
4456448	25504	25504
4587520	25680	25680
4718592	21216	21216
4849664	20160	20160
4980736	19616	19616
5111808	22592	22592
5242880	20160	20160
5373952	21600	21600
5505024	18656	18656
5636096	18352	18352
5767168	18896	18896
5898240	18032	18032
6029312	23760	23760
6160384	18592	18592
6291456	18688	18688
6422528	21824	21824
6553600	17536	17536
6684672	17952	17952
6815744	17120	17120
6946816	20848	20848
7077888	19552	19552
7208960	21728	21728
7340032	17488	17488
7471104	17984	17984
7602176	18320	18320
7733248	22512	22512
7864320	22992	22992
7995392	16000	16000
8126464	16048	16048
8257536	14896	14896
8388608	31808	31808
8650752	33824	33824
8912896	34256	34256
9175040	40688	40688
9437184	34624	34624
9699328	39472	39472
9961472	37888	37888
10223616	38112	38112
10485760	36672	36672
10747904	32576	32576
11010048	33088	33088
11272192	36144	36144
11534336	34320	34320
11796480	36320	36320
12058624	36048	36048
12320768	36688	36688
12582912	31360	31360
12845056	31600	31600
13107200	30992	30992
13369344	32640	32640
13631488	36656	36656
13893632	37888	37888
14155776	37776	37776
14417920	39872	39872
14680064	35312	35312
14942208	38080	38080
15204352	34048	34048
15466496	33872	33872
15728640	36336	36336
15990784	38000	38000
16252928	38096	38096
16515072	33136	33136
16777216	69968	69968
17301504	66592	66592
17825792	78672	78672
18350080	65472	65472
18874368	67040	67040
19398656	61968	61968
19922944	71216	71216
20447232	68032	68032
20971520	69152	69152
21495808	73216	73216
22020096	80896	80896
22544384	64480	64480
23068672	71488	71488
23592960	68704	68704
24117248	73664	73664
24641536	78928	78928
25165824	75648	75648
25690112	105584	105584
26214400	75792	75792
26738688	87680	87680
27262976	68480	68480
27787264	87776	87776
28311552	97008	97008
28835840	101648	101648
29360128	154048	154048
29884416	169456	169456
30408704	223264	223264
30932992	306672	306672
31457280	357872	357872
31981568	439600	439600
32505856	328528	328528
33030144	249552	249552
33554432	301216	301216
34603008	257136	257136
35651584	130944	130944
36700160	108992	108992
37748736	31792	31792
38797312	29104	29104
39845888	30304	30304
40894464	33904	33904
41943040	29136	29136
42991616	33216	33216
44040192	31360	31360
45088768	27536	27536
46137344	29664	29664
47185920	29600	29600
48234496	27536	27536
49283072	30368	30368
50331648	26672	26672
51380224	29392	29392
52428800	27088	27088
53477376	26960	26960
54525952	33456	33456
55574528	29584	29584
56623104	40512	40512
57671680	78112	78112
58720256	101568	101568
59768832	110816	110816
60817408	137808	137808
61865984	127968	127968
62914560	149872	149872
63963136	224736	224736
65011712	194032	194032
66060288	92224	92224
67108864	126400	126400
69206016	118720	118720
71303168	53440	53440
73400320	32032	32032
75497472	35168	35168
77594624	33584	33584
79691776	31504	31504
81788928	31424	31424
83886080	32144	32144
85983232	37584	37584
88080384	76720	76720
90177536	154064	154064
92274688	166864	166864
94371840	140896	140896
96468992	170048	170048
98566144	78320	78320
100663296	85552	85552
102760448	90464	90464
104857600	29664	29664
106954752	19616	19616
109051904	22096	22096
111149056	20368	20368
113246208	20240	20240
115343360	22112	22112
117440512	25904	25904
119537664	49632	49632
121634816	84496	84496
123731968	106608	106608
125829120	106448	106448
127926272	99296	99296
130023424	54400	54400
132120576	37856	37856
134217728	115168	115168
138412032	32064	32064
142606336	30096	30096
146800640	39888	39888
150994944	98784	98784
155189248	148944	148944
159383552	89808	89808
163577856	96304	96304
167772160	58432	58432
171966464	24048	24048
176160768	25504	25504
180355072	56240	56240
184549376	95872	95872
188743680	87392	87392
192937984	67408	67408
197132288	65248	65248
201326592	22240	22240
205520896	17968	17968
209715200	25872	25872
213909504	64880	64880
218103808	74992	74992
222298112	64976	64976
226492416	50512	50512
230686720	31104	31104
234881024	14288	14288
239075328	13648	13648
243269632	39824	39824
247463936	59344	59344
251658240	50080	50080
255852544	54048	54048
260046848	32528	32528
264241152	10688	10688
268435456	23920	23920
276824064	97952	97952
285212672	75968	75968
293601280	19136	19136
301989888	20464	20464
310378496	97696	97696
318767104	56400	56400
327155712	14080	14080
335544320	22336	22336
343932928	75024	75024
352321536	29312	29312
360710144	12224	12224
369098752	23088	23088
377487360	65360	65360
385875968	8736	8736
394264576	9584	9584
402653184	14704	14704
411041792	52752	52752
419430400	5936	5936
427819008	5632	5632
436207616	6272	6272
444596224	47152	47152
452984832	5088	5088
461373440	5072	5072
469762048	5856	5856
478150656	30304	30304
486539264	3568	3568
494927872	3280	3280
503316480	12688	12688
511705088	14016	14016
520093696	2656	2656
528482304	1760	1760
536870912	14160	14160
553648128	2160	2160
570425344	5248	5248
587202560	96	96
603979776	0	0
620756992	0	0
637534208	0	0
654311424	0	0
671088640	0	0
687865856	0	0
704643072	0	0
721420288	0	0
738197504	0	0
754974720	0	0
771751936	0	0
788529152	0	0
805306368	0	0
822083584	0	0
838860800	0	0
855638016	0	0
872415232	0	0
889192448	0	0
905969664	0	0
922746880	0	0
939524096	0	0
956301312	0	0
973078528	0	0
989855744	0	0
1006632960	0	0
1023410176	0	0
1040187392	0	0
1056964608	0	0
1073741824	0	0
1107296256	0	0
1140850688	0	0
1174405120	0	0
1207959552	0	0
1241513984	0	0
1275068416	0	0
1308622848	0	0
1342177280	0	0
1375731712	0	0
1409286144	0	0
1442840576	0	0
1476395008	0	0
1509949440	0	0
1543503872	0	0
1577058304	0	0
1610612736	0	0
1644167168	0	0
1677721600	0	0
1711276032	0	0
1744830464	0	0
1778384896	0	0
1811939328	0	0
1845493760	0	0
1879048192	0	0
1912602624	0	0
1946157056	0	0
1979711488	0	0
2013265920	0	0
2046820352	0	0
2080374784	0	0
2113929216	0	0
2147483648	0	0
2214592512	0	0
2281701376	0	0
2348810240	0	0
2415919104	0	0
2483027968	0	0
2550136832	0	0
2617245696	0	0
2684354560	0	0
2751463424	0	0
2818572288	0	0
2885681152	0	0
2952790016	0	0
3019898880	0	0
3087007744	0	0
3154116608	0	0
3221225472	0	0
3288334336	0	0
3355443200	0	0
3422552064	0	0
3489660928	0	0
3556769792	0	0
3623878656	0	0
3690987520	0	0
3758096384	0	0
3825205248	0	0
3892314112	0	0
3959422976	0	0
4026531840	0	0
4093640704	0	0
4160749568	0	0
4227858432	0	0
~~~~~~~~~~Reuse Distance Profiler output end~~~~~~~~~~

Sampler size:580506

DRAM Statistics
 CHANNEL 0
 RQ ROW_BUFFER_HIT:     232611  ROW_BUFFER_MISS:   29802106
 DBUS AVG_CONGESTED_CYCLE:    3.97432
 WQ ROW_BUFFER_HIT:     370325  ROW_BUFFER_MISS:   17443939  FULL:          0


CPU 0 Branch Prediction Accuracy: 95.8967% MPKI: 3.72312 Average ROB Occupancy at Mispredict: 117.78
Branch type MPKI
BRANCH_DIRECT_JUMP: 0
BRANCH_INDIRECT: 0
BRANCH_CONDITIONAL: 3.72312
BRANCH_DIRECT_CALL: 0
BRANCH_INDIRECT_CALL: 0
BRANCH_RETURN: 0

