
*** ChampSim Multicore Out-of-Order Simulator ***

Warmup Instructions: 50000000
Simulation Instructions: 1500000000
Number of CPUs: 1
Off-chip DRAM Size: 4 GiB Channels: 1 Width: 64-bit Data Rate: 3200 MT/s

VirtualMemory physical capacity: 8588881920 num_ppages: 2096895
VirtualMemory page size: 4096 log2_page_size: 12

CPU 0 runs /s/traces/champsim_traces/429.mcf-51B.champsimtrace.xz
CPU 0 Bimodal branch predictor
Basic BTB sets: 1024 ways: 8 indirect buffer size: 4096 RAS size: 64
Initializing LRU.
Initializing LRU.
Initializing LRU.
Initializing LRU.
Initializing rdLRU.
Initializing LRU.
Heartbeat CPU 0 instructions: 2000003 cycles: 646087 heartbeat IPC: 3.09556 cumulative IPC: 3.09556 (Simulation time: 0 hr 1 min 39 sec) 
Heartbeat CPU 0 instructions: 4000001 cycles: 1265606 heartbeat IPC: 3.22831 cumulative IPC: 3.16054 (Simulation time: 0 hr 3 min 3 sec) 
Heartbeat CPU 0 instructions: 6000004 cycles: 1912490 heartbeat IPC: 3.09175 cumulative IPC: 3.13727 (Simulation time: 0 hr 4 min 40 sec) 
Heartbeat CPU 0 instructions: 8000003 cycles: 2525319 heartbeat IPC: 3.26355 cumulative IPC: 3.16792 (Simulation time: 0 hr 6 min 8 sec) 
Heartbeat CPU 0 instructions: 10000000 cycles: 3170643 heartbeat IPC: 3.09921 cumulative IPC: 3.15393 (Simulation time: 0 hr 7 min 45 sec) 
Heartbeat CPU 0 instructions: 12000003 cycles: 3786866 heartbeat IPC: 3.24558 cumulative IPC: 3.16885 (Simulation time: 0 hr 9 min 20 sec) 
Heartbeat CPU 0 instructions: 14000000 cycles: 4435449 heartbeat IPC: 3.08364 cumulative IPC: 3.15639 (Simulation time: 0 hr 10 min 56 sec) 
Heartbeat CPU 0 instructions: 16000001 cycles: 5052955 heartbeat IPC: 3.23884 cumulative IPC: 3.16646 (Simulation time: 0 hr 12 min 23 sec) 
Heartbeat CPU 0 instructions: 18000002 cycles: 5702095 heartbeat IPC: 3.081 cumulative IPC: 3.15673 (Simulation time: 0 hr 13 min 55 sec) 
Heartbeat CPU 0 instructions: 20000001 cycles: 6321605 heartbeat IPC: 3.22836 cumulative IPC: 3.16375 (Simulation time: 0 hr 15 min 23 sec) 
Heartbeat CPU 0 instructions: 22000003 cycles: 6971829 heartbeat IPC: 3.07587 cumulative IPC: 3.15556 (Simulation time: 0 hr 16 min 58 sec) 
Heartbeat CPU 0 instructions: 24000002 cycles: 7589899 heartbeat IPC: 3.23588 cumulative IPC: 3.1621 (Simulation time: 0 hr 18 min 28 sec) 
Heartbeat CPU 0 instructions: 26000003 cycles: 8238434 heartbeat IPC: 3.08388 cumulative IPC: 3.15594 (Simulation time: 0 hr 20 min 5 sec) 
Heartbeat CPU 0 instructions: 28000000 cycles: 8854809 heartbeat IPC: 3.24477 cumulative IPC: 3.16212 (Simulation time: 0 hr 21 min 32 sec) 
Heartbeat CPU 0 instructions: 30000000 cycles: 9502026 heartbeat IPC: 3.09015 cumulative IPC: 3.15722 (Simulation time: 0 hr 23 min 6 sec) 
Heartbeat CPU 0 instructions: 32000001 cycles: 10117028 heartbeat IPC: 3.25202 cumulative IPC: 3.16298 (Simulation time: 0 hr 24 min 34 sec) 
Heartbeat CPU 0 instructions: 34000000 cycles: 10762329 heartbeat IPC: 3.09933 cumulative IPC: 3.15917 (Simulation time: 0 hr 26 min 9 sec) 
Heartbeat CPU 0 instructions: 36000002 cycles: 11381385 heartbeat IPC: 3.23073 cumulative IPC: 3.16306 (Simulation time: 0 hr 27 min 38 sec) 
Heartbeat CPU 0 instructions: 38000002 cycles: 12023439 heartbeat IPC: 3.115 cumulative IPC: 3.16049 (Simulation time: 0 hr 29 min 11 sec) 
Heartbeat CPU 0 instructions: 40000002 cycles: 12643539 heartbeat IPC: 3.22529 cumulative IPC: 3.16367 (Simulation time: 0 hr 30 min 38 sec) 
Heartbeat CPU 0 instructions: 42000002 cycles: 13290150 heartbeat IPC: 3.09305 cumulative IPC: 3.16024 (Simulation time: 0 hr 32 min 13 sec) 
Heartbeat CPU 0 instructions: 44000001 cycles: 13911855 heartbeat IPC: 3.21696 cumulative IPC: 3.16277 (Simulation time: 0 hr 33 min 36 sec) 
Heartbeat CPU 0 instructions: 46000001 cycles: 14554551 heartbeat IPC: 3.11189 cumulative IPC: 3.16052 (Simulation time: 0 hr 35 min 6 sec) 
Heartbeat CPU 0 instructions: 48000002 cycles: 15160766 heartbeat IPC: 3.29916 cumulative IPC: 3.16607 (Simulation time: 0 hr 36 min 31 sec) 
Heartbeat CPU 0 instructions: 50000001 cycles: 15803741 heartbeat IPC: 3.11054 cumulative IPC: 3.16381 (Simulation time: 0 hr 37 min 59 sec) 

Warmup complete CPU 0 instructions: 50000001 cycles: 15803741 (Simulation time: 0 hr 37 min 59 sec) 

Heartbeat CPU 0 instructions: 52000001 cycles: 28176285 heartbeat IPC: 0.161648 cumulative IPC: 0.161648 (Simulation time: 0 hr 41 min 5 sec) 

Region of Interest Statistics
cpu0_DTLB TOTAL     ACCESS:     438888  HIT:     294747  MISS:     144141
cpu0_DTLB LOAD      ACCESS:     374327  HIT:     247352  MISS:     126975
cpu0_DTLB RFO       ACCESS:      64561  HIT:      47395  MISS:      17166
cpu0_DTLB PREFETCH  ACCESS:          0  HIT:          0  MISS:          0
cpu0_DTLB WRITEBACK ACCESS:          0  HIT:          0  MISS:          0
cpu0_ITLB TOTAL     ACCESS:     222137  HIT:     222137  MISS:          0
cpu0_ITLB LOAD      ACCESS:     222137  HIT:     222137  MISS:          0
cpu0_ITLB RFO       ACCESS:          0  HIT:          0  MISS:          0
cpu0_ITLB PREFETCH  ACCESS:          0  HIT:          0  MISS:          0
cpu0_ITLB WRITEBACK ACCESS:          0  HIT:          0  MISS:          0
cpu0_STLB TOTAL     ACCESS:     144141  HIT:     141912  MISS:       2229
cpu0_STLB LOAD      ACCESS:     126975  HIT:     124944  MISS:       2031
cpu0_STLB RFO       ACCESS:      17166  HIT:      16968  MISS:        198
cpu0_STLB PREFETCH  ACCESS:          0  HIT:          0  MISS:          0
cpu0_STLB WRITEBACK ACCESS:          0  HIT:          0  MISS:          0
cpu0_L1D TOTAL     ACCESS:     527781  HIT:     364033  MISS:     163748
cpu0_L1D LOAD      ACCESS:     427144  HIT:     270411  MISS:     156733
cpu0_L1D RFO       ACCESS:      98408  HIT:      92205  MISS:       6203
cpu0_L1D PREFETCH  ACCESS:          0  HIT:          0  MISS:          0
cpu0_L1D WRITEBACK ACCESS:          0  HIT:          0  MISS:          0
cpu0_L2C TOTAL     ACCESS:     192726  HIT:     113125  MISS:      79601
cpu0_L2C LOAD      ACCESS:     156723  HIT:      78096  MISS:      78627
cpu0_L2C RFO       ACCESS:       6202  HIT:       5776  MISS:        426
cpu0_L2C PREFETCH  ACCESS:          0  HIT:          0  MISS:          0
cpu0_L2C WRITEBACK ACCESS:      28989  HIT:      28961  MISS:         28
LLC TOTAL     ACCESS:      85519  HIT:      32357  MISS:      53162
LLC LOAD      ACCESS:      78627  HIT:      25995  MISS:      52632
LLC RFO       ACCESS:        426  HIT:        148  MISS:        278
LLC PREFETCH  ACCESS:          0  HIT:          0  MISS:          0
LLC WRITEBACK ACCESS:       5946  HIT:       5735  MISS:        211
Heartbeat CPU 0 instructions: 54000003 cycles: 53421721 heartbeat IPC: 0.0792223 cumulative IPC: 0.106332 (Simulation time: 0 hr 46 min 28 sec) 

Region of Interest Statistics
cpu0_DTLB TOTAL     ACCESS:     909607  HIT:     614797  MISS:     294810
cpu0_DTLB LOAD      ACCESS:     764509  HIT:     497496  MISS:     267013
cpu0_DTLB RFO       ACCESS:     145098  HIT:     117301  MISS:      27797
cpu0_DTLB PREFETCH  ACCESS:          0  HIT:          0  MISS:          0
cpu0_DTLB WRITEBACK ACCESS:          0  HIT:          0  MISS:          0
cpu0_ITLB TOTAL     ACCESS:     489495  HIT:     489495  MISS:          0
cpu0_ITLB LOAD      ACCESS:     489495  HIT:     489495  MISS:          0
cpu0_ITLB RFO       ACCESS:          0  HIT:          0  MISS:          0
cpu0_ITLB PREFETCH  ACCESS:          0  HIT:          0  MISS:          0
cpu0_ITLB WRITEBACK ACCESS:          0  HIT:          0  MISS:          0
cpu0_STLB TOTAL     ACCESS:     294810  HIT:     258147  MISS:      36663
cpu0_STLB LOAD      ACCESS:     267013  HIT:     230675  MISS:      36338
cpu0_STLB RFO       ACCESS:      27797  HIT:      27472  MISS:        325
cpu0_STLB PREFETCH  ACCESS:          0  HIT:          0  MISS:          0
cpu0_STLB WRITEBACK ACCESS:          0  HIT:          0  MISS:          0
cpu0_L1D TOTAL     ACCESS:    1093747  HIT:     714567  MISS:     379180
cpu0_L1D LOAD      ACCESS:     857246  HIT:     498107  MISS:     359139
cpu0_L1D RFO       ACCESS:     199873  HIT:     184828  MISS:      15045
cpu0_L1D PREFETCH  ACCESS:          0  HIT:          0  MISS:          0
cpu0_L1D WRITEBACK ACCESS:          0  HIT:          0  MISS:          0
cpu0_L2C TOTAL     ACCESS:     466889  HIT:     227514  MISS:     239375
cpu0_L2C LOAD      ACCESS:     359120  HIT:     126195  MISS:     232925
cpu0_L2C RFO       ACCESS:      15044  HIT:       9863  MISS:       5181
cpu0_L2C PREFETCH  ACCESS:          0  HIT:          0  MISS:          0
cpu0_L2C WRITEBACK ACCESS:      87729  HIT:      87684  MISS:         45
LLC TOTAL     ACCESS:     287272  HIT:      96219  MISS:     191053
LLC LOAD      ACCESS:     232925  HIT:      47825  MISS:     185100
LLC RFO       ACCESS:       5181  HIT:       1014  MISS:       4167
LLC PREFETCH  ACCESS:          0  HIT:          0  MISS:          0
LLC WRITEBACK ACCESS:      47942  HIT:      46276  MISS:       1666
Heartbeat CPU 0 instructions: 56000001 cycles: 72043208 heartbeat IPC: 0.107403 cumulative IPC: 0.106687 (Simulation time: 0 hr 50 min 49 sec) 

Region of Interest Statistics
cpu0_DTLB TOTAL     ACCESS:    1357067  HIT:     911207  MISS:     445860
cpu0_DTLB LOAD      ACCESS:    1135177  HIT:     743253  MISS:     391924
cpu0_DTLB RFO       ACCESS:     221890  HIT:     167954  MISS:      53936
cpu0_DTLB PREFETCH  ACCESS:          0  HIT:          0  MISS:          0
cpu0_DTLB WRITEBACK ACCESS:          0  HIT:          0  MISS:          0
cpu0_ITLB TOTAL     ACCESS:     727835  HIT:     727835  MISS:          0
cpu0_ITLB LOAD      ACCESS:     727835  HIT:     727835  MISS:          0
cpu0_ITLB RFO       ACCESS:          0  HIT:          0  MISS:          0
cpu0_ITLB PREFETCH  ACCESS:          0  HIT:          0  MISS:          0
cpu0_ITLB WRITEBACK ACCESS:          0  HIT:          0  MISS:          0
cpu0_L1I TOTAL     ACCESS:          1  HIT:          1  MISS:          0
cpu0_L1I LOAD      ACCESS:          1  HIT:          1  MISS:          0
cpu0_L1I RFO       ACCESS:          0  HIT:          0  MISS:          0
cpu0_L1I PREFETCH  ACCESS:          0  HIT:          0  MISS:          0
cpu0_L1I WRITEBACK ACCESS:          0  HIT:          0  MISS:          0
cpu0_STLB TOTAL     ACCESS:     445860  HIT:     399535  MISS:      46325
cpu0_STLB LOAD      ACCESS:     391924  HIT:     346230  MISS:      45694
cpu0_STLB RFO       ACCESS:      53936  HIT:      53305  MISS:        631
cpu0_STLB PREFETCH  ACCESS:          0  HIT:          0  MISS:          0
cpu0_STLB WRITEBACK ACCESS:          0  HIT:          0  MISS:          0
cpu0_L1D TOTAL     ACCESS:    1641498  HIT:    1071974  MISS:     569524
cpu0_L1D LOAD      ACCESS:    1291442  HIT:     749378  MISS:     542064
cpu0_L1D RFO       ACCESS:     303859  HIT:     283041  MISS:      20818
cpu0_L1D PREFETCH  ACCESS:          0  HIT:          0  MISS:          0
cpu0_L1D WRITEBACK ACCESS:          0  HIT:          0  MISS:          0
cpu0_L2C TOTAL     ACCESS:     705527  HIT:     352334  MISS:     353193
cpu0_L2C LOAD      ACCESS:     542029  HIT:     197180  MISS:     344849
cpu0_L2C RFO       ACCESS:      20816  HIT:      14242  MISS:       6574
cpu0_L2C PREFETCH  ACCESS:          0  HIT:          0  MISS:          0
cpu0_L2C WRITEBACK ACCESS:     136040  HIT:     135982  MISS:         58
LLC TOTAL     ACCESS:     430662  HIT:     150512  MISS:     280150
LLC LOAD      ACCESS:     344849  HIT:      73219  MISS:     271630
LLC RFO       ACCESS:       6574  HIT:       1288  MISS:       5286
LLC PREFETCH  ACCESS:          0  HIT:          0  MISS:          0
LLC WRITEBACK ACCESS:      77527  HIT:      74540  MISS:       2987
Heartbeat CPU 0 instructions: 58000001 cycles: 90679623 heartbeat IPC: 0.107317 cumulative IPC: 0.106843 (Simulation time: 0 hr 55 min 53 sec) 

Region of Interest Statistics
cpu0_DTLB TOTAL     ACCESS:    1818685  HIT:    1205178  MISS:     613507
cpu0_DTLB LOAD      ACCESS:    1533458  HIT:     988629  MISS:     544829
cpu0_DTLB RFO       ACCESS:     285227  HIT:     216549  MISS:      68678
cpu0_DTLB PREFETCH  ACCESS:          0  HIT:          0  MISS:          0
cpu0_DTLB WRITEBACK ACCESS:          0  HIT:          0  MISS:          0
cpu0_ITLB TOTAL     ACCESS:     972380  HIT:     972380  MISS:          0
cpu0_ITLB LOAD      ACCESS:     972380  HIT:     972380  MISS:          0
cpu0_ITLB RFO       ACCESS:          0  HIT:          0  MISS:          0
cpu0_ITLB PREFETCH  ACCESS:          0  HIT:          0  MISS:          0
cpu0_ITLB WRITEBACK ACCESS:          0  HIT:          0  MISS:          0
cpu0_L1I TOTAL     ACCESS:          1  HIT:          1  MISS:          0
cpu0_L1I LOAD      ACCESS:          1  HIT:          1  MISS:          0
cpu0_L1I RFO       ACCESS:          0  HIT:          0  MISS:          0
cpu0_L1I PREFETCH  ACCESS:          0  HIT:          0  MISS:          0
cpu0_L1I WRITEBACK ACCESS:          0  HIT:          0  MISS:          0
cpu0_STLB TOTAL     ACCESS:     613508  HIT:     546865  MISS:      66643
cpu0_STLB LOAD      ACCESS:     544830  HIT:     478953  MISS:      65877
cpu0_STLB RFO       ACCESS:      68678  HIT:      67912  MISS:        766
cpu0_STLB PREFETCH  ACCESS:          0  HIT:          0  MISS:          0
cpu0_STLB WRITEBACK ACCESS:          0  HIT:          0  MISS:          0
cpu0_L1D TOTAL     ACCESS:    2187444  HIT:    1412606  MISS:     774838
cpu0_L1D LOAD      ACCESS:    1731354  HIT:     992260  MISS:     739094
cpu0_L1D RFO       ACCESS:     389598  HIT:     363368  MISS:      26230
cpu0_L1D PREFETCH  ACCESS:          0  HIT:          0  MISS:          0
cpu0_L1D WRITEBACK ACCESS:          0  HIT:          0  MISS:          0
cpu0_L2C TOTAL     ACCESS:     954391  HIT:     472555  MISS:     481836
cpu0_L2C LOAD      ACCESS:     739046  HIT:     269019  MISS:     470027
cpu0_L2C RFO       ACCESS:      26227  HIT:      16864  MISS:       9363
cpu0_L2C PREFETCH  ACCESS:          0  HIT:          0  MISS:          0
cpu0_L2C WRITEBACK ACCESS:     179604  HIT:     179535  MISS:         69
LLC TOTAL     ACCESS:     581872  HIT:     200985  MISS:     380887
LLC LOAD      ACCESS:     470026  HIT:     100642  MISS:     369384
LLC RFO       ACCESS:       9363  HIT:       1832  MISS:       7531
LLC PREFETCH  ACCESS:          0  HIT:          0  MISS:          0
LLC WRITEBACK ACCESS:     100106  HIT:      96411  MISS:       3695
Heartbeat CPU 0 instructions: 60000000 cycles: 112655899 heartbeat IPC: 0.0910072 cumulative IPC: 0.10325 (Simulation time: 1 hr 1 min 51 sec) 

Region of Interest Statistics
cpu0_DTLB TOTAL     ACCESS:    2280022  HIT:    1498374  MISS:     781648
cpu0_DTLB LOAD      ACCESS:    1929802  HIT:    1230544  MISS:     699258
cpu0_DTLB RFO       ACCESS:     350220  HIT:     267830  MISS:      82390
cpu0_DTLB PREFETCH  ACCESS:          0  HIT:          0  MISS:          0
cpu0_DTLB WRITEBACK ACCESS:          0  HIT:          0  MISS:          0
cpu0_ITLB TOTAL     ACCESS:    1219501  HIT:    1219501  MISS:          0
cpu0_ITLB LOAD      ACCESS:    1219501  HIT:    1219501  MISS:          0
cpu0_ITLB RFO       ACCESS:          0  HIT:          0  MISS:          0
cpu0_ITLB PREFETCH  ACCESS:          0  HIT:          0  MISS:          0
cpu0_ITLB WRITEBACK ACCESS:          0  HIT:          0  MISS:          0
cpu0_L1I TOTAL     ACCESS:          1  HIT:          1  MISS:          0
cpu0_L1I LOAD      ACCESS:          1  HIT:          1  MISS:          0
cpu0_L1I RFO       ACCESS:          0  HIT:          0  MISS:          0
cpu0_L1I PREFETCH  ACCESS:          0  HIT:          0  MISS:          0
cpu0_L1I WRITEBACK ACCESS:          0  HIT:          0  MISS:          0
cpu0_STLB TOTAL     ACCESS:     781648  HIT:     690245  MISS:      91403
cpu0_STLB LOAD      ACCESS:     699258  HIT:     608792  MISS:      90466
cpu0_STLB RFO       ACCESS:      82390  HIT:      81453  MISS:        937
cpu0_STLB PREFETCH  ACCESS:          0  HIT:          0  MISS:          0
cpu0_STLB WRITEBACK ACCESS:          0  HIT:          0  MISS:          0
cpu0_L1D TOTAL     ACCESS:    2735309  HIT:    1749804  MISS:     985505
cpu0_L1D LOAD      ACCESS:    2167547  HIT:    1226819  MISS:     940728
cpu0_L1D RFO       ACCESS:     476631  HIT:     444569  MISS:      32062
cpu0_L1D PREFETCH  ACCESS:          0  HIT:          0  MISS:          0
cpu0_L1D WRITEBACK ACCESS:          0  HIT:          0  MISS:          0
cpu0_L2C TOTAL     ACCESS:    1211747  HIT:     589599  MISS:     622148
cpu0_L2C LOAD      ACCESS:     940672  HIT:     334324  MISS:     606348
cpu0_L2C RFO       ACCESS:      32058  HIT:      19352  MISS:      12706
cpu0_L2C PREFETCH  ACCESS:          0  HIT:          0  MISS:          0
cpu0_L2C WRITEBACK ACCESS:     226302  HIT:     226220  MISS:         82
LLC TOTAL     ACCESS:     754379  HIT:     254331  MISS:     500048
LLC LOAD      ACCESS:     606346  HIT:     122086  MISS:     484260
LLC RFO       ACCESS:      12706  HIT:       2253  MISS:      10453
LLC PREFETCH  ACCESS:          0  HIT:          0  MISS:          0
LLC WRITEBACK ACCESS:     132315  HIT:     127409  MISS:       4906
Heartbeat CPU 0 instructions: 62000003 cycles: 131872558 heartbeat IPC: 0.104077 cumulative IPC: 0.103387 (Simulation time: 1 hr 7 min 14 sec) 

Region of Interest Statistics
cpu0_DTLB TOTAL     ACCESS:    2743364  HIT:    1792795  MISS:     950569
cpu0_DTLB LOAD      ACCESS:    2329041  HIT:    1473294  MISS:     855747
cpu0_DTLB RFO       ACCESS:     414323  HIT:     319501  MISS:      94822
cpu0_DTLB PREFETCH  ACCESS:          0  HIT:          0  MISS:          0
cpu0_DTLB WRITEBACK ACCESS:          0  HIT:          0  MISS:          0
cpu0_ITLB TOTAL     ACCESS:    1465638  HIT:    1465638  MISS:          0
cpu0_ITLB LOAD      ACCESS:    1465638  HIT:    1465638  MISS:          0
cpu0_ITLB RFO       ACCESS:          0  HIT:          0  MISS:          0
cpu0_ITLB PREFETCH  ACCESS:          0  HIT:          0  MISS:          0
cpu0_ITLB WRITEBACK ACCESS:          0  HIT:          0  MISS:          0
cpu0_L1I TOTAL     ACCESS:          1  HIT:          1  MISS:          0
cpu0_L1I LOAD      ACCESS:          1  HIT:          1  MISS:          0
cpu0_L1I RFO       ACCESS:          0  HIT:          0  MISS:          0
cpu0_L1I PREFETCH  ACCESS:          0  HIT:          0  MISS:          0
cpu0_L1I WRITEBACK ACCESS:          0  HIT:          0  MISS:          0
cpu0_STLB TOTAL     ACCESS:     950569  HIT:     836690  MISS:     113879
cpu0_STLB LOAD      ACCESS:     855747  HIT:     742969  MISS:     112778
cpu0_STLB RFO       ACCESS:      94822  HIT:      93721  MISS:       1101
cpu0_STLB PREFETCH  ACCESS:          0  HIT:          0  MISS:          0
cpu0_STLB WRITEBACK ACCESS:          0  HIT:          0  MISS:          0
cpu0_L1D TOTAL     ACCESS:    3279282  HIT:    2084305  MISS:    1194977
cpu0_L1D LOAD      ACCESS:    2602417  HIT:    1460754  MISS:    1141663
cpu0_L1D RFO       ACCESS:     563282  HIT:     525768  MISS:      37514
cpu0_L1D PREFETCH  ACCESS:          0  HIT:          0  MISS:          0
cpu0_L1D WRITEBACK ACCESS:          0  HIT:          0  MISS:          0
cpu0_L2C TOTAL     ACCESS:    1465512  HIT:     704463  MISS:     761049
cpu0_L2C LOAD      ACCESS:    1141597  HIT:     400186  MISS:     741411
cpu0_L2C RFO       ACCESS:      37510  HIT:      21683  MISS:      15827
cpu0_L2C PREFETCH  ACCESS:          0  HIT:          0  MISS:          0
cpu0_L2C WRITEBACK ACCESS:     270605  HIT:     270515  MISS:         90
LLC TOTAL     ACCESS:     919965  HIT:     310619  MISS:     609346
LLC LOAD      ACCESS:     741409  HIT:     151286  MISS:     590123
LLC RFO       ACCESS:      15827  HIT:       2885  MISS:      12942
LLC PREFETCH  ACCESS:          0  HIT:          0  MISS:          0
LLC WRITEBACK ACCESS:     159008  HIT:     153186  MISS:       5822
Heartbeat CPU 0 instructions: 64000002 cycles: 152788287 heartbeat IPC: 0.0956218 cumulative IPC: 0.102201 (Simulation time: 1 hr 13 min 3 sec) 

Region of Interest Statistics
cpu0_DTLB TOTAL     ACCESS:    3198694  HIT:    2078264  MISS:    1120430
cpu0_DTLB LOAD      ACCESS:    2720826  HIT:    1706749  MISS:    1014077
cpu0_DTLB RFO       ACCESS:     477868  HIT:     371515  MISS:     106353
cpu0_DTLB PREFETCH  ACCESS:          0  HIT:          0  MISS:          0
cpu0_DTLB WRITEBACK ACCESS:          0  HIT:          0  MISS:          0
cpu0_ITLB TOTAL     ACCESS:    1707125  HIT:    1707125  MISS:          0
cpu0_ITLB LOAD      ACCESS:    1707125  HIT:    1707125  MISS:          0
cpu0_ITLB RFO       ACCESS:          0  HIT:          0  MISS:          0
cpu0_ITLB PREFETCH  ACCESS:          0  HIT:          0  MISS:          0
cpu0_ITLB WRITEBACK ACCESS:          0  HIT:          0  MISS:          0
cpu0_L1I TOTAL     ACCESS:          1  HIT:          1  MISS:          0
cpu0_L1I LOAD      ACCESS:          1  HIT:          1  MISS:          0
cpu0_L1I RFO       ACCESS:          0  HIT:          0  MISS:          0
cpu0_L1I PREFETCH  ACCESS:          0  HIT:          0  MISS:          0
cpu0_L1I WRITEBACK ACCESS:          0  HIT:          0  MISS:          0
cpu0_STLB TOTAL     ACCESS:    1120430  HIT:     983804  MISS:     136626
cpu0_STLB LOAD      ACCESS:    1014077  HIT:     878694  MISS:     135383
cpu0_STLB RFO       ACCESS:     106353  HIT:     105110  MISS:       1243
cpu0_STLB PREFETCH  ACCESS:          0  HIT:          0  MISS:          0
cpu0_STLB WRITEBACK ACCESS:          0  HIT:          0  MISS:          0
cpu0_L1D TOTAL     ACCESS:    3821622  HIT:    2420602  MISS:    1401020
cpu0_L1D LOAD      ACCESS:    3032054  HIT:    1692835  MISS:    1339219
cpu0_L1D RFO       ACCESS:     653345  HIT:     610319  MISS:      43026
cpu0_L1D PREFETCH  ACCESS:          0  HIT:          0  MISS:          0
cpu0_L1D WRITEBACK ACCESS:          0  HIT:          0  MISS:          0
cpu0_L2C TOTAL     ACCESS:    1713716  HIT:     815896  MISS:     897820
cpu0_L2C LOAD      ACCESS:    1339148  HIT:     464685  MISS:     874463
cpu0_L2C RFO       ACCESS:      43020  HIT:      24124  MISS:      18896
cpu0_L2C PREFETCH  ACCESS:          0  HIT:          0  MISS:          0
cpu0_L2C WRITEBACK ACCESS:     312773  HIT:     312672  MISS:        101
LLC TOTAL     ACCESS:    1085702  HIT:     362580  MISS:     723122
LLC LOAD      ACCESS:     874461  HIT:     174525  MISS:     699936
LLC RFO       ACCESS:      18896  HIT:       3276  MISS:      15620
LLC PREFETCH  ACCESS:          0  HIT:          0  MISS:          0
LLC WRITEBACK ACCESS:     187985  HIT:     181023  MISS:       6962
Heartbeat CPU 0 instructions: 66000000 cycles: 173740147 heartbeat IPC: 0.0954568 cumulative IPC: 0.101307 (Simulation time: 1 hr 18 min 39 sec) 

Region of Interest Statistics
cpu0_DTLB TOTAL     ACCESS:    3663823  HIT:    2376744  MISS:    1287079
cpu0_DTLB LOAD      ACCESS:    3117769  HIT:    1947280  MISS:    1170489
cpu0_DTLB RFO       ACCESS:     546054  HIT:     429464  MISS:     116590
cpu0_DTLB PREFETCH  ACCESS:          0  HIT:          0  MISS:          0
cpu0_DTLB WRITEBACK ACCESS:          0  HIT:          0  MISS:          0
cpu0_ITLB TOTAL     ACCESS:    1958167  HIT:    1958167  MISS:          0
cpu0_ITLB LOAD      ACCESS:    1958167  HIT:    1958167  MISS:          0
cpu0_ITLB RFO       ACCESS:          0  HIT:          0  MISS:          0
cpu0_ITLB PREFETCH  ACCESS:          0  HIT:          0  MISS:          0
cpu0_ITLB WRITEBACK ACCESS:          0  HIT:          0  MISS:          0
cpu0_L1I TOTAL     ACCESS:          1  HIT:          1  MISS:          0
cpu0_L1I LOAD      ACCESS:          1  HIT:          1  MISS:          0
cpu0_L1I RFO       ACCESS:          0  HIT:          0  MISS:          0
cpu0_L1I PREFETCH  ACCESS:          0  HIT:          0  MISS:          0
cpu0_L1I WRITEBACK ACCESS:          0  HIT:          0  MISS:          0
cpu0_STLB TOTAL     ACCESS:    1287079  HIT:    1123704  MISS:     163375
cpu0_STLB LOAD      ACCESS:    1170489  HIT:    1008508  MISS:     161981
cpu0_STLB RFO       ACCESS:     116590  HIT:     115196  MISS:       1394
cpu0_STLB PREFETCH  ACCESS:          0  HIT:          0  MISS:          0
cpu0_STLB WRITEBACK ACCESS:          0  HIT:          0  MISS:          0
cpu0_L1D TOTAL     ACCESS:    4371544  HIT:    2757118  MISS:    1614426
cpu0_L1D LOAD      ACCESS:    3463819  HIT:    1920745  MISS:    1543074
cpu0_L1D RFO       ACCESS:     744782  HIT:     695667  MISS:      49115
cpu0_L1D PREFETCH  ACCESS:          0  HIT:          0  MISS:          0
cpu0_L1D WRITEBACK ACCESS:          0  HIT:          0  MISS:          0
cpu0_L2C TOTAL     ACCESS:    1975088  HIT:     928383  MISS:    1046705
cpu0_L2C LOAD      ACCESS:    1542994  HIT:     524126  MISS:    1018868
cpu0_L2C RFO       ACCESS:      49109  HIT:      26463  MISS:      22646
cpu0_L2C PREFETCH  ACCESS:          0  HIT:          0  MISS:          0
cpu0_L2C WRITEBACK ACCESS:     360748  HIT:     360639  MISS:        109
LLC TOTAL     ACCESS:    1266239  HIT:     422389  MISS:     843850
LLC LOAD      ACCESS:    1018865  HIT:     202411  MISS:     816454
LLC RFO       ACCESS:      22646  HIT:       4011  MISS:      18635
LLC PREFETCH  ACCESS:          0  HIT:          0  MISS:          0
LLC WRITEBACK ACCESS:     219646  HIT:     211542  MISS:       8104
Heartbeat CPU 0 instructions: 68000004 cycles: 195152724 heartbeat IPC: 0.0934032 cumulative IPC: 0.100363 (Simulation time: 1 hr 24 min 9 sec) 

Region of Interest Statistics
cpu0_DTLB TOTAL     ACCESS:    4117417  HIT:    2668094  MISS:    1449323
cpu0_DTLB LOAD      ACCESS:    3503620  HIT:    2188336  MISS:    1315284
cpu0_DTLB RFO       ACCESS:     613797  HIT:     479758  MISS:     134039
cpu0_DTLB PREFETCH  ACCESS:          0  HIT:          0  MISS:          0
cpu0_DTLB WRITEBACK ACCESS:          0  HIT:          0  MISS:          0
cpu0_ITLB TOTAL     ACCESS:    2200679  HIT:    2200679  MISS:          0
cpu0_ITLB LOAD      ACCESS:    2200679  HIT:    2200679  MISS:          0
cpu0_ITLB RFO       ACCESS:          0  HIT:          0  MISS:          0
cpu0_ITLB PREFETCH  ACCESS:          0  HIT:          0  MISS:          0
cpu0_ITLB WRITEBACK ACCESS:          0  HIT:          0  MISS:          0
cpu0_L1I TOTAL     ACCESS:          1  HIT:          1  MISS:          0
cpu0_L1I LOAD      ACCESS:          1  HIT:          1  MISS:          0
cpu0_L1I RFO       ACCESS:          0  HIT:          0  MISS:          0
cpu0_L1I PREFETCH  ACCESS:          0  HIT:          0  MISS:          0
cpu0_L1I WRITEBACK ACCESS:          0  HIT:          0  MISS:          0
cpu0_STLB TOTAL     ACCESS:    1449323  HIT:    1267526  MISS:     181797
cpu0_STLB LOAD      ACCESS:    1315284  HIT:    1135250  MISS:     180034
cpu0_STLB RFO       ACCESS:     134039  HIT:     132276  MISS:       1763
cpu0_STLB PREFETCH  ACCESS:          0  HIT:          0  MISS:          0
cpu0_STLB WRITEBACK ACCESS:          0  HIT:          0  MISS:          0
cpu0_L1D TOTAL     ACCESS:    4911522  HIT:    3093677  MISS:    1817845
cpu0_L1D LOAD      ACCESS:    3894717  HIT:    2156238  MISS:    1738479
cpu0_L1D RFO       ACCESS:     835588  HIT:     781067  MISS:      54521
cpu0_L1D PREFETCH  ACCESS:          0  HIT:          0  MISS:          0
cpu0_L1D WRITEBACK ACCESS:          0  HIT:          0  MISS:          0
cpu0_L2C TOTAL     ACCESS:    2225153  HIT:    1045790  MISS:    1179363
cpu0_L2C LOAD      ACCESS:    1738392  HIT:     589958  MISS:    1148434
cpu0_L2C RFO       ACCESS:      54514  HIT:      29388  MISS:      25126
cpu0_L2C PREFETCH  ACCESS:          0  HIT:          0  MISS:          0
cpu0_L2C WRITEBACK ACCESS:     407402  HIT:     407275  MISS:        127
LLC TOTAL     ACCESS:    1431555  HIT:     475756  MISS:     955799
LLC LOAD      ACCESS:    1148431  HIT:     223588  MISS:     924843
LLC RFO       ACCESS:      25126  HIT:       4423  MISS:      20703
LLC PREFETCH  ACCESS:          0  HIT:          0  MISS:          0
LLC WRITEBACK ACCESS:     252322  HIT:     242905  MISS:       9417
Heartbeat CPU 0 instructions: 70000004 cycles: 214094270 heartbeat IPC: 0.105588 cumulative IPC: 0.100862 (Simulation time: 1 hr 29 min 4 sec) 

Region of Interest Statistics
cpu0_DTLB TOTAL     ACCESS:    4580798  HIT:    2967262  MISS:    1613536
cpu0_DTLB LOAD      ACCESS:    3902838  HIT:    2436170  MISS:    1466668
cpu0_DTLB RFO       ACCESS:     677960  HIT:     531092  MISS:     146868
cpu0_DTLB PREFETCH  ACCESS:          0  HIT:          0  MISS:          0
cpu0_DTLB WRITEBACK ACCESS:          0  HIT:          0  MISS:          0
cpu0_ITLB TOTAL     ACCESS:    2449310  HIT:    2449310  MISS:          0
cpu0_ITLB LOAD      ACCESS:    2449310  HIT:    2449310  MISS:          0
cpu0_ITLB RFO       ACCESS:          0  HIT:          0  MISS:          0
cpu0_ITLB PREFETCH  ACCESS:          0  HIT:          0  MISS:          0
cpu0_ITLB WRITEBACK ACCESS:          0  HIT:          0  MISS:          0
cpu0_L1I TOTAL     ACCESS:          1  HIT:          1  MISS:          0
cpu0_L1I LOAD      ACCESS:          1  HIT:          1  MISS:          0
cpu0_L1I RFO       ACCESS:          0  HIT:          0  MISS:          0
cpu0_L1I PREFETCH  ACCESS:          0  HIT:          0  MISS:          0
cpu0_L1I WRITEBACK ACCESS:          0  HIT:          0  MISS:          0
cpu0_STLB TOTAL     ACCESS:    1613536  HIT:    1409986  MISS:     203550
cpu0_STLB LOAD      ACCESS:    1466668  HIT:    1265017  MISS:     201651
cpu0_STLB RFO       ACCESS:     146868  HIT:     144969  MISS:       1899
cpu0_STLB PREFETCH  ACCESS:          0  HIT:          0  MISS:          0
cpu0_STLB WRITEBACK ACCESS:          0  HIT:          0  MISS:          0
cpu0_L1D TOTAL     ACCESS:    5457079  HIT:    3431765  MISS:    2025314
cpu0_L1D LOAD      ACCESS:    4332969  HIT:    2396248  MISS:    1936721
cpu0_L1D RFO       ACCESS:     921157  HIT:     860546  MISS:      60611
cpu0_L1D PREFETCH  ACCESS:          0  HIT:          0  MISS:          0
cpu0_L1D WRITEBACK ACCESS:          0  HIT:          0  MISS:          0
cpu0_L2C TOTAL     ACCESS:    2477256  HIT:    1165170  MISS:    1312086
cpu0_L2C LOAD      ACCESS:    1936619  HIT:     659123  MISS:    1277496
cpu0_L2C RFO       ACCESS:      60604  HIT:      32503  MISS:      28101
cpu0_L2C PREFETCH  ACCESS:          0  HIT:          0  MISS:          0
cpu0_L2C WRITEBACK ACCESS:     452051  HIT:     451909  MISS:        142
LLC TOTAL     ACCESS:    1589222  HIT:     528022  MISS:    1061200
LLC LOAD      ACCESS:    1277493  HIT:     250325  MISS:    1027168
LLC RFO       ACCESS:      28101  HIT:       5158  MISS:      22943
LLC PREFETCH  ACCESS:          0  HIT:          0  MISS:          0
LLC WRITEBACK ACCESS:     277281  HIT:     267051  MISS:      10230
Heartbeat CPU 0 instructions: 72000001 cycles: 235583466 heartbeat IPC: 0.0930699 cumulative IPC: 0.1001 (Simulation time: 1 hr 34 min 32 sec) 

Region of Interest Statistics
cpu0_DTLB TOTAL     ACCESS:    5038332  HIT:    3262935  MISS:    1775397
cpu0_DTLB LOAD      ACCESS:    4297101  HIT:    2679245  MISS:    1617856
cpu0_DTLB RFO       ACCESS:     741231  HIT:     583690  MISS:     157541
cpu0_DTLB PREFETCH  ACCESS:          0  HIT:          0  MISS:          0
cpu0_DTLB WRITEBACK ACCESS:          0  HIT:          0  MISS:          0
cpu0_ITLB TOTAL     ACCESS:    2696599  HIT:    2696599  MISS:          0
cpu0_ITLB LOAD      ACCESS:    2696599  HIT:    2696599  MISS:          0
cpu0_ITLB RFO       ACCESS:          0  HIT:          0  MISS:          0
cpu0_ITLB PREFETCH  ACCESS:          0  HIT:          0  MISS:          0
cpu0_ITLB WRITEBACK ACCESS:          0  HIT:          0  MISS:          0
cpu0_L1I TOTAL     ACCESS:          1  HIT:          1  MISS:          0
cpu0_L1I LOAD      ACCESS:          1  HIT:          1  MISS:          0
cpu0_L1I RFO       ACCESS:          0  HIT:          0  MISS:          0
cpu0_L1I PREFETCH  ACCESS:          0  HIT:          0  MISS:          0
cpu0_L1I WRITEBACK ACCESS:          0  HIT:          0  MISS:          0
cpu0_STLB TOTAL     ACCESS:    1775397  HIT:    1548582  MISS:     226815
cpu0_STLB LOAD      ACCESS:    1617856  HIT:    1393107  MISS:     224749
cpu0_STLB RFO       ACCESS:     157541  HIT:     155475  MISS:       2066
cpu0_STLB PREFETCH  ACCESS:          0  HIT:          0  MISS:          0
cpu0_STLB WRITEBACK ACCESS:          0  HIT:          0  MISS:          0
cpu0_L1D TOTAL     ACCESS:    5995416  HIT:    3766852  MISS:    2228564
cpu0_L1D LOAD      ACCESS:    4761222  HIT:    2630329  MISS:    2130893
cpu0_L1D RFO       ACCESS:    1008098  HIT:     941442  MISS:      66656
cpu0_L1D PREFETCH  ACCESS:          0  HIT:          0  MISS:          0
cpu0_L1D WRITEBACK ACCESS:          0  HIT:          0  MISS:          0
cpu0_L2C TOTAL     ACCESS:    2723234  HIT:    1275693  MISS:    1447541
cpu0_L2C LOAD      ACCESS:    2130784  HIT:     721603  MISS:    1409181
cpu0_L2C RFO       ACCESS:      66649  HIT:      35418  MISS:      31231
cpu0_L2C PREFETCH  ACCESS:          0  HIT:          0  MISS:          0
cpu0_L2C WRITEBACK ACCESS:     494786  HIT:     494625  MISS:        161
LLC TOTAL     ACCESS:    1754678  HIT:     579372  MISS:    1175306
LLC LOAD      ACCESS:    1409178  HIT:     271811  MISS:    1137367
LLC RFO       ACCESS:      31231  HIT:       5605  MISS:      25626
LLC PREFETCH  ACCESS:          0  HIT:          0  MISS:          0
LLC WRITEBACK ACCESS:     307301  HIT:     295999  MISS:      11302
Heartbeat CPU 0 instructions: 74000001 cycles: 255260231 heartbeat IPC: 0.101643 cumulative IPC: 0.100227 (Simulation time: 1 hr 39 min 32 sec) 

Region of Interest Statistics
cpu0_DTLB TOTAL     ACCESS:    5500464  HIT:    3565615  MISS:    1934849
cpu0_DTLB LOAD      ACCESS:    4694031  HIT:    2927802  MISS:    1766229
cpu0_DTLB RFO       ACCESS:     806433  HIT:     637813  MISS:     168620
cpu0_DTLB PREFETCH  ACCESS:          0  HIT:          0  MISS:          0
cpu0_DTLB WRITEBACK ACCESS:          0  HIT:          0  MISS:          0
cpu0_ITLB TOTAL     ACCESS:    2948324  HIT:    2948324  MISS:          0
cpu0_ITLB LOAD      ACCESS:    2948324  HIT:    2948324  MISS:          0
cpu0_ITLB RFO       ACCESS:          0  HIT:          0  MISS:          0
cpu0_ITLB PREFETCH  ACCESS:          0  HIT:          0  MISS:          0
cpu0_ITLB WRITEBACK ACCESS:          0  HIT:          0  MISS:          0
cpu0_L1I TOTAL     ACCESS:          1  HIT:          1  MISS:          0
cpu0_L1I LOAD      ACCESS:          1  HIT:          1  MISS:          0
cpu0_L1I RFO       ACCESS:          0  HIT:          0  MISS:          0
cpu0_L1I PREFETCH  ACCESS:          0  HIT:          0  MISS:          0
cpu0_L1I WRITEBACK ACCESS:          0  HIT:          0  MISS:          0
cpu0_STLB TOTAL     ACCESS:    1934849  HIT:    1685468  MISS:     249381
cpu0_STLB LOAD      ACCESS:    1766229  HIT:    1519100  MISS:     247129
cpu0_STLB RFO       ACCESS:     168620  HIT:     166368  MISS:       2252
cpu0_STLB PREFETCH  ACCESS:          0  HIT:          0  MISS:          0
cpu0_STLB WRITEBACK ACCESS:          0  HIT:          0  MISS:          0
cpu0_L1D TOTAL     ACCESS:    6538406  HIT:    4104848  MISS:    2433558
cpu0_L1D LOAD      ACCESS:    5193256  HIT:    2866707  MISS:    2326549
cpu0_L1D RFO       ACCESS:    1096503  HIT:    1023757  MISS:      72746
cpu0_L1D PREFETCH  ACCESS:          0  HIT:          0  MISS:          0
cpu0_L1D WRITEBACK ACCESS:          0  HIT:          0  MISS:          0
cpu0_L2C TOTAL     ACCESS:    2972757  HIT:    1386574  MISS:    1586183
cpu0_L2C LOAD      ACCESS:    2326430  HIT:     782365  MISS:    1544065
cpu0_L2C RFO       ACCESS:      72739  HIT:      38444  MISS:      34295
cpu0_L2C PREFETCH  ACCESS:          0  HIT:          0  MISS:          0
cpu0_L2C WRITEBACK ACCESS:     539325  HIT:     539145  MISS:        180
LLC TOTAL     ACCESS:    1921030  HIT:     637014  MISS:    1284016
LLC LOAD      ACCESS:    1544062  HIT:     301168  MISS:    1242894
LLC RFO       ACCESS:      34295  HIT:       6387  MISS:      27908
LLC PREFETCH  ACCESS:          0  HIT:          0  MISS:          0
LLC WRITEBACK ACCESS:     335030  HIT:     322857  MISS:      12173
Heartbeat CPU 0 instructions: 76000001 cycles: 278222792 heartbeat IPC: 0.0870983 cumulative IPC: 0.0990782 (Simulation time: 1 hr 45 min 4 sec) 

Region of Interest Statistics
cpu0_DTLB TOTAL     ACCESS:    5955914  HIT:    3862944  MISS:    2092970
cpu0_DTLB LOAD      ACCESS:    5080212  HIT:    3170924  MISS:    1909288
cpu0_DTLB RFO       ACCESS:     875702  HIT:     692020  MISS:     183682
cpu0_DTLB PREFETCH  ACCESS:          0  HIT:          0  MISS:          0
cpu0_DTLB WRITEBACK ACCESS:          0  HIT:          0  MISS:          0
cpu0_ITLB TOTAL     ACCESS:    3199926  HIT:    3199926  MISS:          0
cpu0_ITLB LOAD      ACCESS:    3199926  HIT:    3199926  MISS:          0
cpu0_ITLB RFO       ACCESS:          0  HIT:          0  MISS:          0
cpu0_ITLB PREFETCH  ACCESS:          0  HIT:          0  MISS:          0
cpu0_ITLB WRITEBACK ACCESS:          0  HIT:          0  MISS:          0
cpu0_L1I TOTAL     ACCESS:          1  HIT:          1  MISS:          0
cpu0_L1I LOAD      ACCESS:          1  HIT:          1  MISS:          0
cpu0_L1I RFO       ACCESS:          0  HIT:          0  MISS:          0
cpu0_L1I PREFETCH  ACCESS:          0  HIT:          0  MISS:          0
cpu0_L1I WRITEBACK ACCESS:          0  HIT:          0  MISS:          0
cpu0_STLB TOTAL     ACCESS:    2092970  HIT:    1821062  MISS:     271908
cpu0_STLB LOAD      ACCESS:    1909288  HIT:    1639850  MISS:     269438
cpu0_STLB RFO       ACCESS:     183682  HIT:     181212  MISS:       2470
cpu0_STLB PREFETCH  ACCESS:          0  HIT:          0  MISS:          0
cpu0_STLB WRITEBACK ACCESS:          0  HIT:          0  MISS:          0
cpu0_L1D TOTAL     ACCESS:    7078660  HIT:    4440145  MISS:    2638515
cpu0_L1D LOAD      ACCESS:    5618794  HIT:    3095899  MISS:    2522895
cpu0_L1D RFO       ACCESS:    1188786  HIT:    1110398  MISS:      78388
cpu0_L1D PREFETCH  ACCESS:          0  HIT:          0  MISS:          0
cpu0_L1D WRITEBACK ACCESS:          0  HIT:          0  MISS:          0
cpu0_L2C TOTAL     ACCESS:    3226359  HIT:    1495854  MISS:    1730505
cpu0_L2C LOAD      ACCESS:    2522769  HIT:     838049  MISS:    1684720
cpu0_L2C RFO       ACCESS:      78381  HIT:      41040  MISS:      37341
cpu0_L2C PREFETCH  ACCESS:          0  HIT:          0  MISS:          0
cpu0_L2C WRITEBACK ACCESS:     587977  HIT:     587771  MISS:        206
LLC TOTAL     ACCESS:    2099066  HIT:     693714  MISS:    1405352
LLC LOAD      ACCESS:    1684717  HIT:     324450  MISS:    1360267
LLC RFO       ACCESS:      37341  HIT:       6823  MISS:      30518
LLC PREFETCH  ACCESS:          0  HIT:          0  MISS:          0
LLC WRITEBACK ACCESS:     368770  HIT:     355396  MISS:      13374
Heartbeat CPU 0 instructions: 78000001 cycles: 297499398 heartbeat IPC: 0.103753 cumulative IPC: 0.0993981 (Simulation time: 1 hr 50 min 9 sec) 

Region of Interest Statistics
cpu0_DTLB TOTAL     ACCESS:    6413331  HIT:    4155194  MISS:    2258137
cpu0_DTLB LOAD      ACCESS:    5471929  HIT:    3415834  MISS:    2056095
cpu0_DTLB RFO       ACCESS:     941402  HIT:     739360  MISS:     202042
cpu0_DTLB PREFETCH  ACCESS:          0  HIT:          0  MISS:          0
cpu0_DTLB WRITEBACK ACCESS:          0  HIT:          0  MISS:          0
cpu0_ITLB TOTAL     ACCESS:    3446139  HIT:    3446139  MISS:          0
cpu0_ITLB LOAD      ACCESS:    3446139  HIT:    3446139  MISS:          0
cpu0_ITLB RFO       ACCESS:          0  HIT:          0  MISS:          0
cpu0_ITLB PREFETCH  ACCESS:          0  HIT:          0  MISS:          0
cpu0_ITLB WRITEBACK ACCESS:          0  HIT:          0  MISS:          0
cpu0_L1I TOTAL     ACCESS:          1  HIT:          1  MISS:          0
cpu0_L1I LOAD      ACCESS:          1  HIT:          1  MISS:          0
cpu0_L1I RFO       ACCESS:          0  HIT:          0  MISS:          0
cpu0_L1I PREFETCH  ACCESS:          0  HIT:          0  MISS:          0
cpu0_L1I WRITEBACK ACCESS:          0  HIT:          0  MISS:          0
cpu0_STLB TOTAL     ACCESS:    2258137  HIT:    1968677  MISS:     289460
cpu0_STLB LOAD      ACCESS:    2056095  HIT:    1769237  MISS:     286858
cpu0_STLB RFO       ACCESS:     202042  HIT:     199440  MISS:       2602
cpu0_STLB PREFETCH  ACCESS:          0  HIT:          0  MISS:          0
cpu0_STLB WRITEBACK ACCESS:          0  HIT:          0  MISS:          0
cpu0_L1D TOTAL     ACCESS:    7619084  HIT:    4777777  MISS:    2841307
cpu0_L1D LOAD      ACCESS:    6054068  HIT:    3336047  MISS:    2718021
cpu0_L1D RFO       ACCESS:    1276397  HIT:    1193015  MISS:      83382
cpu0_L1D PREFETCH  ACCESS:          0  HIT:          0  MISS:          0
cpu0_L1D WRITEBACK ACCESS:          0  HIT:          0  MISS:          0
cpu0_L2C TOTAL     ACCESS:    3475159  HIT:    1611724  MISS:    1863435
cpu0_L2C LOAD      ACCESS:    2717876  HIT:     903223  MISS:    1814653
cpu0_L2C RFO       ACCESS:      83375  HIT:      43677  MISS:      39698
cpu0_L2C PREFETCH  ACCESS:          0  HIT:          0  MISS:          0
cpu0_L2C WRITEBACK ACCESS:     634004  HIT:     633786  MISS:        218
LLC TOTAL     ACCESS:    2264482  HIT:     758140  MISS:    1506342
LLC LOAD      ACCESS:    1814650  HIT:     356881  MISS:    1457769
LLC RFO       ACCESS:      39698  HIT:       7431  MISS:      32267
LLC PREFETCH  ACCESS:          0  HIT:          0  MISS:          0
LLC WRITEBACK ACCESS:     401268  HIT:     386213  MISS:      15055
Heartbeat CPU 0 instructions: 80000001 cycles: 321250538 heartbeat IPC: 0.0842065 cumulative IPC: 0.0982168 (Simulation time: 1 hr 56 min 15 sec) 

Region of Interest Statistics
cpu0_DTLB TOTAL     ACCESS:    6880878  HIT:    4458748  MISS:    2422130
cpu0_DTLB LOAD      ACCESS:    5873583  HIT:    3663408  MISS:    2210175
cpu0_DTLB RFO       ACCESS:    1007295  HIT:     795340  MISS:     211955
cpu0_DTLB PREFETCH  ACCESS:          0  HIT:          0  MISS:          0
cpu0_DTLB WRITEBACK ACCESS:          0  HIT:          0  MISS:          0
cpu0_ITLB TOTAL     ACCESS:    3701063  HIT:    3701063  MISS:          0
cpu0_ITLB LOAD      ACCESS:    3701063  HIT:    3701063  MISS:          0
cpu0_ITLB RFO       ACCESS:          0  HIT:          0  MISS:          0
cpu0_ITLB PREFETCH  ACCESS:          0  HIT:          0  MISS:          0
cpu0_ITLB WRITEBACK ACCESS:          0  HIT:          0  MISS:          0
cpu0_L1I TOTAL     ACCESS:          1  HIT:          1  MISS:          0
cpu0_L1I LOAD      ACCESS:          1  HIT:          1  MISS:          0
cpu0_L1I RFO       ACCESS:          0  HIT:          0  MISS:          0
cpu0_L1I PREFETCH  ACCESS:          0  HIT:          0  MISS:          0
cpu0_L1I WRITEBACK ACCESS:          0  HIT:          0  MISS:          0
cpu0_STLB TOTAL     ACCESS:    2422130  HIT:    2105525  MISS:     316605
cpu0_STLB LOAD      ACCESS:    2210175  HIT:    1896292  MISS:     313883
cpu0_STLB RFO       ACCESS:     211955  HIT:     209233  MISS:       2722
cpu0_STLB PREFETCH  ACCESS:          0  HIT:          0  MISS:          0
cpu0_STLB WRITEBACK ACCESS:          0  HIT:          0  MISS:          0
cpu0_L1D TOTAL     ACCESS:    8165427  HIT:    5112490  MISS:    3052937
cpu0_L1D LOAD      ACCESS:    6487049  HIT:    3567245  MISS:    2919804
cpu0_L1D RFO       ACCESS:    1362735  HIT:    1273034  MISS:      89701
cpu0_L1D PREFETCH  ACCESS:          0  HIT:          0  MISS:          0
cpu0_L1D WRITEBACK ACCESS:          0  HIT:          0  MISS:          0
cpu0_L2C TOTAL     ACCESS:    3734602  HIT:    1720755  MISS:    2013847
cpu0_L2C LOAD      ACCESS:    2919650  HIT:     959012  MISS:    1960638
cpu0_L2C RFO       ACCESS:      89694  HIT:      46236  MISS:      43458
cpu0_L2C PREFETCH  ACCESS:          0  HIT:          0  MISS:          0
cpu0_L2C WRITEBACK ACCESS:     681826  HIT:     681592  MISS:        234
LLC TOTAL     ACCESS:    2451725  HIT:     815088  MISS:    1636637
LLC LOAD      ACCESS:    1960635  HIT:     377261  MISS:    1583374
LLC RFO       ACCESS:      43458  HIT:       8113  MISS:      35345
LLC PREFETCH  ACCESS:          0  HIT:          0  MISS:          0
LLC WRITEBACK ACCESS:     438115  HIT:     421642  MISS:      16473
Heartbeat CPU 0 instructions: 82000002 cycles: 342016801 heartbeat IPC: 0.0963101 cumulative IPC: 0.0980954 (Simulation time: 2 hr 1 min 27 sec) 

Region of Interest Statistics
cpu0_DTLB TOTAL     ACCESS:    7315257  HIT:    4739847  MISS:    2575410
cpu0_DTLB LOAD      ACCESS:    6226894  HIT:    3898628  MISS:    2328266
cpu0_DTLB RFO       ACCESS:    1088363  HIT:     841219  MISS:     247144
cpu0_DTLB PREFETCH  ACCESS:          0  HIT:          0  MISS:          0
cpu0_DTLB WRITEBACK ACCESS:          0  HIT:          0  MISS:          0
cpu0_ITLB TOTAL     ACCESS:    3940225  HIT:    3940225  MISS:          0
cpu0_ITLB LOAD      ACCESS:    3940225  HIT:    3940225  MISS:          0
cpu0_ITLB RFO       ACCESS:          0  HIT:          0  MISS:          0
cpu0_ITLB PREFETCH  ACCESS:          0  HIT:          0  MISS:          0
cpu0_ITLB WRITEBACK ACCESS:          0  HIT:          0  MISS:          0
cpu0_L1I TOTAL     ACCESS:          1  HIT:          1  MISS:          0
cpu0_L1I LOAD      ACCESS:          1  HIT:          1  MISS:          0
cpu0_L1I RFO       ACCESS:          0  HIT:          0  MISS:          0
cpu0_L1I PREFETCH  ACCESS:          0  HIT:          0  MISS:          0
cpu0_L1I WRITEBACK ACCESS:          0  HIT:          0  MISS:          0
cpu0_STLB TOTAL     ACCESS:    2575410  HIT:    2254326  MISS:     321084
cpu0_STLB LOAD      ACCESS:    2328266  HIT:    2010315  MISS:     317951
cpu0_STLB RFO       ACCESS:     247144  HIT:     244011  MISS:       3133
cpu0_STLB PREFETCH  ACCESS:          0  HIT:          0  MISS:          0
cpu0_STLB WRITEBACK ACCESS:          0  HIT:          0  MISS:          0
cpu0_L1D TOTAL     ACCESS:    8701671  HIT:    5451279  MISS:    3250392
cpu0_L1D LOAD      ACCESS:    6911934  HIT:    3798743  MISS:    3113191
cpu0_L1D RFO       ACCESS:    1469681  HIT:    1377001  MISS:      92680
cpu0_L1D PREFETCH  ACCESS:          0  HIT:          0  MISS:          0
cpu0_L1D WRITEBACK ACCESS:          0  HIT:          0  MISS:          0
cpu0_L2C TOTAL     ACCESS:    3989999  HIT:    1840707  MISS:    2149292
cpu0_L2C LOAD      ACCESS:    3113025  HIT:    1018196  MISS:    2094829
cpu0_L2C RFO       ACCESS:      92673  HIT:      48568  MISS:      44105
cpu0_L2C PREFETCH  ACCESS:          0  HIT:          0  MISS:          0
cpu0_L2C WRITEBACK ACCESS:     739780  HIT:     739539  MISS:        241
LLC TOTAL     ACCESS:    2629860  HIT:     887385  MISS:    1742475
LLC LOAD      ACCESS:    2094826  HIT:     411817  MISS:    1683009
LLC RFO       ACCESS:      44105  HIT:       8264  MISS:      35841
LLC PREFETCH  ACCESS:          0  HIT:          0  MISS:          0
LLC WRITEBACK ACCESS:     480812  HIT:     458745  MISS:      22067
Heartbeat CPU 0 instructions: 84000003 cycles: 371404995 heartbeat IPC: 0.0680546 cumulative IPC: 0.0956127 (Simulation time: 2 hr 8 min 1 sec) 

Region of Interest Statistics
cpu0_DTLB TOTAL     ACCESS:    7789292  HIT:    5056675  MISS:    2732617
cpu0_DTLB LOAD      ACCESS:    6624124  HIT:    4143676  MISS:    2480448
cpu0_DTLB RFO       ACCESS:    1165168  HIT:     912999  MISS:     252169
cpu0_DTLB PREFETCH  ACCESS:          0  HIT:          0  MISS:          0
cpu0_DTLB WRITEBACK ACCESS:          0  HIT:          0  MISS:          0
cpu0_ITLB TOTAL     ACCESS:    4213977  HIT:    4213977  MISS:          0
cpu0_ITLB LOAD      ACCESS:    4213977  HIT:    4213977  MISS:          0
cpu0_ITLB RFO       ACCESS:          0  HIT:          0  MISS:          0
cpu0_ITLB PREFETCH  ACCESS:          0  HIT:          0  MISS:          0
cpu0_ITLB WRITEBACK ACCESS:          0  HIT:          0  MISS:          0
cpu0_L1I TOTAL     ACCESS:          1  HIT:          1  MISS:          0
cpu0_L1I LOAD      ACCESS:          1  HIT:          1  MISS:          0
cpu0_L1I RFO       ACCESS:          0  HIT:          0  MISS:          0
cpu0_L1I PREFETCH  ACCESS:          0  HIT:          0  MISS:          0
cpu0_L1I WRITEBACK ACCESS:          0  HIT:          0  MISS:          0
cpu0_STLB TOTAL     ACCESS:    2732617  HIT:    2370860  MISS:     361757
cpu0_STLB LOAD      ACCESS:    2480448  HIT:    2121920  MISS:     358528
cpu0_STLB RFO       ACCESS:     252169  HIT:     248940  MISS:       3229
cpu0_STLB PREFETCH  ACCESS:          0  HIT:          0  MISS:          0
cpu0_STLB WRITEBACK ACCESS:          0  HIT:          0  MISS:          0
cpu0_L1D TOTAL     ACCESS:    9264187  HIT:    5789677  MISS:    3474510
cpu0_L1D LOAD      ACCESS:    7336587  HIT:    4012259  MISS:    3324328
cpu0_L1D RFO       ACCESS:    1566990  HIT:    1466354  MISS:     100636
cpu0_L1D PREFETCH  ACCESS:          0  HIT:          0  MISS:          0
cpu0_L1D WRITEBACK ACCESS:          0  HIT:          0  MISS:          0
cpu0_L2C TOTAL     ACCESS:    4273077  HIT:    1944867  MISS:    2328210
cpu0_L2C LOAD      ACCESS:    3324156  HIT:    1056564  MISS:    2267592
cpu0_L2C RFO       ACCESS:     100629  HIT:      50984  MISS:      49645
cpu0_L2C PREFETCH  ACCESS:          0  HIT:          0  MISS:          0
cpu0_L2C WRITEBACK ACCESS:     798746  HIT:     798489  MISS:        257
LLC TOTAL     ACCESS:    2860632  HIT:     958097  MISS:    1902535
LLC LOAD      ACCESS:    2267588  HIT:     431244  MISS:    1836344
LLC RFO       ACCESS:      49645  HIT:       9449  MISS:      40196
LLC PREFETCH  ACCESS:          0  HIT:          0  MISS:          0
LLC WRITEBACK ACCESS:     532683  HIT:     508537  MISS:      24146
Heartbeat CPU 0 instructions: 86000002 cycles: 382579505 heartbeat IPC: 0.178979 cumulative IPC: 0.0981526 (Simulation time: 2 hr 11 min 41 sec) 

Region of Interest Statistics
cpu0_DTLB TOTAL     ACCESS:    8218947  HIT:    5332195  MISS:    2886752
cpu0_DTLB LOAD      ACCESS:    6995685  HIT:    4371961  MISS:    2623724
cpu0_DTLB RFO       ACCESS:    1223262  HIT:     960234  MISS:     263028
cpu0_DTLB PREFETCH  ACCESS:          0  HIT:          0  MISS:          0
cpu0_DTLB WRITEBACK ACCESS:          0  HIT:          0  MISS:          0
cpu0_ITLB TOTAL     ACCESS:    4427807  HIT:    4427807  MISS:          0
cpu0_ITLB LOAD      ACCESS:    4427807  HIT:    4427807  MISS:          0
cpu0_ITLB RFO       ACCESS:          0  HIT:          0  MISS:          0
cpu0_ITLB PREFETCH  ACCESS:          0  HIT:          0  MISS:          0
cpu0_ITLB WRITEBACK ACCESS:          0  HIT:          0  MISS:          0
cpu0_L1I TOTAL     ACCESS:          1  HIT:          1  MISS:          0
cpu0_L1I LOAD      ACCESS:          1  HIT:          1  MISS:          0
cpu0_L1I RFO       ACCESS:          0  HIT:          0  MISS:          0
cpu0_L1I PREFETCH  ACCESS:          0  HIT:          0  MISS:          0
cpu0_L1I WRITEBACK ACCESS:          0  HIT:          0  MISS:          0
cpu0_STLB TOTAL     ACCESS:    2886752  HIT:    2521782  MISS:     364970
cpu0_STLB LOAD      ACCESS:    2623724  HIT:    2262165  MISS:     361559
cpu0_STLB RFO       ACCESS:     263028  HIT:     259617  MISS:       3411
cpu0_STLB PREFETCH  ACCESS:          0  HIT:          0  MISS:          0
cpu0_STLB WRITEBACK ACCESS:          0  HIT:          0  MISS:          0
cpu0_L1D TOTAL     ACCESS:    9783648  HIT:    6140134  MISS:    3643514
cpu0_L1D LOAD      ACCESS:    7755585  HIT:    4267575  MISS:    3488010
cpu0_L1D RFO       ACCESS:    1664240  HIT:    1559334  MISS:     104906
cpu0_L1D PREFETCH  ACCESS:          0  HIT:          0  MISS:          0
cpu0_L1D WRITEBACK ACCESS:          0  HIT:          0  MISS:          0
cpu0_L2C TOTAL     ACCESS:    4464368  HIT:    2048313  MISS:    2416055
cpu0_L2C LOAD      ACCESS:    3487823  HIT:    1133661  MISS:    2354162
cpu0_L2C RFO       ACCESS:     104898  HIT:      54684  MISS:      50214
cpu0_L2C PREFETCH  ACCESS:          0  HIT:          0  MISS:          0
cpu0_L2C WRITEBACK ACCESS:     821049  HIT:     820764  MISS:        285
LLC TOTAL     ACCESS:    2951772  HIT:     994540  MISS:    1957232
LLC LOAD      ACCESS:    2354158  HIT:     463681  MISS:    1890477
LLC RFO       ACCESS:      50214  HIT:       9619  MISS:      40595
LLC PREFETCH  ACCESS:          0  HIT:          0  MISS:          0
LLC WRITEBACK ACCESS:     536006  HIT:     511701  MISS:      24305
Heartbeat CPU 0 instructions: 88000001 cycles: 411086477 heartbeat IPC: 0.0701582 cumulative IPC: 0.0961337 (Simulation time: 2 hr 18 min 6 sec) 

Region of Interest Statistics
cpu0_DTLB TOTAL     ACCESS:    8693706  HIT:    5649678  MISS:    3044028
cpu0_DTLB LOAD      ACCESS:    7393377  HIT:    4617622  MISS:    2775755
cpu0_DTLB RFO       ACCESS:    1300329  HIT:    1032056  MISS:     268273
cpu0_DTLB PREFETCH  ACCESS:          0  HIT:          0  MISS:          0
cpu0_DTLB WRITEBACK ACCESS:          0  HIT:          0  MISS:          0
cpu0_ITLB TOTAL     ACCESS:    4702846  HIT:    4702846  MISS:          0
cpu0_ITLB LOAD      ACCESS:    4702846  HIT:    4702846  MISS:          0
cpu0_ITLB RFO       ACCESS:          0  HIT:          0  MISS:          0
cpu0_ITLB PREFETCH  ACCESS:          0  HIT:          0  MISS:          0
cpu0_ITLB WRITEBACK ACCESS:          0  HIT:          0  MISS:          0
cpu0_L1I TOTAL     ACCESS:          1  HIT:          1  MISS:          0
cpu0_L1I LOAD      ACCESS:          1  HIT:          1  MISS:          0
cpu0_L1I RFO       ACCESS:          0  HIT:          0  MISS:          0
cpu0_L1I PREFETCH  ACCESS:          0  HIT:          0  MISS:          0
cpu0_L1I WRITEBACK ACCESS:          0  HIT:          0  MISS:          0
cpu0_STLB TOTAL     ACCESS:    3044028  HIT:    2637531  MISS:     406497
cpu0_STLB LOAD      ACCESS:    2775755  HIT:    2372776  MISS:     402979
cpu0_STLB RFO       ACCESS:     268273  HIT:     264755  MISS:       3518
cpu0_STLB PREFETCH  ACCESS:          0  HIT:          0  MISS:          0
cpu0_STLB WRITEBACK ACCESS:          0  HIT:          0  MISS:          0
cpu0_L1D TOTAL     ACCESS:   10347497  HIT:    6478960  MISS:    3868537
cpu0_L1D LOAD      ACCESS:    8180406  HIT:    4480526  MISS:    3699880
cpu0_L1D RFO       ACCESS:    1761879  HIT:    1648941  MISS:     112938
cpu0_L1D PREFETCH  ACCESS:          0  HIT:          0  MISS:          0
cpu0_L1D WRITEBACK ACCESS:          0  HIT:          0  MISS:          0
cpu0_L2C TOTAL     ACCESS:    4749272  HIT:    2153338  MISS:    2595934
cpu0_L2C LOAD      ACCESS:    3699685  HIT:    1171854  MISS:    2527831
cpu0_L2C RFO       ACCESS:     112930  HIT:      57127  MISS:      55803
cpu0_L2C PREFETCH  ACCESS:          0  HIT:          0  MISS:          0
cpu0_L2C WRITEBACK ACCESS:     880938  HIT:     880649  MISS:        289
LLC TOTAL     ACCESS:    3182932  HIT:    1063014  MISS:    2119918
LLC LOAD      ACCESS:    2527827  HIT:     481120  MISS:    2046707
LLC RFO       ACCESS:      55803  HIT:      10684  MISS:      45119
LLC PREFETCH  ACCESS:          0  HIT:          0  MISS:          0
LLC WRITEBACK ACCESS:     587291  HIT:     561253  MISS:      26038
Heartbeat CPU 0 instructions: 90000002 cycles: 422157505 heartbeat IPC: 0.180652 cumulative IPC: 0.0984364 (Simulation time: 2 hr 21 min 50 sec) 

Region of Interest Statistics
cpu0_DTLB TOTAL     ACCESS:    9120247  HIT:    5924229  MISS:    3196018
cpu0_DTLB LOAD      ACCESS:    7762716  HIT:    4844414  MISS:    2918302
cpu0_DTLB RFO       ACCESS:    1357531  HIT:    1079815  MISS:     277716
cpu0_DTLB PREFETCH  ACCESS:          0  HIT:          0  MISS:          0
cpu0_DTLB WRITEBACK ACCESS:          0  HIT:          0  MISS:          0
cpu0_ITLB TOTAL     ACCESS:    4915509  HIT:    4915509  MISS:          0
cpu0_ITLB LOAD      ACCESS:    4915509  HIT:    4915509  MISS:          0
cpu0_ITLB RFO       ACCESS:          0  HIT:          0  MISS:          0
cpu0_ITLB PREFETCH  ACCESS:          0  HIT:          0  MISS:          0
cpu0_ITLB WRITEBACK ACCESS:          0  HIT:          0  MISS:          0
cpu0_L1I TOTAL     ACCESS:          1  HIT:          1  MISS:          0
cpu0_L1I LOAD      ACCESS:          1  HIT:          1  MISS:          0
cpu0_L1I RFO       ACCESS:          0  HIT:          0  MISS:          0
cpu0_L1I PREFETCH  ACCESS:          0  HIT:          0  MISS:          0
cpu0_L1I WRITEBACK ACCESS:          0  HIT:          0  MISS:          0
cpu0_STLB TOTAL     ACCESS:    3196018  HIT:    2786667  MISS:     409351
cpu0_STLB LOAD      ACCESS:    2918302  HIT:    2512671  MISS:     405631
cpu0_STLB RFO       ACCESS:     277716  HIT:     273996  MISS:       3720
cpu0_STLB PREFETCH  ACCESS:          0  HIT:          0  MISS:          0
cpu0_STLB WRITEBACK ACCESS:          0  HIT:          0  MISS:          0
cpu0_L1D TOTAL     ACCESS:   10861958  HIT:    6827626  MISS:    4034332
cpu0_L1D LOAD      ACCESS:    8594392  HIT:    4733814  MISS:    3860578
cpu0_L1D RFO       ACCESS:    1859501  HIT:    1742403  MISS:     117098
cpu0_L1D PREFETCH  ACCESS:          0  HIT:          0  MISS:          0
cpu0_L1D WRITEBACK ACCESS:          0  HIT:          0  MISS:          0
cpu0_L2C TOTAL     ACCESS:    4935673  HIT:    2251840  MISS:    2683833
cpu0_L2C LOAD      ACCESS:    3860376  HIT:    1245850  MISS:    2614526
cpu0_L2C RFO       ACCESS:     117089  HIT:      60733  MISS:      56356
cpu0_L2C PREFETCH  ACCESS:          0  HIT:          0  MISS:          0
cpu0_L2C WRITEBACK ACCESS:     901552  HIT:     901229  MISS:        323
LLC TOTAL     ACCESS:    3274292  HIT:    1099840  MISS:    2174452
LLC LOAD      ACCESS:    2614521  HIT:     513840  MISS:    2100681
LLC RFO       ACCESS:      56356  HIT:      10868  MISS:      45488
LLC PREFETCH  ACCESS:          0  HIT:          0  MISS:          0
LLC WRITEBACK ACCESS:     590787  HIT:     564563  MISS:      26224
Heartbeat CPU 0 instructions: 92000003 cycles: 450778405 heartbeat IPC: 0.069879 cumulative IPC: 0.0965573 (Simulation time: 2 hr 28 min 13 sec) 

Region of Interest Statistics
cpu0_DTLB TOTAL     ACCESS:    9594567  HIT:    6241331  MISS:    3353236
cpu0_DTLB LOAD      ACCESS:    8159829  HIT:    5088635  MISS:    3071194
cpu0_DTLB RFO       ACCESS:    1434738  HIT:    1152696  MISS:     282042
cpu0_DTLB PREFETCH  ACCESS:          0  HIT:          0  MISS:          0
cpu0_DTLB WRITEBACK ACCESS:          0  HIT:          0  MISS:          0
cpu0_ITLB TOTAL     ACCESS:    5190704  HIT:    5190704  MISS:          0
cpu0_ITLB LOAD      ACCESS:    5190704  HIT:    5190704  MISS:          0
cpu0_ITLB RFO       ACCESS:          0  HIT:          0  MISS:          0
cpu0_ITLB PREFETCH  ACCESS:          0  HIT:          0  MISS:          0
cpu0_ITLB WRITEBACK ACCESS:          0  HIT:          0  MISS:          0
cpu0_L1I TOTAL     ACCESS:          1  HIT:          1  MISS:          0
cpu0_L1I LOAD      ACCESS:          1  HIT:          1  MISS:          0
cpu0_L1I RFO       ACCESS:          0  HIT:          0  MISS:          0
cpu0_L1I PREFETCH  ACCESS:          0  HIT:          0  MISS:          0
cpu0_L1I WRITEBACK ACCESS:          0  HIT:          0  MISS:          0
cpu0_STLB TOTAL     ACCESS:    3353236  HIT:    2901926  MISS:     451310
cpu0_STLB LOAD      ACCESS:    3071194  HIT:    2623714  MISS:     447480
cpu0_STLB RFO       ACCESS:     282042  HIT:     278212  MISS:       3830
cpu0_STLB PREFETCH  ACCESS:          0  HIT:          0  MISS:          0
cpu0_STLB WRITEBACK ACCESS:          0  HIT:          0  MISS:          0
cpu0_L1D TOTAL     ACCESS:   11424966  HIT:    7165801  MISS:    4259165
cpu0_L1D LOAD      ACCESS:    9017795  HIT:    4945544  MISS:    4072251
cpu0_L1D RFO       ACCESS:    1957276  HIT:    1832212  MISS:     125064
cpu0_L1D PREFETCH  ACCESS:          0  HIT:          0  MISS:          0
cpu0_L1D WRITEBACK ACCESS:          0  HIT:          0  MISS:          0
cpu0_L2C TOTAL     ACCESS:    5219884  HIT:    2354958  MISS:    2864926
cpu0_L2C LOAD      ACCESS:    4072045  HIT:    1282735  MISS:    2789310
cpu0_L2C RFO       ACCESS:     125055  HIT:      63042  MISS:      62013
cpu0_L2C PREFETCH  ACCESS:          0  HIT:          0  MISS:          0
cpu0_L2C WRITEBACK ACCESS:     960934  HIT:     960603  MISS:        331
LLC TOTAL     ACCESS:    3506644  HIT:    1168148  MISS:    2338496
LLC LOAD      ACCESS:    2789305  HIT:     531062  MISS:    2258243
LLC RFO       ACCESS:      62013  HIT:      11929  MISS:      50084
LLC PREFETCH  ACCESS:          0  HIT:          0  MISS:          0
LLC WRITEBACK ACCESS:     642054  HIT:     614127  MISS:      27927
Heartbeat CPU 0 instructions: 94000000 cycles: 462540814 heartbeat IPC: 0.170033 cumulative IPC: 0.0984919 (Simulation time: 2 hr 32 min 14 sec) 

Region of Interest Statistics
cpu0_DTLB TOTAL     ACCESS:   10031928  HIT:    6518101  MISS:    3513827
cpu0_DTLB LOAD      ACCESS:    8538415  HIT:    5324141  MISS:    3214274
cpu0_DTLB RFO       ACCESS:    1493513  HIT:    1193960  MISS:     299553
cpu0_DTLB PREFETCH  ACCESS:          0  HIT:          0  MISS:          0
cpu0_DTLB WRITEBACK ACCESS:          0  HIT:          0  MISS:          0
cpu0_ITLB TOTAL     ACCESS:    5407537  HIT:    5407537  MISS:          0
cpu0_ITLB LOAD      ACCESS:    5407537  HIT:    5407537  MISS:          0
cpu0_ITLB RFO       ACCESS:          0  HIT:          0  MISS:          0
cpu0_ITLB PREFETCH  ACCESS:          0  HIT:          0  MISS:          0
cpu0_ITLB WRITEBACK ACCESS:          0  HIT:          0  MISS:          0
cpu0_L1I TOTAL     ACCESS:          1  HIT:          1  MISS:          0
cpu0_L1I LOAD      ACCESS:          1  HIT:          1  MISS:          0
cpu0_L1I RFO       ACCESS:          0  HIT:          0  MISS:          0
cpu0_L1I PREFETCH  ACCESS:          0  HIT:          0  MISS:          0
cpu0_L1I WRITEBACK ACCESS:          0  HIT:          0  MISS:          0
cpu0_STLB TOTAL     ACCESS:    3513827  HIT:    3059878  MISS:     453949
cpu0_STLB LOAD      ACCESS:    3214274  HIT:    2764482  MISS:     449792
cpu0_STLB RFO       ACCESS:     299553  HIT:     295396  MISS:       4157
cpu0_STLB PREFETCH  ACCESS:          0  HIT:          0  MISS:          0
cpu0_STLB WRITEBACK ACCESS:          0  HIT:          0  MISS:          0
cpu0_L1D TOTAL     ACCESS:   11952665  HIT:    7515697  MISS:    4436968
cpu0_L1D LOAD      ACCESS:    9451122  HIT:    5205908  MISS:    4245214
cpu0_L1D RFO       ACCESS:    2049013  HIT:    1920035  MISS:     128978
cpu0_L1D PREFETCH  ACCESS:          0  HIT:          0  MISS:          0
cpu0_L1D WRITEBACK ACCESS:          0  HIT:          0  MISS:          0
cpu0_L2C TOTAL     ACCESS:    5425994  HIT:    2471717  MISS:    2954277
cpu0_L2C LOAD      ACCESS:    4244999  HIT:    1367478  MISS:    2877521
cpu0_L2C RFO       ACCESS:     128968  HIT:      66442  MISS:      62526
cpu0_L2C PREFETCH  ACCESS:          0  HIT:          0  MISS:          0
cpu0_L2C WRITEBACK ACCESS:     989251  HIT:     988905  MISS:        346
LLC TOTAL     ACCESS:    3602508  HIT:    1206507  MISS:    2396001
LLC LOAD      ACCESS:    2877516  HIT:     562330  MISS:    2315186
LLC RFO       ACCESS:      62526  HIT:      12105  MISS:      50421
LLC PREFETCH  ACCESS:          0  HIT:          0  MISS:          0
LLC WRITEBACK ACCESS:     648582  HIT:     620433  MISS:      28149
Heartbeat CPU 0 instructions: 96000003 cycles: 491587630 heartbeat IPC: 0.0688545 cumulative IPC: 0.0966826 (Simulation time: 2 hr 38 min 50 sec) 

Region of Interest Statistics
cpu0_DTLB TOTAL     ACCESS:   10513156  HIT:    6836273  MISS:    3676883
cpu0_DTLB LOAD      ACCESS:    8942897  HIT:    5575176  MISS:    3367721
cpu0_DTLB RFO       ACCESS:    1570259  HIT:    1261097  MISS:     309162
cpu0_DTLB PREFETCH  ACCESS:          0  HIT:          0  MISS:          0
cpu0_DTLB WRITEBACK ACCESS:          0  HIT:          0  MISS:          0
cpu0_ITLB TOTAL     ACCESS:    5685170  HIT:    5685170  MISS:          0
cpu0_ITLB LOAD      ACCESS:    5685170  HIT:    5685170  MISS:          0
cpu0_ITLB RFO       ACCESS:          0  HIT:          0  MISS:          0
cpu0_ITLB PREFETCH  ACCESS:          0  HIT:          0  MISS:          0
cpu0_ITLB WRITEBACK ACCESS:          0  HIT:          0  MISS:          0
cpu0_L1I TOTAL     ACCESS:          1  HIT:          1  MISS:          0
cpu0_L1I LOAD      ACCESS:          1  HIT:          1  MISS:          0
cpu0_L1I RFO       ACCESS:          0  HIT:          0  MISS:          0
cpu0_L1I PREFETCH  ACCESS:          0  HIT:          0  MISS:          0
cpu0_L1I WRITEBACK ACCESS:          0  HIT:          0  MISS:          0
cpu0_STLB TOTAL     ACCESS:    3676883  HIT:    3180596  MISS:     496287
cpu0_STLB LOAD      ACCESS:    3367721  HIT:    2875756  MISS:     491965
cpu0_STLB RFO       ACCESS:     309162  HIT:     304840  MISS:       4322
cpu0_STLB PREFETCH  ACCESS:          0  HIT:          0  MISS:          0
cpu0_STLB WRITEBACK ACCESS:          0  HIT:          0  MISS:          0
cpu0_L1D TOTAL     ACCESS:   12524587  HIT:    7854780  MISS:    4669807
cpu0_L1D LOAD      ACCESS:    9888652  HIT:    5423746  MISS:    4464906
cpu0_L1D RFO       ACCESS:    2141209  HIT:    2004316  MISS:     136893
cpu0_L1D PREFETCH  ACCESS:          0  HIT:          0  MISS:          0
cpu0_L1D WRITEBACK ACCESS:          0  HIT:          0  MISS:          0
cpu0_L2C TOTAL     ACCESS:    5722860  HIT:    2587008  MISS:    3135852
cpu0_L2C LOAD      ACCESS:    4464683  HIT:    1411874  MISS:    3052809
cpu0_L2C RFO       ACCESS:     136883  HIT:      68719  MISS:      68164
cpu0_L2C PREFETCH  ACCESS:          0  HIT:          0  MISS:          0
cpu0_L2C WRITEBACK ACCESS:    1053286  HIT:    1052933  MISS:        353
LLC TOTAL     ACCESS:    3836433  HIT:    1276240  MISS:    2560193
LLC LOAD      ACCESS:    3052804  HIT:     579918  MISS:    2472886
LLC RFO       ACCESS:      68164  HIT:      13224  MISS:      54940
LLC PREFETCH  ACCESS:          0  HIT:          0  MISS:          0
LLC WRITEBACK ACCESS:     700939  HIT:     671017  MISS:      29922
Heartbeat CPU 0 instructions: 98000000 cycles: 502773488 heartbeat IPC: 0.178797 cumulative IPC: 0.0985688 (Simulation time: 2 hr 42 min 45 sec) 

Region of Interest Statistics
cpu0_DTLB TOTAL     ACCESS:   10946021  HIT:    7108688  MISS:    3837333
cpu0_DTLB LOAD      ACCESS:    9314982  HIT:    5806464  MISS:    3508518
cpu0_DTLB RFO       ACCESS:    1631039  HIT:    1302224  MISS:     328815
cpu0_DTLB PREFETCH  ACCESS:          0  HIT:          0  MISS:          0
cpu0_DTLB WRITEBACK ACCESS:          0  HIT:          0  MISS:          0
cpu0_ITLB TOTAL     ACCESS:    5897124  HIT:    5897124  MISS:          0
cpu0_ITLB LOAD      ACCESS:    5897124  HIT:    5897124  MISS:          0
cpu0_ITLB RFO       ACCESS:          0  HIT:          0  MISS:          0
cpu0_ITLB PREFETCH  ACCESS:          0  HIT:          0  MISS:          0
cpu0_ITLB WRITEBACK ACCESS:          0  HIT:          0  MISS:          0
cpu0_L1I TOTAL     ACCESS:          1  HIT:          1  MISS:          0
cpu0_L1I LOAD      ACCESS:          1  HIT:          1  MISS:          0
cpu0_L1I RFO       ACCESS:          0  HIT:          0  MISS:          0
cpu0_L1I PREFETCH  ACCESS:          0  HIT:          0  MISS:          0
cpu0_L1I WRITEBACK ACCESS:          0  HIT:          0  MISS:          0
cpu0_STLB TOTAL     ACCESS:    3837333  HIT:    3338536  MISS:     498797
cpu0_STLB LOAD      ACCESS:    3508518  HIT:    3014291  MISS:     494227
cpu0_STLB RFO       ACCESS:     328815  HIT:     324245  MISS:       4570
cpu0_STLB PREFETCH  ACCESS:          0  HIT:          0  MISS:          0
cpu0_STLB WRITEBACK ACCESS:          0  HIT:          0  MISS:          0
cpu0_L1D TOTAL     ACCESS:   13061884  HIT:    8213072  MISS:    4848812
cpu0_L1D LOAD      ACCESS:   10327388  HIT:    5688208  MISS:    4639180
cpu0_L1D RFO       ACCESS:    2237260  HIT:    2096617  MISS:     140643
cpu0_L1D PREFETCH  ACCESS:          0  HIT:          0  MISS:          0
cpu0_L1D WRITEBACK ACCESS:          0  HIT:          0  MISS:          0
cpu0_L2C TOTAL     ACCESS:    5930952  HIT:    2710412  MISS:    3220540
cpu0_L2C LOAD      ACCESS:    4638936  HIT:    1502570  MISS:    3136366
cpu0_L2C RFO       ACCESS:     140633  HIT:      71959  MISS:      68674
cpu0_L2C PREFETCH  ACCESS:          0  HIT:          0  MISS:          0
cpu0_L2C WRITEBACK ACCESS:    1082394  HIT:    1082023  MISS:        371
LLC TOTAL     ACCESS:    3925608  HIT:    1310821  MISS:    2614787
LLC LOAD      ACCESS:    3136361  HIT:     609423  MISS:    2526938
LLC RFO       ACCESS:      68674  HIT:      13399  MISS:      55275
LLC PREFETCH  ACCESS:          0  HIT:          0  MISS:          0
LLC WRITEBACK ACCESS:     705444  HIT:     675322  MISS:      30122
Heartbeat CPU 0 instructions: 100000001 cycles: 531233640 heartbeat IPC: 0.0702737 cumulative IPC: 0.0970064 (Simulation time: 2 hr 49 min 18 sec) 

Region of Interest Statistics
cpu0_DTLB TOTAL     ACCESS:   11423161  HIT:    7423502  MISS:    3999659
cpu0_DTLB LOAD      ACCESS:    9712969  HIT:    6051864  MISS:    3661105
cpu0_DTLB RFO       ACCESS:    1710192  HIT:    1371638  MISS:     338554
cpu0_DTLB PREFETCH  ACCESS:          0  HIT:          0  MISS:          0
cpu0_DTLB WRITEBACK ACCESS:          0  HIT:          0  MISS:          0
cpu0_ITLB TOTAL     ACCESS:    6171213  HIT:    6171213  MISS:          0
cpu0_ITLB LOAD      ACCESS:    6171213  HIT:    6171213  MISS:          0
cpu0_ITLB RFO       ACCESS:          0  HIT:          0  MISS:          0
cpu0_ITLB PREFETCH  ACCESS:          0  HIT:          0  MISS:          0
cpu0_ITLB WRITEBACK ACCESS:          0  HIT:          0  MISS:          0
cpu0_L1I TOTAL     ACCESS:          1  HIT:          1  MISS:          0
cpu0_L1I LOAD      ACCESS:          1  HIT:          1  MISS:          0
cpu0_L1I RFO       ACCESS:          0  HIT:          0  MISS:          0
cpu0_L1I PREFETCH  ACCESS:          0  HIT:          0  MISS:          0
cpu0_L1I WRITEBACK ACCESS:          0  HIT:          0  MISS:          0
cpu0_STLB TOTAL     ACCESS:    3999660  HIT:    3458697  MISS:     540963
cpu0_STLB LOAD      ACCESS:    3661106  HIT:    3124856  MISS:     536250
cpu0_STLB RFO       ACCESS:     338554  HIT:     333841  MISS:       4713
cpu0_STLB PREFETCH  ACCESS:          0  HIT:          0  MISS:          0
cpu0_STLB WRITEBACK ACCESS:          0  HIT:          0  MISS:          0
cpu0_L1D TOTAL     ACCESS:   13636665  HIT:    8555443  MISS:    5081222
cpu0_L1D LOAD      ACCESS:   10762725  HIT:    5904389  MISS:    4858336
cpu0_L1D RFO       ACCESS:    2334671  HIT:    2186026  MISS:     148645
cpu0_L1D PREFETCH  ACCESS:          0  HIT:          0  MISS:          0
cpu0_L1D WRITEBACK ACCESS:          0  HIT:          0  MISS:          0
cpu0_L2C TOTAL     ACCESS:    6227283  HIT:    2826656  MISS:    3400627
cpu0_L2C LOAD      ACCESS:    4858085  HIT:    1547925  MISS:    3310160
cpu0_L2C RFO       ACCESS:     148634  HIT:      74335  MISS:      74299
cpu0_L2C PREFETCH  ACCESS:          0  HIT:          0  MISS:          0
cpu0_L2C WRITEBACK ACCESS:    1146323  HIT:    1145949  MISS:        374
LLC TOTAL     ACCESS:    4157399  HIT:    1380677  MISS:    2776722
LLC LOAD      ACCESS:    3310155  HIT:     627792  MISS:    2682363
LLC RFO       ACCESS:      74299  HIT:      14424  MISS:      59875
LLC PREFETCH  ACCESS:          0  HIT:          0  MISS:          0
LLC WRITEBACK ACCESS:     757151  HIT:     725308  MISS:      31843
Heartbeat CPU 0 instructions: 102000004 cycles: 558687747 heartbeat IPC: 0.072849 cumulative IPC: 0.0957847 (Simulation time: 2 hr 54 min 59 sec) 

Region of Interest Statistics
cpu0_DTLB TOTAL     ACCESS:   11853761  HIT:    7714126  MISS:    4139635
cpu0_DTLB LOAD      ACCESS:   10039815  HIT:    6289693  MISS:    3750122
cpu0_DTLB RFO       ACCESS:    1813946  HIT:    1424433  MISS:     389513
cpu0_DTLB PREFETCH  ACCESS:          0  HIT:          0  MISS:          0
cpu0_DTLB WRITEBACK ACCESS:          0  HIT:          0  MISS:          0
cpu0_ITLB TOTAL     ACCESS:    6424329  HIT:    6424329  MISS:          0
cpu0_ITLB LOAD      ACCESS:    6424329  HIT:    6424329  MISS:          0
cpu0_ITLB RFO       ACCESS:          0  HIT:          0  MISS:          0
cpu0_ITLB PREFETCH  ACCESS:          0  HIT:          0  MISS:          0
cpu0_ITLB WRITEBACK ACCESS:          0  HIT:          0  MISS:          0
cpu0_L1I TOTAL     ACCESS:          1  HIT:          1  MISS:          0
cpu0_L1I LOAD      ACCESS:          1  HIT:          1  MISS:          0
cpu0_L1I RFO       ACCESS:          0  HIT:          0  MISS:          0
cpu0_L1I PREFETCH  ACCESS:          0  HIT:          0  MISS:          0
cpu0_L1I WRITEBACK ACCESS:          0  HIT:          0  MISS:          0
cpu0_STLB TOTAL     ACCESS:    4139635  HIT:    3596599  MISS:     543036
cpu0_STLB LOAD      ACCESS:    3750122  HIT:    3212255  MISS:     537867
cpu0_STLB RFO       ACCESS:     389513  HIT:     384344  MISS:       5169
cpu0_STLB PREFETCH  ACCESS:          0  HIT:          0  MISS:          0
cpu0_STLB WRITEBACK ACCESS:          0  HIT:          0  MISS:          0
cpu0_L1D TOTAL     ACCESS:   14187064  HIT:    8900370  MISS:    5286694
cpu0_L1D LOAD      ACCESS:   11184911  HIT:    6125260  MISS:    5059651
cpu0_L1D RFO       ACCESS:    2460876  HIT:    2308800  MISS:     152076
cpu0_L1D PREFETCH  ACCESS:          0  HIT:          0  MISS:          0
cpu0_L1D WRITEBACK ACCESS:          0  HIT:          0  MISS:          0
cpu0_L2C TOTAL     ACCESS:    6514040  HIT:    2959699  MISS:    3554341
cpu0_L2C LOAD      ACCESS:    5059392  HIT:    1596703  MISS:    3462689
cpu0_L2C RFO       ACCESS:     152065  HIT:      77105  MISS:      74960
cpu0_L2C PREFETCH  ACCESS:          0  HIT:          0  MISS:          0
cpu0_L2C WRITEBACK ACCESS:    1227616  HIT:    1227234  MISS:        382
LLC TOTAL     ACCESS:    4379460  HIT:    1472199  MISS:    2907261
LLC LOAD      ACCESS:    3462684  HIT:     658696  MISS:    2803988
LLC RFO       ACCESS:      74960  HIT:      14608  MISS:      60352
LLC PREFETCH  ACCESS:          0  HIT:          0  MISS:          0
LLC WRITEBACK ACCESS:     825506  HIT:     785463  MISS:      40043
Heartbeat CPU 0 instructions: 104000000 cycles: 584157446 heartbeat IPC: 0.0785245 cumulative IPC: 0.0950113 (Simulation time: 3 hr 0 min 28 sec) 

Region of Interest Statistics
cpu0_DTLB TOTAL     ACCESS:   12327355  HIT:    8034397  MISS:    4292958
cpu0_DTLB LOAD      ACCESS:   10441172  HIT:    6543861  MISS:    3897311
cpu0_DTLB RFO       ACCESS:    1886183  HIT:    1490536  MISS:     395647
cpu0_DTLB PREFETCH  ACCESS:          0  HIT:          0  MISS:          0
cpu0_DTLB WRITEBACK ACCESS:          0  HIT:          0  MISS:          0
cpu0_ITLB TOTAL     ACCESS:    6693626  HIT:    6693626  MISS:          0
cpu0_ITLB LOAD      ACCESS:    6693626  HIT:    6693626  MISS:          0
cpu0_ITLB RFO       ACCESS:          0  HIT:          0  MISS:          0
cpu0_ITLB PREFETCH  ACCESS:          0  HIT:          0  MISS:          0
cpu0_ITLB WRITEBACK ACCESS:          0  HIT:          0  MISS:          0
cpu0_L1I TOTAL     ACCESS:          1  HIT:          1  MISS:          0
cpu0_L1I LOAD      ACCESS:          1  HIT:          1  MISS:          0
cpu0_L1I RFO       ACCESS:          0  HIT:          0  MISS:          0
cpu0_L1I PREFETCH  ACCESS:          0  HIT:          0  MISS:          0
cpu0_L1I WRITEBACK ACCESS:          0  HIT:          0  MISS:          0
cpu0_STLB TOTAL     ACCESS:    4292958  HIT:    3714316  MISS:     578642
cpu0_STLB LOAD      ACCESS:    3897311  HIT:    3323934  MISS:     573377
cpu0_STLB RFO       ACCESS:     395647  HIT:     390382  MISS:       5265
cpu0_STLB PREFETCH  ACCESS:          0  HIT:          0  MISS:          0
cpu0_STLB WRITEBACK ACCESS:          0  HIT:          0  MISS:          0
cpu0_L1D TOTAL     ACCESS:   14739140  HIT:    9239319  MISS:    5499821
cpu0_L1D LOAD      ACCESS:   11610050  HIT:    6350025  MISS:    5260025
cpu0_L1D RFO       ACCESS:    2552228  HIT:    2391871  MISS:     160357
cpu0_L1D PREFETCH  ACCESS:          0  HIT:          0  MISS:          0
cpu0_L1D WRITEBACK ACCESS:          0  HIT:          0  MISS:          0
cpu0_L2C TOTAL     ACCESS:    6781467  HIT:    3065149  MISS:    3716318
cpu0_L2C LOAD      ACCESS:    5259762  HIT:    1640598  MISS:    3619164
cpu0_L2C RFO       ACCESS:     160345  HIT:      80548  MISS:      79797
cpu0_L2C PREFETCH  ACCESS:          0  HIT:          0  MISS:          0
cpu0_L2C WRITEBACK ACCESS:    1281921  HIT:    1281519  MISS:        402
LLC TOTAL     ACCESS:    4582783  HIT:    1536624  MISS:    3046159
LLC LOAD      ACCESS:    3619159  HIT:     681235  MISS:    2937924
LLC RFO       ACCESS:      79797  HIT:      15890  MISS:      63907
LLC PREFETCH  ACCESS:          0  HIT:          0  MISS:          0
LLC WRITEBACK ACCESS:     866872  HIT:     825514  MISS:      41358
Heartbeat CPU 0 instructions: 106000004 cycles: 600453631 heartbeat IPC: 0.122728 cumulative IPC: 0.0957838 (Simulation time: 3 hr 4 min 45 sec) 

Region of Interest Statistics
cpu0_DTLB TOTAL     ACCESS:   12774480  HIT:    8333449  MISS:    4441031
cpu0_DTLB LOAD      ACCESS:   10828929  HIT:    6796894  MISS:    4032035
cpu0_DTLB RFO       ACCESS:    1945551  HIT:    1536555  MISS:     408996
cpu0_DTLB PREFETCH  ACCESS:          0  HIT:          0  MISS:          0
cpu0_DTLB WRITEBACK ACCESS:          0  HIT:          0  MISS:          0
cpu0_ITLB TOTAL     ACCESS:    6926873  HIT:    6926873  MISS:          0
cpu0_ITLB LOAD      ACCESS:    6926873  HIT:    6926873  MISS:          0
cpu0_ITLB RFO       ACCESS:          0  HIT:          0  MISS:          0
cpu0_ITLB PREFETCH  ACCESS:          0  HIT:          0  MISS:          0
cpu0_ITLB WRITEBACK ACCESS:          0  HIT:          0  MISS:          0
cpu0_L1I TOTAL     ACCESS:          1  HIT:          1  MISS:          0
cpu0_L1I LOAD      ACCESS:          1  HIT:          1  MISS:          0
cpu0_L1I RFO       ACCESS:          0  HIT:          0  MISS:          0
cpu0_L1I PREFETCH  ACCESS:          0  HIT:          0  MISS:          0
cpu0_L1I WRITEBACK ACCESS:          0  HIT:          0  MISS:          0
cpu0_STLB TOTAL     ACCESS:    4441031  HIT:    3854125  MISS:     586906
cpu0_STLB LOAD      ACCESS:    4032035  HIT:    3450642  MISS:     581393
cpu0_STLB RFO       ACCESS:     408996  HIT:     403483  MISS:       5513
cpu0_STLB PREFETCH  ACCESS:          0  HIT:          0  MISS:          0
cpu0_STLB WRITEBACK ACCESS:          0  HIT:          0  MISS:          0
cpu0_L1D TOTAL     ACCESS:   15260289  HIT:    9584192  MISS:    5676097
cpu0_L1D LOAD      ACCESS:   12035234  HIT:    6606057  MISS:    5429177
cpu0_L1D RFO       ACCESS:    2640025  HIT:    2474042  MISS:     165983
cpu0_L1D PREFETCH  ACCESS:          0  HIT:          0  MISS:          0
cpu0_L1D WRITEBACK ACCESS:          0  HIT:          0  MISS:          0
cpu0_L2C TOTAL     ACCESS:    6990060  HIT:    3168185  MISS:    3821875
cpu0_L2C LOAD      ACCESS:    5428907  HIT:    1706052  MISS:    3722855
cpu0_L2C RFO       ACCESS:     165971  HIT:      84925  MISS:      81046
cpu0_L2C PREFETCH  ACCESS:          0  HIT:          0  MISS:          0
cpu0_L2C WRITEBACK ACCESS:    1314245  HIT:    1313814  MISS:        431
LLC TOTAL     ACCESS:    4704641  HIT:    1577556  MISS:    3127085
LLC LOAD      ACCESS:    3722850  HIT:     705603  MISS:    3017247
LLC RFO       ACCESS:      81046  HIT:      16171  MISS:      64875
LLC PREFETCH  ACCESS:          0  HIT:          0  MISS:          0
LLC WRITEBACK ACCESS:     883202  HIT:     841311  MISS:      41891
Heartbeat CPU 0 instructions: 108000000 cycles: 622032536 heartbeat IPC: 0.0926829 cumulative IPC: 0.0956734 (Simulation time: 3 hr 9 min 43 sec) 

Region of Interest Statistics
cpu0_DTLB TOTAL     ACCESS:   13239228  HIT:    8639362  MISS:    4599866
[...]
cpu0_DTLB PREFETCH  ACCESS:          0  HIT:          0  MISS:          0
cpu0_DTLB WRITEBACK ACCESS:          0  HIT:          0  MISS:          0
cpu0_DTLB TRANSLATION ACCESS:          0  HIT:          0  MISS:          0
cpu0_DTLB PREFETCH  REQUESTED:          0  ISSUED:          0  USEFUL:          0  USELESS:          0
cpu0_DTLB AVERAGE MISS LATENCY: 11.2328 cycles
cpu0_ITLB TOTAL     ACCESS:  185512312  HIT:  185512312  MISS:          0
cpu0_ITLB LOAD      ACCESS:  185512312  HIT:  185512312  MISS:          0
cpu0_ITLB RFO       ACCESS:          0  HIT:          0  MISS:          0
cpu0_ITLB PREFETCH  ACCESS:          0  HIT:          0  MISS:          0
cpu0_ITLB WRITEBACK ACCESS:          0  HIT:          0  MISS:          0
cpu0_ITLB TRANSLATION ACCESS:          0  HIT:          0  MISS:          0
cpu0_ITLB PREFETCH  REQUESTED:          0  ISSUED:          0  USEFUL:          0  USELESS:          0
cpu0_ITLB AVERAGE MISS LATENCY: -nan cycles
cpu0_L1I TOTAL     ACCESS:          2  HIT:          2  MISS:          0
cpu0_L1I LOAD      ACCESS:          2  HIT:          2  MISS:          0
cpu0_L1I RFO       ACCESS:          0  HIT:          0  MISS:          0
cpu0_L1I PREFETCH  ACCESS:          0  HIT:          0  MISS:          0
cpu0_L1I WRITEBACK ACCESS:          0  HIT:          0  MISS:          0
cpu0_L1I TRANSLATION ACCESS:          0  HIT:          0  MISS:          0
cpu0_L1I PREFETCH  REQUESTED:          0  ISSUED:          0  USEFUL:          0  USELESS:          0
cpu0_L1I AVERAGE MISS LATENCY: -nan cycles
cpu0_STLB TOTAL     ACCESS:  120229670  HIT:  103597914  MISS:   16631756
cpu0_STLB LOAD      ACCESS:  110984673  HIT:   94499952  MISS:   16484721
cpu0_STLB RFO       ACCESS:    9244997  HIT:    9097962  MISS:     147035
cpu0_STLB PREFETCH  ACCESS:          0  HIT:          0  MISS:          0
cpu0_STLB WRITEBACK ACCESS:          0  HIT:          0  MISS:          0
cpu0_STLB TRANSLATION ACCESS:          0  HIT:          0  MISS:          0
cpu0_STLB PREFETCH  REQUESTED:          0  ISSUED:          0  USEFUL:          0  USELESS:          0
cpu0_STLB AVERAGE MISS LATENCY: 16.0785 cycles
cpu0_L1D TOTAL     ACCESS:  405912456  HIT:  253053461  MISS:  152858995
cpu0_L1D LOAD      ACCESS:  320466194  HIT:  174266307  MISS:  146199887
cpu0_L1D RFO       ACCESS:   68864611  HIT:   64454705  MISS:    4409906
cpu0_L1D PREFETCH  ACCESS:          0  HIT:          0  MISS:          0
cpu0_L1D WRITEBACK ACCESS:          0  HIT:          0  MISS:          0
cpu0_L1D TRANSLATION ACCESS:   16581651  HIT:   14332449  MISS:    2249202
cpu0_L1D PREFETCH  REQUESTED:          0  ISSUED:          0  USEFUL:          0  USELESS:          0
cpu0_L1D AVERAGE MISS LATENCY: 235.979 cycles
cpu0_L2C TOTAL     ACCESS:  187121792  HIT:   81856901  MISS:  105264891
cpu0_L2C LOAD      ACCESS:  146193222  HIT:   43695992  MISS:  102497230
cpu0_L2C RFO       ACCESS:    4409625  HIT:    2145130  MISS:    2264495
cpu0_L2C PREFETCH  ACCESS:          0  HIT:          0  MISS:          0
cpu0_L2C WRITEBACK ACCESS:   34269743  HIT:   34253115  MISS:      16628
cpu0_L2C TRANSLATION ACCESS:    2249202  HIT:    1762664  MISS:     486538
cpu0_L2C PREFETCH  REQUESTED:          0  ISSUED:          0  USEFUL:          0  USELESS:          0
cpu0_L2C AVERAGE MISS LATENCY: 326.601 cycles
LLC TOTAL     ACCESS:  129348191  HIT:   43696426  MISS:   85651765
LLC LOAD      ACCESS:  102497131  HIT:   19745164  MISS:   82751967
LLC RFO       ACCESS:    2264494  HIT:     488155  MISS:    1776339
LLC PREFETCH  ACCESS:          0  HIT:          0  MISS:          0
LLC WRITEBACK ACCESS:   24100028  HIT:   23055828  MISS:    1044200
LLC TRANSLATION ACCESS:     486538  HIT:     407279  MISS:      79259
LLC PREFETCH  REQUESTED:          0  ISSUED:          0  USEFUL:          0  USELESS:          0
LLC AVERAGE MISS LATENCY: 375.584 cycles
~~~~~~~~~~Reuse Distance Profiler output~~~~~~~~~~
0	38303648	17443712
1	44142464	33451488
2	13170880	9887088
3	14581856	10783600
4	13155968	7175472
5	12874304	7240048
6	7673776	5054304
7	4396320	3082000
8	3904176	3075408
9	4406512	3888704
10	3532256	3123328
11	2636032	2281824
12	1613088	1367856
13	1281120	1091632
14	1092608	939424
15	1160096	1036736
16	1012976	895840
17	1050064	943536
18	1008096	910624
19	1031104	938416
20	875856	791056
21	886816	804448
22	880912	806208
23	883264	816400
24	714832	657584
25	690976	639440
26	659696	617472
27	685168	648208
28	593136	558192
29	582576	548816
30	559552	529664
31	579424	550496
32	496848	467920
33	501232	471984
34	464960	438592
35	473232	449120
36	383168	360880
37	374576	352208
38	365344	342864
39	387280	366080
40	327168	304928
41	338768	316784
42	327616	304528
43	352176	329168
44	302560	278976
45	297120	272992
46	292224	269984
47	306016	283136
48	264944	241792
49	278816	253456
50	273136	247168
51	289808	262992
52	254720	226608
53	267040	237920
54	266160	234720
55	284256	250864
56	251808	216112
57	261664	224080
58	263344	223344
59	266336	226480
60	249520	206320
61	253904	208848
62	252208	206032
63	261904	215888
64	493152	397248
66	503600	402528
68	496896	389136
70	497344	382160
72	480592	354048
74	502112	358176
76	498704	332080
78	523536	330192
80	552240	316192
82	581472	316656
84	584432	293648
86	577024	290928
88	529088	269632
90	491888	271936
92	432960	256704
94	383952	254224
96	333344	238464
98	309184	239328
100	278640	229872
102	264448	230192
104	249872	223728
106	244784	224112
108	236528	218640
110	228656	213328
112	228048	212992
114	224480	210784
116	216736	204144
118	220128	206912
120	220080	206080
122	216304	202320
124	215728	202416
126	216768	203456
128	422448	397680
132	407312	383616
136	387888	366752
140	355552	336880
144	337392	318880
148	318608	302256
152	294864	279440
156	290384	275200
160	279360	263744
164	272032	257120
168	273952	257936
172	259984	245104
176	253968	238880
180	251552	235760
184	248720	233344
188	243248	229552
192	239472	225808
196	225760	213168
200	221680	209264
204	214768	202560
208	210080	197536
212	207248	194512
216	200832	188976
220	194784	183232
224	191072	180480
228	189600	178320
232	185696	174608
236	185520	174768
240	183040	171968
244	183104	171952
248	181792	171072
252	178320	166752
256	351408	329968
264	345488	323280
272	346800	325520
280	340960	319680
288	339696	319728
296	337056	316704
304	336224	315232
312	331264	310016
320	328512	307808
328	327920	306400
336	329472	308384
344	324192	302976
352	323008	301680
360	321984	301456
368	321504	300816
376	321664	301104
384	321248	301152
392	319072	298896
400	313904	295120
408	317696	297728
416	321296	301744
424	321680	302464
432	322288	302848
440	325104	304768
448	337296	306400
456	360336	304288
464	338960	305904
472	324240	304720
480	328512	310544
488	329648	313232
496	332864	315776
504	331680	314336
512	666368	630480
528	655456	620928
544	642800	608928
560	636624	604496
576	635344	602704
592	622736	590112
608	613280	582608
624	599904	567552
640	582592	551856
656	560176	530144
672	533248	503936
688	506352	477104
704	486496	458208
720	454144	425744
736	428000	399136
752	400896	374080
768	376944	347328
784	354848	325248
800	325824	299008
816	301696	274272
832	282544	255648
848	271104	243184
864	259776	231056
880	247872	220464
896	240720	212992
912	233104	203968
928	228656	198960
944	221056	191728
960	212576	183552
976	210128	180608
992	201088	170960
1008	195984	166608
1024	386528	324656
1056	368768	308128
1088	362912	299936
1120	353264	290720
1152	348768	284848
1184	343760	278784
1216	338960	273616
1248	343808	269456
1280	363616	272960
1312	379232	280528
1344	408416	316624
1376	385200	303568
1408	436976	363328
1440	463328	397984
1472	438112	374800
1504	418160	360480
1536	406096	350640
1568	392688	337808
1600	383456	329776
1632	366976	316784
1664	357312	308512
1696	337840	290720
1728	306960	258608
1760	268768	220656
1792	221200	172864
1824	188416	136704
1856	168128	114560
1888	152720	101024
1920	143712	93408
1952	136960	85984
1984	127872	79280
2016	122144	75776
2048	228592	140560
2112	211344	129840
2176	193488	119760
2240	189664	115072
2304	179392	111056
2368	175456	109936
2432	182656	115280
2496	186192	122784
2560	204384	139760
2624	230112	164240
2688	269824	202144
2752	335760	268208
2816	434736	370976
2880	574800	514832
2944	747440	688320
3008	915696	859024
3072	1094608	1037184
3136	1250320	1196880
3200	1367184	1313712
3264	1436912	1384928
3328	1481520	1430960
3392	1476640	1428032
3456	1448608	1403296
3520	1416208	1371904
3584	1366896	1326304
3648	1310816	1271968
3712	1226496	1190880
3776	1124512	1090432
3840	1011984	981168
3904	893536	864432
3968	791344	765664
4032	711264	686528
4096	1188688	1146000
4224	944304	909200
4352	735200	705008
4480	566064	542816
4608	412128	392992
4736	305264	290560
4864	229936	217136
4992	168176	157472
5120	126944	117280
5248	103696	94944
5376	82000	74304
5504	72752	65696
5632	71744	64080
5760	81168	73648
5888	108896	102112
6016	165040	157808
6144	213488	206672
6272	266672	259632
6400	309744	302272
6528	341520	334752
6656	361584	355472
6784	354416	348144
6912	350352	344576
7040	333808	327760
7168	317392	311264
7296	295936	289920
7424	276816	270576
7552	246608	240992
7680	221424	216384
7808	202752	197120
7936	180032	174848
8064	160032	155280
8192	278208	269200
8448	227616	218384
8704	197168	188816
8960	193408	185376
9216	223552	215920
9472	268448	260448
9728	300368	293024
9984	318512	310448
10240	321520	314752
10496	302784	296048
10752	273776	266544
11008	247760	240912
11264	220352	213424
11520	200544	194400
11776	179728	173888
12032	177792	170832
12288	186416	180432
12544	202960	196320
12800	221360	215408
13056	235600	228448
13312	240752	234448
13568	235088	229024
13824	227392	222000
14080	210928	204976
14336	203824	198416
14592	180816	175504
14848	170160	164912
15104	164320	159184
15360	165952	160480
15616	158032	153008
15872	165872	160672
16128	170656	165616
16384	346352	335920
16896	337200	328016
17408	307792	298832
17920	278528	269552
18432	259904	251216
18944	262080	253136
19456	262016	253504
19968	273424	265088
20480	267904	258960
20992	253008	244976
21504	245040	236048
22016	233680	225264
22528	229184	221312
23040	225056	218016
23552	227216	220080
24064	219856	211792
24576	214528	207424
25088	221104	213456
25600	214880	207904
26112	216224	208928
26624	213616	206512
27136	212560	206048
27648	207536	200656
28160	202384	195712
28672	198096	191104
29184	198608	191968
29696	190496	183968
30208	186800	180240
30720	185936	180352
31232	177328	170784
31744	172128	166240
32256	168848	163600
32768	332752	321040
33792	331200	319616
34816	307792	297040
35840	300928	289776
36864	294704	285232
37888	287488	277744
38912	275104	265888
39936	273552	263904
40960	267120	257424
41984	258960	249792
43008	260352	252016
44032	250048	240752
45056	241472	233408
46080	240784	232256
47104	241984	233264
48128	230608	222416
49152	223232	214784
50176	225760	217760
51200	223376	214960
52224	236240	228336
53248	214816	206960
54272	216560	209280
55296	217104	209584
56320	211008	203584
57344	205328	198176
58368	202496	195824
59392	199248	192016
60416	195440	188496
61440	195472	188608
62464	189600	182784
63488	188496	181424
64512	181024	175056
65536	358752	345424
67584	362992	350496
69632	347248	334608
71680	327168	314224
73728	319888	307328
75776	320464	308624
77824	313136	301264
79872	302768	290896
81920	296384	286144
83968	303344	292624
86016	289424	277840
88064	278160	268224
90112	275696	265120
92160	267424	257440
94208	263392	253568
96256	257568	247680
98304	268624	259840
100352	253152	243808
102400	251376	242272
104448	252368	244032
106496	239952	231600
108544	244288	235616
110592	233984	226080
112640	238304	229344
114688	224976	216816
116736	225872	216608
118784	221952	214000
120832	216256	208224
122880	214784	206992
124928	212784	205088
126976	210064	202336
129024	208352	200064
131072	411568	395552
135168	413872	397968
139264	402928	386912
143360	389264	374336
147456	386864	371376
151552	386672	371776
155648	376432	362048
159744	362592	348688
163840	379056	364144
167936	385632	370800
172032	365264	350672
176128	358480	344688
180224	361280	346960
184320	347664	333744
188416	336736	324128
192512	333376	320656
196608	321232	309424
200704	323360	310976
204800	327360	314784
208896	319568	307488
212992	320800	308560
217088	317040	305024
221184	329488	317424
225280	324528	313792
229376	332672	321216
233472	349408	337952
237568	333584	323744
241664	314752	303488
245760	312976	303536
249856	306816	297664
253952	308688	300544
258048	303888	296080
262144	597728	583264
270336	639248	610288
278528	512736	499856
286720	501248	487440
294912	457136	444864
303104	427600	416576
311296	446320	434768
319488	445472	434352
327680	391312	380624
335872	444704	433824
344064	395296	384992
352256	377440	367712
360448	396304	386208
368640	363776	354192
376832	350272	341392
385024	341312	332768
393216	354128	344592
401408	334176	325264
409600	316592	307824
417792	306480	298224
425984	274880	266176
434176	290848	282304
442368	314048	305568
450560	280944	273760
458752	263360	256048
466944	259520	251840
475136	258128	251040
483328	246544	240176
491520	233760	227296
499712	232512	225856
507904	238976	232192
516096	230064	222912
524288	425520	412384
540672	382032	371360
557056	365696	354592
573440	381472	370608
589824	350512	340064
606208	359424	347840
622592	367680	356560
638976	364800	353472
655360	341280	330096
671744	348320	336416
688128	342560	331120
704512	325792	314656
720896	302928	290736
737280	314720	301712
753664	286416	273136
770048	297344	282864
786432	281568	267344
802816	288816	273104
819200	257760	241376
835584	241312	221744
851968	244032	221328
868352	325360	298048
884736	473984	443008
901120	1071056	1035552
917504	2269728	2228544
933888	1841248	1797168
950272	3851184	3803184
966656	3492800	3450832
983040	3083376	3047088
999424	3664384	3631648
1015808	2124880	2099152
1032192	2208816	2183808
1048576	3941904	3902736
1081344	3138624	3109552
1114112	2607696	2589824
1146880	1413568	1403488
1179648	873712	868112
1212416	762512	758528
1245184	417632	414944
1277952	519744	517600
1310720	281920	280896
1343488	158240	158032
1376256	95488	95328
1409024	48912	48752
1441792	91856	91728
1474560	18240	18240
1507328	6928	6928
1540096	9040	9024
1572864	3936	3936
1605632	4128	4128
1638400	32	32
1671168	48	16
1703936	0	0
1736704	16	16
1769472	48	16
1802240	32	0
1835008	0	0
1867776	0	0
1900544	0	0
1933312	0	0
1966080	16	16
1998848	0	0
2031616	0	0
2064384	0	0
2097152	32	16
2162688	16	0
2228224	0	0
2293760	0	0
2359296	0	0
2424832	16	0
2490368	16	0
2555904	0	0
2621440	0	0
2686976	16	0
2752512	0	0
2818048	0	0
2883584	32	0
2949120	0	0
3014656	16	16
3080192	32	0
3145728	0	0
3211264	0	0
3276800	0	0
3342336	0	0
3407872	0	0
3473408	0	0
3538944	0	0
3604480	0	0
3670016	16	0
3735552	0	0
3801088	16	0
3866624	16	16
3932160	0	0
3997696	16	0
4063232	16	0
4128768	0	0
4194304	0	0
4325376	32	32
4456448	32	16
4587520	0	0
4718592	0	0
4849664	16	0
4980736	16	16
5111808	16	16
5242880	0	0
5373952	0	0
5505024	0	0
5636096	0	0
5767168	0	0
5898240	0	0
6029312	0	0
6160384	32	0
6291456	0	0
6422528	0	0
6553600	0	0
6684672	16	0
6815744	32	16
6946816	0	0
7077888	0	0
7208960	32	16
7340032	0	0
7471104	0	0
7602176	0	0
7733248	0	0
7864320	16	16
7995392	16	16
8126464	0	0
8257536	16	16
8388608	0	0
8650752	32	16
8912896	0	0
9175040	0	0
9437184	48	16
9699328	0	0
9961472	0	0
10223616	0	0
10485760	16	0
10747904	0	0
11010048	16	0
11272192	16	16
11534336	16	0
11796480	16	16
12058624	0	0
12320768	16	0
12582912	16	16
12845056	48	48
13107200	16	0
13369344	0	0
13631488	0	0
13893632	32	32
14155776	0	0
14417920	16	16
14680064	0	0
14942208	32	32
15204352	0	0
15466496	16	16
15728640	48	32
15990784	16	0
16252928	0	0
16515072	0	0
16777216	32	0
17301504	16	16
17825792	32	32
18350080	0	0
18874368	16	16
19398656	32	32
19922944	32	32
20447232	16	0
20971520	0	0
21495808	0	0
22020096	16	16
22544384	32	32
23068672	16	16
23592960	0	0
24117248	0	0
24641536	16	16
25165824	16	16
25690112	16	16
26214400	32	32
26738688	0	0
27262976	0	0
27787264	0	0
28311552	16	16
28835840	0	0
29360128	0	0
29884416	32	32
30408704	0	0
30932992	0	0
31457280	0	0
31981568	0	0
32505856	48	48
33030144	16	16
33554432	0	0
34603008	0	0
35651584	32	16
36700160	16	16
37748736	32	32
38797312	16	16
39845888	32	32
40894464	16	16
41943040	16	16
42991616	16	16
44040192	32	32
45088768	16	16
46137344	0	0
47185920	16	16
48234496	16	16
49283072	0	0
50331648	32	32
51380224	32	32
52428800	32	32
53477376	64	64
54525952	80	80
55574528	16	16
56623104	32	32
57671680	32	16
58720256	16	16
59768832	16	16
60817408	0	0
61865984	32	32
62914560	32	32
63963136	32	32
65011712	0	0
66060288	32	32
67108864	32	32
69206016	16	16
71303168	64	64
73400320	0	0
75497472	32	32
77594624	16	16
79691776	128	128
81788928	64	64
83886080	128	128
85983232	32	32
88080384	80	80
90177536	48	48
92274688	48	48
94371840	48	48
96468992	0	0
98566144	48	48
100663296	32	32
102760448	48	48
104857600	48	48
106954752	48	48
109051904	80	80
111149056	48	48
113246208	32	32
115343360	48	48
117440512	64	64
119537664	64	64
121634816	32	32
123731968	48	48
125829120	48	48
127926272	0	0
130023424	0	0
132120576	48	32
134217728	176	176
138412032	64	64
142606336	32	32
146800640	80	80
150994944	160	160
155189248	96	96
159383552	80	80
163577856	176	176
167772160	80	80
171966464	144	144
176160768	96	96
180355072	0	0
184549376	64	64
188743680	80	80
192937984	112	96
197132288	48	48
201326592	96	96
205520896	96	96
209715200	128	128
213909504	144	144
218103808	192	192
222298112	144	144
226492416	128	128
230686720	192	192
234881024	80	80
239075328	160	160
243269632	64	64
247463936	144	144
251658240	160	160
255852544	112	112
260046848	96	96
264241152	160	160
268435456	304	304
276824064	464	464
285212672	304	304
293601280	256	256
301989888	144	144
310378496	208	208
318767104	288	288
327155712	208	208
335544320	144	144
343932928	80	80
352321536	160	160
360710144	112	112
369098752	96	96
377487360	48	48
385875968	192	192
394264576	48	48
402653184	0	0
411041792	0	0
419430400	0	0
427819008	0	0
436207616	0	0
444596224	0	0
452984832	0	0
461373440	0	0
469762048	0	0
478150656	0	0
486539264	0	0
494927872	0	0
503316480	0	0
511705088	0	0
520093696	0	0
528482304	0	0
536870912	0	0
553648128	0	0
570425344	0	0
587202560	0	0
603979776	0	0
620756992	0	0
637534208	0	0
654311424	0	0
671088640	0	0
687865856	0	0
704643072	0	0
721420288	0	0
738197504	0	0
754974720	0	0
771751936	0	0
788529152	0	0
805306368	0	0
822083584	0	0
838860800	0	0
855638016	0	0
872415232	0	0
889192448	0	0
905969664	0	0
922746880	0	0
939524096	0	0
956301312	0	0
973078528	0	0
989855744	0	0
1006632960	0	0
1023410176	0	0
1040187392	0	0
1056964608	0	0
1073741824	0	0
1107296256	0	0
1140850688	0	0
1174405120	0	0
1207959552	0	0
1241513984	0	0
1275068416	0	0
1308622848	0	0
1342177280	0	0
1375731712	0	0
1409286144	0	0
1442840576	0	0
1476395008	0	0
1509949440	0	0
1543503872	0	0
1577058304	0	0
1610612736	0	0
1644167168	0	0
1677721600	0	0
1711276032	0	0
1744830464	0	0
1778384896	0	0
1811939328	0	0
1845493760	0	0
1879048192	0	0
1912602624	0	0
1946157056	0	0
1979711488	0	0
2013265920	0	0
2046820352	0	0
2080374784	0	0
2113929216	0	0
2147483648	0	0
2214592512	0	0
2281701376	0	0
2348810240	0	0
2415919104	0	0
2483027968	0	0
2550136832	0	0
2617245696	0	0
2684354560	0	0
2751463424	0	0
2818572288	0	0
2885681152	0	0
2952790016	0	0
3019898880	0	0
3087007744	0	0
3154116608	0	0
3221225472	0	0
3288334336	0	0
3355443200	0	0
3422552064	0	0
3489660928	0	0
3556769792	0	0
3623878656	0	0
3690987520	0	0
3758096384	0	0
3825205248	0	0
3892314112	0	0
3959422976	0	0
4026531840	0	0
4093640704	0	0
4160749568	0	0
4227858432	0	0
~~~~~~~~~~Reuse Distance Profiler output end~~~~~~~~~~

Sampler size:1441191

DRAM Statistics
 CHANNEL 0
 RQ ROW_BUFFER_HIT:     118509  ROW_BUFFER_MISS:   84473136
 DBUS AVG_CONGESTED_CYCLE:    3.97638
 WQ ROW_BUFFER_HIT:     509408  ROW_BUFFER_MISS:   21600152  FULL:          0


CPU 0 Branch Prediction Accuracy: 84.326% MPKI: 37.601 Average ROB Occupancy at Mispredict: 17.4089
Branch type MPKI
BRANCH_DIRECT_JUMP: 1.33333e-06
BRANCH_INDIRECT: 0
BRANCH_CONDITIONAL: 37.601
BRANCH_DIRECT_CALL: 0
BRANCH_INDIRECT_CALL: 0
BRANCH_RETURN: 0

