
*** ChampSim Multicore Out-of-Order Simulator ***

Warmup Instructions: 50000000
Simulation Instructions: 1500000000
Number of CPUs: 1
Off-chip DRAM Size: 4 GiB Channels: 1 Width: 64-bit Data Rate: 3200 MT/s

VirtualMemory physical capacity: 8588881920 num_ppages: 2096895
VirtualMemory page size: 4096 log2_page_size: 12

CPU 0 runs /s/traces/champsim_traces/436.cactusADM-1804B.champsimtrace.xz
CPU 0 Bimodal branch predictor
Basic BTB sets: 1024 ways: 8 indirect buffer size: 4096 RAS size: 64
Initializing LRU.
Initializing LRU.
Initializing LRU.
Initializing LRU.
Initializing rdLRU.
Initializing LRU.
Heartbeat CPU 0 instructions: 2000003 cycles: 822287 heartbeat IPC: 2.43224 cumulative IPC: 2.43224 (Simulation time: 0 hr 1 min 28 sec) 
Heartbeat CPU 0 instructions: 4000000 cycles: 1644418 heartbeat IPC: 2.4327 cumulative IPC: 2.43247 (Simulation time: 0 hr 3 min 4 sec) 
Heartbeat CPU 0 instructions: 6000001 cycles: 2466505 heartbeat IPC: 2.43283 cumulative IPC: 2.43259 (Simulation time: 0 hr 4 min 37 sec) 
Heartbeat CPU 0 instructions: 8000004 cycles: 3288746 heartbeat IPC: 2.43238 cumulative IPC: 2.43254 (Simulation time: 0 hr 6 min 12 sec) 
Heartbeat CPU 0 instructions: 10000001 cycles: 4110876 heartbeat IPC: 2.4327 cumulative IPC: 2.43257 (Simulation time: 0 hr 7 min 44 sec) 
Heartbeat CPU 0 instructions: 12000003 cycles: 4932971 heartbeat IPC: 2.43281 cumulative IPC: 2.43261 (Simulation time: 0 hr 9 min 17 sec) 
Heartbeat CPU 0 instructions: 14000001 cycles: 5755140 heartbeat IPC: 2.43259 cumulative IPC: 2.43261 (Simulation time: 0 hr 10 min 52 sec) 
Heartbeat CPU 0 instructions: 16000003 cycles: 6577223 heartbeat IPC: 2.43285 cumulative IPC: 2.43264 (Simulation time: 0 hr 12 min 26 sec) 
Heartbeat CPU 0 instructions: 18000001 cycles: 7369248 heartbeat IPC: 2.52517 cumulative IPC: 2.44258 (Simulation time: 0 hr 13 min 56 sec) 
Heartbeat CPU 0 instructions: 20000004 cycles: 8143521 heartbeat IPC: 2.58307 cumulative IPC: 2.45594 (Simulation time: 0 hr 15 min 25 sec) 
Heartbeat CPU 0 instructions: 22000001 cycles: 8966031 heartbeat IPC: 2.43158 cumulative IPC: 2.45371 (Simulation time: 0 hr 16 min 56 sec) 
Heartbeat CPU 0 instructions: 24000000 cycles: 9788603 heartbeat IPC: 2.4314 cumulative IPC: 2.45183 (Simulation time: 0 hr 18 min 27 sec) 
Heartbeat CPU 0 instructions: 26000004 cycles: 10611077 heartbeat IPC: 2.43169 cumulative IPC: 2.45027 (Simulation time: 0 hr 20 min 1 sec) 
Heartbeat CPU 0 instructions: 28000002 cycles: 11433517 heartbeat IPC: 2.43179 cumulative IPC: 2.44894 (Simulation time: 0 hr 21 min 39 sec) 
Heartbeat CPU 0 instructions: 30000002 cycles: 12255949 heartbeat IPC: 2.43181 cumulative IPC: 2.44779 (Simulation time: 0 hr 23 min 14 sec) 
Heartbeat CPU 0 instructions: 32000004 cycles: 13078398 heartbeat IPC: 2.43176 cumulative IPC: 2.44678 (Simulation time: 0 hr 24 min 48 sec) 
Heartbeat CPU 0 instructions: 34000000 cycles: 13900901 heartbeat IPC: 2.4316 cumulative IPC: 2.44588 (Simulation time: 0 hr 26 min 23 sec) 
Heartbeat CPU 0 instructions: 36000001 cycles: 14723398 heartbeat IPC: 2.43162 cumulative IPC: 2.44509 (Simulation time: 0 hr 27 min 57 sec) 
Heartbeat CPU 0 instructions: 38000004 cycles: 15545946 heartbeat IPC: 2.43147 cumulative IPC: 2.44437 (Simulation time: 0 hr 29 min 29 sec) 
Heartbeat CPU 0 instructions: 40000003 cycles: 16368459 heartbeat IPC: 2.43157 cumulative IPC: 2.44372 (Simulation time: 0 hr 31 min 2 sec) 
Heartbeat CPU 0 instructions: 42000002 cycles: 17112398 heartbeat IPC: 2.68839 cumulative IPC: 2.45436 (Simulation time: 0 hr 32 min 23 sec) 
Heartbeat CPU 0 instructions: 44000002 cycles: 17934677 heartbeat IPC: 2.43226 cumulative IPC: 2.45335 (Simulation time: 0 hr 33 min 54 sec) 
Heartbeat CPU 0 instructions: 46000002 cycles: 18756905 heartbeat IPC: 2.43242 cumulative IPC: 2.45243 (Simulation time: 0 hr 35 min 24 sec) 
Heartbeat CPU 0 instructions: 48000003 cycles: 19579048 heartbeat IPC: 2.43267 cumulative IPC: 2.4516 (Simulation time: 0 hr 36 min 54 sec) 
Heartbeat CPU 0 instructions: 50000000 cycles: 20401280 heartbeat IPC: 2.4324 cumulative IPC: 2.45083 (Simulation time: 0 hr 38 min 25 sec) 

Warmup complete CPU 0 instructions: 50000003 cycles: 20401281 (Simulation time: 0 hr 38 min 25 sec) 

Heartbeat CPU 0 instructions: 52000001 cycles: 21767601 heartbeat IPC: 1.46379 cumulative IPC: 1.46378 (Simulation time: 0 hr 40 min 23 sec) 

Region of Interest Statistics
cpu0_DTLB TOTAL     ACCESS:     555506  HIT:     519495  MISS:      36011
cpu0_DTLB LOAD      ACCESS:     437326  HIT:     409666  MISS:      27660
cpu0_DTLB RFO       ACCESS:     118180  HIT:     109829  MISS:       8351
cpu0_DTLB PREFETCH  ACCESS:          0  HIT:          0  MISS:          0
cpu0_DTLB WRITEBACK ACCESS:          0  HIT:          0  MISS:          0
cpu0_ITLB TOTAL     ACCESS:      28807  HIT:      28807  MISS:          0
cpu0_ITLB LOAD      ACCESS:      28807  HIT:      28807  MISS:          0
cpu0_ITLB RFO       ACCESS:          0  HIT:          0  MISS:          0
cpu0_ITLB PREFETCH  ACCESS:          0  HIT:          0  MISS:          0
cpu0_ITLB WRITEBACK ACCESS:          0  HIT:          0  MISS:          0
cpu0_L1I TOTAL     ACCESS:     193430  HIT:     193430  MISS:          0
cpu0_L1I LOAD      ACCESS:     193430  HIT:     193430  MISS:          0
cpu0_L1I RFO       ACCESS:          0  HIT:          0  MISS:          0
cpu0_L1I PREFETCH  ACCESS:          0  HIT:          0  MISS:          0
cpu0_L1I WRITEBACK ACCESS:          0  HIT:          0  MISS:          0
cpu0_STLB TOTAL     ACCESS:      36011  HIT:      22805  MISS:      13206
cpu0_STLB LOAD      ACCESS:      27660  HIT:      19886  MISS:       7774
cpu0_STLB RFO       ACCESS:       8351  HIT:       2919  MISS:       5432
cpu0_STLB PREFETCH  ACCESS:          0  HIT:          0  MISS:          0
cpu0_STLB WRITEBACK ACCESS:          0  HIT:          0  MISS:          0
cpu0_L1D TOTAL     ACCESS:     878426  HIT:     866804  MISS:      11622
cpu0_L1D LOAD      ACCESS:     578833  HIT:     568279  MISS:      10554
cpu0_L1D RFO       ACCESS:     286387  HIT:     285391  MISS:        996
cpu0_L1D PREFETCH  ACCESS:          0  HIT:          0  MISS:          0
cpu0_L1D WRITEBACK ACCESS:          0  HIT:          0  MISS:          0
cpu0_L2C TOTAL     ACCESS:      12737  HIT:       6260  MISS:       6477
cpu0_L2C LOAD      ACCESS:      10554  HIT:       5073  MISS:       5481
cpu0_L2C RFO       ACCESS:        996  HIT:          0  MISS:        996
cpu0_L2C PREFETCH  ACCESS:          0  HIT:          0  MISS:          0
cpu0_L2C WRITEBACK ACCESS:       1115  HIT:       1115  MISS:          0
LLC TOTAL     ACCESS:       7169  HIT:       4131  MISS:       3038
LLC LOAD      ACCESS:       5481  HIT:       3439  MISS:       2042
LLC RFO       ACCESS:        996  HIT:          0  MISS:        996
LLC PREFETCH  ACCESS:          0  HIT:          0  MISS:          0
LLC WRITEBACK ACCESS:        692  HIT:        692  MISS:          0
Heartbeat CPU 0 instructions: 54000001 cycles: 23120153 heartbeat IPC: 1.47869 cumulative IPC: 1.4712 (Simulation time: 0 hr 42 min 17 sec) 

Region of Interest Statistics
cpu0_DTLB TOTAL     ACCESS:    1108281  HIT:    1038689  MISS:      69592
cpu0_DTLB LOAD      ACCESS:     871706  HIT:     818241  MISS:      53465
cpu0_DTLB RFO       ACCESS:     236575  HIT:     220448  MISS:      16127
cpu0_DTLB PREFETCH  ACCESS:          0  HIT:          0  MISS:          0
cpu0_DTLB WRITEBACK ACCESS:          0  HIT:          0  MISS:          0
cpu0_ITLB TOTAL     ACCESS:      57605  HIT:      57605  MISS:          0
cpu0_ITLB LOAD      ACCESS:      57605  HIT:      57605  MISS:          0
cpu0_ITLB RFO       ACCESS:          0  HIT:          0  MISS:          0
cpu0_ITLB PREFETCH  ACCESS:          0  HIT:          0  MISS:          0
cpu0_ITLB WRITEBACK ACCESS:          0  HIT:          0  MISS:          0
cpu0_L1I TOTAL     ACCESS:     386540  HIT:     386540  MISS:          0
cpu0_L1I LOAD      ACCESS:     386540  HIT:     386540  MISS:          0
cpu0_L1I RFO       ACCESS:          0  HIT:          0  MISS:          0
cpu0_L1I PREFETCH  ACCESS:          0  HIT:          0  MISS:          0
cpu0_L1I WRITEBACK ACCESS:          0  HIT:          0  MISS:          0
cpu0_STLB TOTAL     ACCESS:      69592  HIT:      41033  MISS:      28559
cpu0_STLB LOAD      ACCESS:      53465  HIT:      36510  MISS:      16955
cpu0_STLB RFO       ACCESS:      16127  HIT:       4523  MISS:      11604
cpu0_STLB PREFETCH  ACCESS:          0  HIT:          0  MISS:          0
cpu0_STLB WRITEBACK ACCESS:          0  HIT:          0  MISS:          0
cpu0_L1D TOTAL     ACCESS:    1756904  HIT:    1733669  MISS:      23235
cpu0_L1D LOAD      ACCESS:    1155497  HIT:    1134394  MISS:      21103
cpu0_L1D RFO       ACCESS:     572848  HIT:     570856  MISS:       1992
cpu0_L1D PREFETCH  ACCESS:          0  HIT:          0  MISS:          0
cpu0_L1D WRITEBACK ACCESS:          0  HIT:          0  MISS:          0
cpu0_L2C TOTAL     ACCESS:      25461  HIT:      12510  MISS:      12951
cpu0_L2C LOAD      ACCESS:      21103  HIT:      10144  MISS:      10959
cpu0_L2C RFO       ACCESS:       1992  HIT:          0  MISS:       1992
cpu0_L2C PREFETCH  ACCESS:          0  HIT:          0  MISS:          0
cpu0_L2C WRITEBACK ACCESS:       2226  HIT:       2226  MISS:          0
LLC TOTAL     ACCESS:      14810  HIT:       8684  MISS:       6126
LLC LOAD      ACCESS:      10959  HIT:       6825  MISS:       4134
LLC RFO       ACCESS:       1992  HIT:          0  MISS:       1992
LLC PREFETCH  ACCESS:          0  HIT:          0  MISS:          0
LLC WRITEBACK ACCESS:       1859  HIT:       1859  MISS:          0
Heartbeat CPU 0 instructions: 56000004 cycles: 24492309 heartbeat IPC: 1.45756 cumulative IPC: 1.46662 (Simulation time: 0 hr 44 min 16 sec) 

Region of Interest Statistics
cpu0_DTLB TOTAL     ACCESS:    1663647  HIT:    1561287  MISS:     102360
cpu0_DTLB LOAD      ACCESS:    1308385  HIT:    1229893  MISS:      78492
cpu0_DTLB RFO       ACCESS:     355262  HIT:     331394  MISS:      23868
cpu0_DTLB PREFETCH  ACCESS:          0  HIT:          0  MISS:          0
cpu0_DTLB WRITEBACK ACCESS:          0  HIT:          0  MISS:          0
cpu0_ITLB TOTAL     ACCESS:      86445  HIT:      86445  MISS:          0
cpu0_ITLB LOAD      ACCESS:      86445  HIT:      86445  MISS:          0
cpu0_ITLB RFO       ACCESS:          0  HIT:          0  MISS:          0
cpu0_ITLB PREFETCH  ACCESS:          0  HIT:          0  MISS:          0
cpu0_ITLB WRITEBACK ACCESS:          0  HIT:          0  MISS:          0
cpu0_L1I TOTAL     ACCESS:     580189  HIT:     580189  MISS:          0
cpu0_L1I LOAD      ACCESS:     580189  HIT:     580189  MISS:          0
cpu0_L1I RFO       ACCESS:          0  HIT:          0  MISS:          0
cpu0_L1I PREFETCH  ACCESS:          0  HIT:          0  MISS:          0
cpu0_L1I WRITEBACK ACCESS:          0  HIT:          0  MISS:          0
cpu0_STLB TOTAL     ACCESS:     102360  HIT:      60847  MISS:      41513
cpu0_STLB LOAD      ACCESS:      78492  HIT:      53977  MISS:      24515
cpu0_STLB RFO       ACCESS:      23868  HIT:       6870  MISS:      16998
cpu0_STLB PREFETCH  ACCESS:          0  HIT:          0  MISS:          0
cpu0_STLB WRITEBACK ACCESS:          0  HIT:          0  MISS:          0
cpu0_L1D TOTAL     ACCESS:    2634972  HIT:    2600146  MISS:      34826
cpu0_L1D LOAD      ACCESS:    1734283  HIT:    1702661  MISS:      31622
cpu0_L1D RFO       ACCESS:     859176  HIT:     856188  MISS:       2988
cpu0_L1D PREFETCH  ACCESS:          0  HIT:          0  MISS:          0
cpu0_L1D WRITEBACK ACCESS:          0  HIT:          0  MISS:          0
cpu0_L2C TOTAL     ACCESS:      38167  HIT:      18740  MISS:      19427
cpu0_L2C LOAD      ACCESS:      31622  HIT:      15183  MISS:      16439
cpu0_L2C RFO       ACCESS:       2988  HIT:          0  MISS:       2988
cpu0_L2C PREFETCH  ACCESS:          0  HIT:          0  MISS:          0
cpu0_L2C WRITEBACK ACCESS:       3341  HIT:       3341  MISS:          0
LLC TOTAL     ACCESS:      22320  HIT:      13062  MISS:       9258
LLC LOAD      ACCESS:      16439  HIT:      10169  MISS:       6270
LLC RFO       ACCESS:       2988  HIT:          0  MISS:       2988
LLC PREFETCH  ACCESS:          0  HIT:          0  MISS:          0
LLC WRITEBACK ACCESS:       2893  HIT:       2893  MISS:          0
Heartbeat CPU 0 instructions: 58000000 cycles: 25840268 heartbeat IPC: 1.48372 cumulative IPC: 1.47086 (Simulation time: 0 hr 46 min 35 sec) 

Region of Interest Statistics
cpu0_DTLB TOTAL     ACCESS:    2217534  HIT:    2080964  MISS:     136570
cpu0_DTLB LOAD      ACCESS:    1743835  HIT:    1638876  MISS:     104959
cpu0_DTLB RFO       ACCESS:     473699  HIT:     442088  MISS:      31611
cpu0_DTLB PREFETCH  ACCESS:          0  HIT:          0  MISS:          0
cpu0_DTLB WRITEBACK ACCESS:          0  HIT:          0  MISS:          0
cpu0_ITLB TOTAL     ACCESS:     115245  HIT:     115245  MISS:          0
cpu0_ITLB LOAD      ACCESS:     115245  HIT:     115245  MISS:          0
cpu0_ITLB RFO       ACCESS:          0  HIT:          0  MISS:          0
cpu0_ITLB PREFETCH  ACCESS:          0  HIT:          0  MISS:          0
cpu0_ITLB WRITEBACK ACCESS:          0  HIT:          0  MISS:          0
cpu0_L1I TOTAL     ACCESS:     773408  HIT:     773408  MISS:          0
cpu0_L1I LOAD      ACCESS:     773408  HIT:     773408  MISS:          0
cpu0_L1I RFO       ACCESS:          0  HIT:          0  MISS:          0
cpu0_L1I PREFETCH  ACCESS:          0  HIT:          0  MISS:          0
cpu0_L1I WRITEBACK ACCESS:          0  HIT:          0  MISS:          0
cpu0_STLB TOTAL     ACCESS:     136570  HIT:      80304  MISS:      56266
cpu0_STLB LOAD      ACCESS:     104959  HIT:      71661  MISS:      33298
cpu0_STLB RFO       ACCESS:      31611  HIT:       8643  MISS:      22968
cpu0_STLB PREFETCH  ACCESS:          0  HIT:          0  MISS:          0
cpu0_STLB WRITEBACK ACCESS:          0  HIT:          0  MISS:          0
cpu0_L1D TOTAL     ACCESS:    3514457  HIT:    3468004  MISS:      46453
cpu0_L1D LOAD      ACCESS:    2312573  HIT:    2270376  MISS:      42197
cpu0_L1D RFO       ACCESS:    1145618  HIT:    1141634  MISS:       3984
cpu0_L1D PREFETCH  ACCESS:          0  HIT:          0  MISS:          0
cpu0_L1D WRITEBACK ACCESS:          0  HIT:          0  MISS:          0
cpu0_L2C TOTAL     ACCESS:      50903  HIT:      25000  MISS:      25903
cpu0_L2C LOAD      ACCESS:      42197  HIT:      20278  MISS:      21919
cpu0_L2C RFO       ACCESS:       3984  HIT:          0  MISS:       3984
cpu0_L2C PREFETCH  ACCESS:          0  HIT:          0  MISS:          0
cpu0_L2C WRITEBACK ACCESS:       4450  HIT:       4450  MISS:          0
LLC TOTAL     ACCESS:      29797  HIT:      17507  MISS:      12290
LLC LOAD      ACCESS:      21919  HIT:      13613  MISS:       8306
LLC RFO       ACCESS:       3984  HIT:          0  MISS:       3984
LLC PREFETCH  ACCESS:          0  HIT:          0  MISS:          0
LLC WRITEBACK ACCESS:       3894  HIT:       3894  MISS:          0
Heartbeat CPU 0 instructions: 60000002 cycles: 27193550 heartbeat IPC: 1.47789 cumulative IPC: 1.47226 (Simulation time: 0 hr 48 min 29 sec) 

Region of Interest Statistics
cpu0_DTLB TOTAL     ACCESS:    2771586  HIT:    2601947  MISS:     169639
cpu0_DTLB LOAD      ACCESS:    2179227  HIT:    2048971  MISS:     130256
cpu0_DTLB RFO       ACCESS:     592359  HIT:     552976  MISS:      39383
cpu0_DTLB PREFETCH  ACCESS:          0  HIT:          0  MISS:          0
cpu0_DTLB WRITEBACK ACCESS:          0  HIT:          0  MISS:          0
cpu0_ITLB TOTAL     ACCESS:     144067  HIT:     144067  MISS:          0
cpu0_ITLB LOAD      ACCESS:     144067  HIT:     144067  MISS:          0
cpu0_ITLB RFO       ACCESS:          0  HIT:          0  MISS:          0
cpu0_ITLB PREFETCH  ACCESS:          0  HIT:          0  MISS:          0
cpu0_ITLB WRITEBACK ACCESS:          0  HIT:          0  MISS:          0
cpu0_L1I TOTAL     ACCESS:     966618  HIT:     966618  MISS:          0
cpu0_L1I LOAD      ACCESS:     966618  HIT:     966618  MISS:          0
cpu0_L1I RFO       ACCESS:          0  HIT:          0  MISS:          0
cpu0_L1I PREFETCH  ACCESS:          0  HIT:          0  MISS:          0
cpu0_L1I WRITEBACK ACCESS:          0  HIT:          0  MISS:          0
cpu0_STLB TOTAL     ACCESS:     169639  HIT:      99584  MISS:      70055
cpu0_STLB LOAD      ACCESS:     130256  HIT:      88800  MISS:      41456
cpu0_STLB RFO       ACCESS:      39383  HIT:      10784  MISS:      28599
cpu0_STLB PREFETCH  ACCESS:          0  HIT:          0  MISS:          0
cpu0_STLB WRITEBACK ACCESS:          0  HIT:          0  MISS:          0
cpu0_L1D TOTAL     ACCESS:    4392695  HIT:    4334650  MISS:      58045
cpu0_L1D LOAD      ACCESS:    2890563  HIT:    2837847  MISS:      52716
cpu0_L1D RFO       ACCESS:    1432077  HIT:    1427097  MISS:       4980
cpu0_L1D PREFETCH  ACCESS:          0  HIT:          0  MISS:          0
cpu0_L1D WRITEBACK ACCESS:          0  HIT:          0  MISS:          0
cpu0_L2C TOTAL     ACCESS:      63615  HIT:      31238  MISS:      32377
cpu0_L2C LOAD      ACCESS:      52716  HIT:      25319  MISS:      27397
cpu0_L2C RFO       ACCESS:       4980  HIT:          0  MISS:       4980
cpu0_L2C PREFETCH  ACCESS:          0  HIT:          0  MISS:          0
cpu0_L2C WRITEBACK ACCESS:       5570  HIT:       5570  MISS:          0
LLC TOTAL     ACCESS:      37253  HIT:      21932  MISS:      15321
LLC LOAD      ACCESS:      27397  HIT:      17056  MISS:      10341
LLC RFO       ACCESS:       4980  HIT:          0  MISS:       4980
LLC PREFETCH  ACCESS:          0  HIT:          0  MISS:          0
LLC WRITEBACK ACCESS:       4876  HIT:       4876  MISS:          0
Heartbeat CPU 0 instructions: 62000004 cycles: 28548334 heartbeat IPC: 1.47625 cumulative IPC: 1.47293 (Simulation time: 0 hr 50 min 22 sec) 

Region of Interest Statistics
cpu0_DTLB TOTAL     ACCESS:    3324994  HIT:    3120870  MISS:     204124
cpu0_DTLB LOAD      ACCESS:    2614392  HIT:    2458043  MISS:     156349
cpu0_DTLB RFO       ACCESS:     710602  HIT:     662827  MISS:      47775
cpu0_DTLB PREFETCH  ACCESS:          0  HIT:          0  MISS:          0
cpu0_DTLB WRITEBACK ACCESS:          0  HIT:          0  MISS:          0
cpu0_ITLB TOTAL     ACCESS:     172876  HIT:     172876  MISS:          0
cpu0_ITLB LOAD      ACCESS:     172876  HIT:     172876  MISS:          0
cpu0_ITLB RFO       ACCESS:          0  HIT:          0  MISS:          0
cpu0_ITLB PREFETCH  ACCESS:          0  HIT:          0  MISS:          0
cpu0_ITLB WRITEBACK ACCESS:          0  HIT:          0  MISS:          0
cpu0_L1I TOTAL     ACCESS:    1159911  HIT:    1159911  MISS:          0
cpu0_L1I LOAD      ACCESS:    1159911  HIT:    1159911  MISS:          0
cpu0_L1I RFO       ACCESS:          0  HIT:          0  MISS:          0
cpu0_L1I PREFETCH  ACCESS:          0  HIT:          0  MISS:          0
cpu0_L1I WRITEBACK ACCESS:          0  HIT:          0  MISS:          0
cpu0_STLB TOTAL     ACCESS:     204124  HIT:     120717  MISS:      83407
cpu0_STLB LOAD      ACCESS:     156349  HIT:     106989  MISS:      49360
cpu0_STLB RFO       ACCESS:      47775  HIT:      13728  MISS:      34047
cpu0_STLB PREFETCH  ACCESS:          0  HIT:          0  MISS:          0
cpu0_STLB WRITEBACK ACCESS:          0  HIT:          0  MISS:          0
cpu0_L1D TOTAL     ACCESS:    5270149  HIT:    5200488  MISS:      69661
cpu0_L1D LOAD      ACCESS:    3468165  HIT:    3404896  MISS:      63269
cpu0_L1D RFO       ACCESS:    1718577  HIT:    1712601  MISS:       5976
cpu0_L1D PREFETCH  ACCESS:          0  HIT:          0  MISS:          0
cpu0_L1D WRITEBACK ACCESS:          0  HIT:          0  MISS:          0
cpu0_L2C TOTAL     ACCESS:      76342  HIT:      37489  MISS:      38853
cpu0_L2C LOAD      ACCESS:      63269  HIT:      30392  MISS:      32877
cpu0_L2C RFO       ACCESS:       5976  HIT:          0  MISS:       5976
cpu0_L2C PREFETCH  ACCESS:          0  HIT:          0  MISS:          0
cpu0_L2C WRITEBACK ACCESS:       6681  HIT:       6681  MISS:          0
LLC TOTAL     ACCESS:      44904  HIT:      26487  MISS:      18417
LLC LOAD      ACCESS:      32877  HIT:      20436  MISS:      12441
LLC RFO       ACCESS:       5976  HIT:          0  MISS:       5976
LLC PREFETCH  ACCESS:          0  HIT:          0  MISS:          0
LLC WRITEBACK ACCESS:       6051  HIT:       6051  MISS:          0
Heartbeat CPU 0 instructions: 64000001 cycles: 32318855 heartbeat IPC: 0.53043 cumulative IPC: 1.17474 (Simulation time: 0 hr 53 min 39 sec) 

Region of Interest Statistics
cpu0_DTLB TOTAL     ACCESS:    4030244  HIT:    3574826  MISS:     455418
cpu0_DTLB LOAD      ACCESS:    3010610  HIT:    2695588  MISS:     315022
cpu0_DTLB RFO       ACCESS:    1019634  HIT:     879238  MISS:     140396
cpu0_DTLB PREFETCH  ACCESS:          0  HIT:          0  MISS:          0
cpu0_DTLB WRITEBACK ACCESS:          0  HIT:          0  MISS:          0
cpu0_ITLB TOTAL     ACCESS:     188241  HIT:     188241  MISS:          0
cpu0_ITLB LOAD      ACCESS:     188241  HIT:     188241  MISS:          0
cpu0_ITLB RFO       ACCESS:          0  HIT:          0  MISS:          0
cpu0_ITLB PREFETCH  ACCESS:          0  HIT:          0  MISS:          0
cpu0_ITLB WRITEBACK ACCESS:          0  HIT:          0  MISS:          0
cpu0_L1I TOTAL     ACCESS:    1248600  HIT:    1248600  MISS:          0
cpu0_L1I LOAD      ACCESS:    1248600  HIT:    1248600  MISS:          0
cpu0_L1I RFO       ACCESS:          0  HIT:          0  MISS:          0
cpu0_L1I PREFETCH  ACCESS:          0  HIT:          0  MISS:          0
cpu0_L1I WRITEBACK ACCESS:          0  HIT:          0  MISS:          0
cpu0_STLB TOTAL     ACCESS:     455418  HIT:     245666  MISS:     209752
cpu0_STLB LOAD      ACCESS:     315022  HIT:     178880  MISS:     136142
cpu0_STLB RFO       ACCESS:     140396  HIT:      66786  MISS:      73610
cpu0_STLB PREFETCH  ACCESS:          0  HIT:          0  MISS:          0
cpu0_STLB WRITEBACK ACCESS:          0  HIT:          0  MISS:          0
cpu0_L1D TOTAL     ACCESS:    6327226  HIT:    6205320  MISS:     121906
cpu0_L1D LOAD      ACCESS:    3931432  HIT:    3839968  MISS:      91464
cpu0_L1D RFO       ACCESS:    2186044  HIT:    2156190  MISS:      29854
cpu0_L1D PREFETCH  ACCESS:          0  HIT:          0  MISS:          0
cpu0_L1D WRITEBACK ACCESS:          0  HIT:          0  MISS:          0
cpu0_L2C TOTAL     ACCESS:     152528  HIT:      63355  MISS:      89173
cpu0_L2C LOAD      ACCESS:      91464  HIT:      32207  MISS:      59257
cpu0_L2C RFO       ACCESS:      29854  HIT:          1  MISS:      29853
cpu0_L2C PREFETCH  ACCESS:          0  HIT:          0  MISS:          0
cpu0_L2C WRITEBACK ACCESS:      30622  HIT:      30587  MISS:         35
LLC TOTAL     ACCESS:     117018  HIT:      61728  MISS:      55290
LLC LOAD      ACCESS:      59257  HIT:      22495  MISS:      36762
LLC RFO       ACCESS:      29853  HIT:      11326  MISS:      18527
LLC PREFETCH  ACCESS:          0  HIT:          0  MISS:          0
LLC WRITEBACK ACCESS:      27880  HIT:      27880  MISS:          0
Heartbeat CPU 0 instructions: 66000002 cycles: 33669594 heartbeat IPC: 1.48067 cumulative IPC: 1.20588 (Simulation time: 0 hr 55 min 33 sec) 

Region of Interest Statistics
cpu0_DTLB TOTAL     ACCESS:    4584318  HIT:    4095720  MISS:     488598
cpu0_DTLB LOAD      ACCESS:    3446481  HIT:    3106169  MISS:     340312
cpu0_DTLB RFO       ACCESS:    1137837  HIT:     989551  MISS:     148286
cpu0_DTLB PREFETCH  ACCESS:          0  HIT:          0  MISS:          0
cpu0_DTLB WRITEBACK ACCESS:          0  HIT:          0  MISS:          0
cpu0_ITLB TOTAL     ACCESS:     217057  HIT:     217057  MISS:          0
cpu0_ITLB LOAD      ACCESS:     217057  HIT:     217057  MISS:          0
cpu0_ITLB RFO       ACCESS:          0  HIT:          0  MISS:          0
cpu0_ITLB PREFETCH  ACCESS:          0  HIT:          0  MISS:          0
cpu0_ITLB WRITEBACK ACCESS:          0  HIT:          0  MISS:          0
cpu0_L1I TOTAL     ACCESS:    1442185  HIT:    1442185  MISS:          0
cpu0_L1I LOAD      ACCESS:    1442185  HIT:    1442185  MISS:          0
cpu0_L1I RFO       ACCESS:          0  HIT:          0  MISS:          0
cpu0_L1I PREFETCH  ACCESS:          0  HIT:          0  MISS:          0
cpu0_L1I WRITEBACK ACCESS:          0  HIT:          0  MISS:          0
cpu0_STLB TOTAL     ACCESS:     488598  HIT:     265876  MISS:     222722
cpu0_STLB LOAD      ACCESS:     340312  HIT:     196594  MISS:     143718
cpu0_STLB RFO       ACCESS:     148286  HIT:      69282  MISS:      79004
cpu0_STLB PREFETCH  ACCESS:          0  HIT:          0  MISS:          0
cpu0_STLB WRITEBACK ACCESS:          0  HIT:          0  MISS:          0
cpu0_L1D TOTAL     ACCESS:    7204217  HIT:    7070961  MISS:     133256
cpu0_L1D LOAD      ACCESS:    4509158  HIT:    4407417  MISS:     101741
cpu0_L1D RFO       ACCESS:    2472339  HIT:    2441489  MISS:      30850
cpu0_L1D PREFETCH  ACCESS:          0  HIT:          0  MISS:          0
cpu0_L1D WRITEBACK ACCESS:          0  HIT:          0  MISS:          0
cpu0_L2C TOTAL     ACCESS:     164991  HIT:      69342  MISS:      95649
cpu0_L2C LOAD      ACCESS:     101741  HIT:      37005  MISS:      64736
cpu0_L2C RFO       ACCESS:      30850  HIT:          1  MISS:      30849
cpu0_L2C PREFETCH  ACCESS:          0  HIT:          0  MISS:          0
cpu0_L2C WRITEBACK ACCESS:      31735  HIT:      31700  MISS:         35
LLC TOTAL     ACCESS:     126075  HIT:      67715  MISS:      58360
LLC LOAD      ACCESS:      64736  HIT:      25901  MISS:      38835
LLC RFO       ACCESS:      30849  HIT:      11326  MISS:      19523
LLC PREFETCH  ACCESS:          0  HIT:          0  MISS:          0
LLC WRITEBACK ACCESS:      30461  HIT:      30461  MISS:          0
Heartbeat CPU 0 instructions: 68000004 cycles: 35006548 heartbeat IPC: 1.49594 cumulative IPC: 1.23243 (Simulation time: 0 hr 57 min 29 sec) 

Region of Interest Statistics
cpu0_DTLB TOTAL     ACCESS:    5137007  HIT:    4615097  MISS:     521910
cpu0_DTLB LOAD      ACCESS:    3880937  HIT:    3515057  MISS:     365880
cpu0_DTLB RFO       ACCESS:    1256070  HIT:    1100040  MISS:     156030
cpu0_DTLB PREFETCH  ACCESS:          0  HIT:          0  MISS:          0
cpu0_DTLB WRITEBACK ACCESS:          0  HIT:          0  MISS:          0
cpu0_ITLB TOTAL     ACCESS:     245885  HIT:     245885  MISS:          0
cpu0_ITLB LOAD      ACCESS:     245885  HIT:     245885  MISS:          0
cpu0_ITLB RFO       ACCESS:          0  HIT:          0  MISS:          0
cpu0_ITLB PREFETCH  ACCESS:          0  HIT:          0  MISS:          0
cpu0_ITLB WRITEBACK ACCESS:          0  HIT:          0  MISS:          0
cpu0_L1I TOTAL     ACCESS:    1635418  HIT:    1635418  MISS:          0
cpu0_L1I LOAD      ACCESS:    1635418  HIT:    1635418  MISS:          0
cpu0_L1I RFO       ACCESS:          0  HIT:          0  MISS:          0
cpu0_L1I PREFETCH  ACCESS:          0  HIT:          0  MISS:          0
cpu0_L1I WRITEBACK ACCESS:          0  HIT:          0  MISS:          0
cpu0_STLB TOTAL     ACCESS:     521910  HIT:     284424  MISS:     237486
cpu0_STLB LOAD      ACCESS:     365880  HIT:     213373  MISS:     152507
cpu0_STLB RFO       ACCESS:     156030  HIT:      71051  MISS:      84979
cpu0_STLB PREFETCH  ACCESS:          0  HIT:          0  MISS:          0
cpu0_STLB WRITEBACK ACCESS:          0  HIT:          0  MISS:          0
cpu0_L1D TOTAL     ACCESS:    8082006  HIT:    7937353  MISS:     144653
cpu0_L1D LOAD      ACCESS:    5085819  HIT:    4973735  MISS:     112084
cpu0_L1D RFO       ACCESS:    2758703  HIT:    2726857  MISS:      31846
cpu0_L1D PREFETCH  ACCESS:          0  HIT:          0  MISS:          0
cpu0_L1D WRITEBACK ACCESS:          0  HIT:          0  MISS:          0
cpu0_L2C TOTAL     ACCESS:     177503  HIT:      75378  MISS:     102125
cpu0_L2C LOAD      ACCESS:     112084  HIT:      41868  MISS:      70216
cpu0_L2C RFO       ACCESS:      31846  HIT:          1  MISS:      31845
cpu0_L2C PREFETCH  ACCESS:          0  HIT:          0  MISS:          0
cpu0_L2C WRITEBACK ACCESS:      32850  HIT:      32815  MISS:         35
LLC TOTAL     ACCESS:     133812  HIT:      72488  MISS:      61324
LLC LOAD      ACCESS:      70216  HIT:      29413  MISS:      40803
LLC RFO       ACCESS:      31845  HIT:      11326  MISS:      20519
LLC PREFETCH  ACCESS:          0  HIT:          0  MISS:          0
LLC WRITEBACK ACCESS:      31722  HIT:      31722  MISS:          0
Heartbeat CPU 0 instructions: 70000000 cycles: 36360742 heartbeat IPC: 1.47689 cumulative IPC: 1.25318 (Simulation time: 0 hr 59 min 22 sec) 

Region of Interest Statistics
cpu0_DTLB TOTAL     ACCESS:    5690520  HIT:    5135778  MISS:     554742
cpu0_DTLB LOAD      ACCESS:    4316135  HIT:    3925194  MISS:     390941
cpu0_DTLB RFO       ACCESS:    1374385  HIT:    1210584  MISS:     163801
cpu0_DTLB PREFETCH  ACCESS:          0  HIT:          0  MISS:          0
cpu0_DTLB WRITEBACK ACCESS:          0  HIT:          0  MISS:          0
cpu0_ITLB TOTAL     ACCESS:     274697  HIT:     274697  MISS:          0
cpu0_ITLB LOAD      ACCESS:     274697  HIT:     274697  MISS:          0
cpu0_ITLB RFO       ACCESS:          0  HIT:          0  MISS:          0
cpu0_ITLB PREFETCH  ACCESS:          0  HIT:          0  MISS:          0
cpu0_ITLB WRITEBACK ACCESS:          0  HIT:          0  MISS:          0
cpu0_L1I TOTAL     ACCESS:    1828621  HIT:    1828621  MISS:          0
cpu0_L1I LOAD      ACCESS:    1828621  HIT:    1828621  MISS:          0
cpu0_L1I RFO       ACCESS:          0  HIT:          0  MISS:          0
cpu0_L1I PREFETCH  ACCESS:          0  HIT:          0  MISS:          0
cpu0_L1I WRITEBACK ACCESS:          0  HIT:          0  MISS:          0
cpu0_STLB TOTAL     ACCESS:     554742  HIT:     303457  MISS:     251285
cpu0_STLB LOAD      ACCESS:     390941  HIT:     230262  MISS:     160679
cpu0_STLB RFO       ACCESS:     163801  HIT:      73195  MISS:      90606
cpu0_STLB PREFETCH  ACCESS:          0  HIT:          0  MISS:          0
cpu0_STLB WRITEBACK ACCESS:          0  HIT:          0  MISS:          0
cpu0_L1D TOTAL     ACCESS:    8959105  HIT:    8803132  MISS:     155973
cpu0_L1D LOAD      ACCESS:    5662783  HIT:    5540450  MISS:     122333
cpu0_L1D RFO       ACCESS:    3045039  HIT:    3012197  MISS:      32842
cpu0_L1D PREFETCH  ACCESS:          0  HIT:          0  MISS:          0
cpu0_L1D WRITEBACK ACCESS:          0  HIT:          0  MISS:          0
cpu0_L2C TOTAL     ACCESS:     189938  HIT:      81336  MISS:     108602
cpu0_L2C LOAD      ACCESS:     122333  HIT:      46638  MISS:      75695
cpu0_L2C RFO       ACCESS:      32842  HIT:          1  MISS:      32841
cpu0_L2C PREFETCH  ACCESS:          0  HIT:          0  MISS:          0
cpu0_L2C WRITEBACK ACCESS:      33965  HIT:      33930  MISS:         35
LLC TOTAL     ACCESS:     141239  HIT:      76792  MISS:      64447
LLC LOAD      ACCESS:      75695  HIT:      32765  MISS:      42930
LLC RFO       ACCESS:      32841  HIT:      11326  MISS:      21515
LLC PREFETCH  ACCESS:          0  HIT:          0  MISS:          0
LLC WRITEBACK ACCESS:      32672  HIT:      32672  MISS:          0
Heartbeat CPU 0 instructions: 72000003 cycles: 37721003 heartbeat IPC: 1.47031 cumulative IPC: 1.27023 (Simulation time: 1 hr 1 min 15 sec) 

Region of Interest Statistics
cpu0_DTLB TOTAL     ACCESS:    6244685  HIT:    5657022  MISS:     587663
cpu0_DTLB LOAD      ACCESS:    4752320  HIT:    4336202  MISS:     416118
cpu0_DTLB RFO       ACCESS:    1492365  HIT:    1320820  MISS:     171545
cpu0_DTLB PREFETCH  ACCESS:          0  HIT:          0  MISS:          0
cpu0_DTLB WRITEBACK ACCESS:          0  HIT:          0  MISS:          0
cpu0_ITLB TOTAL     ACCESS:     303525  HIT:     303525  MISS:          0
cpu0_ITLB LOAD      ACCESS:     303525  HIT:     303525  MISS:          0
cpu0_ITLB RFO       ACCESS:          0  HIT:          0  MISS:          0
cpu0_ITLB PREFETCH  ACCESS:          0  HIT:          0  MISS:          0
cpu0_ITLB WRITEBACK ACCESS:          0  HIT:          0  MISS:          0
cpu0_L1I TOTAL     ACCESS:    2022131  HIT:    2022131  MISS:          0
cpu0_L1I LOAD      ACCESS:    2022131  HIT:    2022131  MISS:          0
cpu0_L1I RFO       ACCESS:          0  HIT:          0  MISS:          0
cpu0_L1I PREFETCH  ACCESS:          0  HIT:          0  MISS:          0
cpu0_L1I WRITEBACK ACCESS:          0  HIT:          0  MISS:          0
cpu0_STLB TOTAL     ACCESS:     587663  HIT:     323076  MISS:     264587
cpu0_STLB LOAD      ACCESS:     416118  HIT:     247588  MISS:     168530
cpu0_STLB RFO       ACCESS:     171545  HIT:      75488  MISS:      96057
cpu0_STLB PREFETCH  ACCESS:          0  HIT:          0  MISS:          0
cpu0_STLB WRITEBACK ACCESS:          0  HIT:          0  MISS:          0
cpu0_L1D TOTAL     ACCESS:    9836444  HIT:    9669056  MISS:     167388
cpu0_L1D LOAD      ACCESS:    6240479  HIT:    6107793  MISS:     132686
cpu0_L1D RFO       ACCESS:    3331380  HIT:    3297542  MISS:      33838
cpu0_L1D PREFETCH  ACCESS:          0  HIT:          0  MISS:          0
cpu0_L1D WRITEBACK ACCESS:          0  HIT:          0  MISS:          0
cpu0_L2C TOTAL     ACCESS:     202468  HIT:      87392  MISS:     115076
cpu0_L2C LOAD      ACCESS:     132686  HIT:      51513  MISS:      81173
cpu0_L2C RFO       ACCESS:      33838  HIT:          1  MISS:      33837
cpu0_L2C PREFETCH  ACCESS:          0  HIT:          0  MISS:          0
cpu0_L2C WRITEBACK ACCESS:      35080  HIT:      35045  MISS:         35
LLC TOTAL     ACCESS:     148681  HIT:      81078  MISS:      67603
LLC LOAD      ACCESS:      81173  HIT:      36083  MISS:      45090
LLC RFO       ACCESS:      33837  HIT:      11326  MISS:      22511
LLC PREFETCH  ACCESS:          0  HIT:          0  MISS:          0
LLC WRITEBACK ACCESS:      33640  HIT:      33640  MISS:          0
Heartbeat CPU 0 instructions: 74000003 cycles: 39070155 heartbeat IPC: 1.48241 cumulative IPC: 1.28556 (Simulation time: 1 hr 3 min 8 sec) 

Region of Interest Statistics
cpu0_DTLB TOTAL     ACCESS:    6796593  HIT:    6175278  MISS:     621315
cpu0_DTLB LOAD      ACCESS:    5185936  HIT:    4743939  MISS:     441997
cpu0_DTLB RFO       ACCESS:    1610657  HIT:    1431339  MISS:     179318
cpu0_DTLB PREFETCH  ACCESS:          0  HIT:          0  MISS:          0
cpu0_DTLB WRITEBACK ACCESS:          0  HIT:          0  MISS:          0
cpu0_ITLB TOTAL     ACCESS:     332323  HIT:     332323  MISS:          0
cpu0_ITLB LOAD      ACCESS:     332323  HIT:     332323  MISS:          0
cpu0_ITLB RFO       ACCESS:          0  HIT:          0  MISS:          0
cpu0_ITLB PREFETCH  ACCESS:          0  HIT:          0  MISS:          0
cpu0_ITLB WRITEBACK ACCESS:          0  HIT:          0  MISS:          0
cpu0_L1I TOTAL     ACCESS:    2215091  HIT:    2215091  MISS:          0
cpu0_L1I LOAD      ACCESS:    2215091  HIT:    2215091  MISS:          0
cpu0_L1I RFO       ACCESS:          0  HIT:          0  MISS:          0
cpu0_L1I PREFETCH  ACCESS:          0  HIT:          0  MISS:          0
cpu0_L1I WRITEBACK ACCESS:          0  HIT:          0  MISS:          0
cpu0_STLB TOTAL     ACCESS:     621315  HIT:     341474  MISS:     279841
cpu0_STLB LOAD      ACCESS:     441997  HIT:     264363  MISS:     177634
cpu0_STLB RFO       ACCESS:     179318  HIT:      77111  MISS:     102207
cpu0_STLB PREFETCH  ACCESS:          0  HIT:          0  MISS:          0
cpu0_STLB WRITEBACK ACCESS:          0  HIT:          0  MISS:          0
cpu0_L1D TOTAL     ACCESS:   10713775  HIT:   10535024  MISS:     178751
cpu0_L1D LOAD      ACCESS:    6816078  HIT:    6673091  MISS:     142987
cpu0_L1D RFO       ACCESS:    3617858  HIT:    3583024  MISS:      34834
cpu0_L1D PREFETCH  ACCESS:          0  HIT:          0  MISS:          0
cpu0_L1D WRITEBACK ACCESS:          0  HIT:          0  MISS:          0
cpu0_L2C TOTAL     ACCESS:     214944  HIT:      93392  MISS:     121552
cpu0_L2C LOAD      ACCESS:     142987  HIT:      56334  MISS:      86653
cpu0_L2C RFO       ACCESS:      34834  HIT:          1  MISS:      34833
cpu0_L2C PREFETCH  ACCESS:          0  HIT:          0  MISS:          0
cpu0_L2C WRITEBACK ACCESS:      36193  HIT:      36158  MISS:         35
LLC TOTAL     ACCESS:     156237  HIT:      85530  MISS:      70707
LLC LOAD      ACCESS:      86653  HIT:      39455  MISS:      47198
LLC RFO       ACCESS:      34833  HIT:      11326  MISS:      23507
LLC PREFETCH  ACCESS:          0  HIT:          0  MISS:          0
LLC WRITEBACK ACCESS:      34720  HIT:      34720  MISS:          0
Heartbeat CPU 0 instructions: 76000001 cycles: 40441401 heartbeat IPC: 1.45853 cumulative IPC: 1.2974 (Simulation time: 1 hr 5 min 1 sec) 

Region of Interest Statistics
cpu0_DTLB TOTAL     ACCESS:    7346466  HIT:    6688918  MISS:     657548
cpu0_DTLB LOAD      ACCESS:    5618043  HIT:    5148521  MISS:     469522
cpu0_DTLB RFO       ACCESS:    1728423  HIT:    1540397  MISS:     188026
cpu0_DTLB PREFETCH  ACCESS:          0  HIT:          0  MISS:          0
cpu0_DTLB WRITEBACK ACCESS:          0  HIT:          0  MISS:          0
cpu0_ITLB TOTAL     ACCESS:     360894  HIT:     360894  MISS:          0
cpu0_ITLB LOAD      ACCESS:     360894  HIT:     360894  MISS:          0
cpu0_ITLB RFO       ACCESS:          0  HIT:          0  MISS:          0
cpu0_ITLB PREFETCH  ACCESS:          0  HIT:          0  MISS:          0
cpu0_ITLB WRITEBACK ACCESS:          0  HIT:          0  MISS:          0
cpu0_L1I TOTAL     ACCESS:    2408232  HIT:    2408232  MISS:          0
cpu0_L1I LOAD      ACCESS:    2408232  HIT:    2408232  MISS:          0
cpu0_L1I RFO       ACCESS:          0  HIT:          0  MISS:          0
cpu0_L1I PREFETCH  ACCESS:          0  HIT:          0  MISS:          0
cpu0_L1I WRITEBACK ACCESS:          0  HIT:          0  MISS:          0
cpu0_STLB TOTAL     ACCESS:     657548  HIT:     362323  MISS:     295225
cpu0_STLB LOAD      ACCESS:     469522  HIT:     282636  MISS:     186886
cpu0_STLB RFO       ACCESS:     188026  HIT:      79687  MISS:     108339
cpu0_STLB PREFETCH  ACCESS:          0  HIT:          0  MISS:          0
cpu0_STLB WRITEBACK ACCESS:          0  HIT:          0  MISS:          0
cpu0_L1D TOTAL     ACCESS:   11592235  HIT:   11402112  MISS:     190123
cpu0_L1D LOAD      ACCESS:    7393136  HIT:    7239847  MISS:     153289
cpu0_L1D RFO       ACCESS:    3903876  HIT:    3868046  MISS:      35830
cpu0_L1D PREFETCH  ACCESS:          0  HIT:          0  MISS:          0
cpu0_L1D WRITEBACK ACCESS:          0  HIT:          0  MISS:          0
cpu0_L2C TOTAL     ACCESS:     227435  HIT:      99408  MISS:     128027
cpu0_L2C LOAD      ACCESS:     153289  HIT:      61158  MISS:      92131
cpu0_L2C RFO       ACCESS:      35830  HIT:          1  MISS:      35829
cpu0_L2C PREFETCH  ACCESS:          0  HIT:          0  MISS:          0
cpu0_L2C WRITEBACK ACCESS:      37312  HIT:      37277  MISS:         35
LLC TOTAL     ACCESS:     163684  HIT:      89675  MISS:      74009
LLC LOAD      ACCESS:      92131  HIT:      42628  MISS:      49503
LLC RFO       ACCESS:      35829  HIT:      11326  MISS:      24503
LLC PREFETCH  ACCESS:          0  HIT:          0  MISS:          0
LLC WRITEBACK ACCESS:      35692  HIT:      35692  MISS:          0
Heartbeat CPU 0 instructions: 78000003 cycles: 41810981 heartbeat IPC: 1.4603 cumulative IPC: 1.30782 (Simulation time: 1 hr 6 min 52 sec) 

Region of Interest Statistics
cpu0_DTLB TOTAL     ACCESS:    7901200  HIT:    7209634  MISS:     691566
cpu0_DTLB LOAD      ACCESS:    6054434  HIT:    5558996  MISS:     495438
cpu0_DTLB RFO       ACCESS:    1846766  HIT:    1650638  MISS:     196128
cpu0_DTLB PREFETCH  ACCESS:          0  HIT:          0  MISS:          0
cpu0_DTLB WRITEBACK ACCESS:          0  HIT:          0  MISS:          0
cpu0_ITLB TOTAL     ACCESS:     389698  HIT:     389698  MISS:          0
cpu0_ITLB LOAD      ACCESS:     389698  HIT:     389698  MISS:          0
cpu0_ITLB RFO       ACCESS:          0  HIT:          0  MISS:          0
cpu0_ITLB PREFETCH  ACCESS:          0  HIT:          0  MISS:          0
cpu0_ITLB WRITEBACK ACCESS:          0  HIT:          0  MISS:          0
cpu0_L1I TOTAL     ACCESS:    2601570  HIT:    2601570  MISS:          0
cpu0_L1I LOAD      ACCESS:    2601570  HIT:    2601570  MISS:          0
cpu0_L1I RFO       ACCESS:          0  HIT:          0  MISS:          0
cpu0_L1I PREFETCH  ACCESS:          0  HIT:          0  MISS:          0
cpu0_L1I WRITEBACK ACCESS:          0  HIT:          0  MISS:          0
cpu0_STLB TOTAL     ACCESS:     691566  HIT:     380921  MISS:     310645
cpu0_STLB LOAD      ACCESS:     495438  HIT:     299251  MISS:     196187
cpu0_STLB RFO       ACCESS:     196128  HIT:      81670  MISS:     114458
cpu0_STLB PREFETCH  ACCESS:          0  HIT:          0  MISS:          0
cpu0_STLB WRITEBACK ACCESS:          0  HIT:          0  MISS:          0
cpu0_L1D TOTAL     ACCESS:   12471905  HIT:   12270352  MISS:     201553
cpu0_L1D LOAD      ACCESS:    7970942  HIT:    7807277  MISS:     163665
cpu0_L1D RFO       ACCESS:    4190320  HIT:    4153494  MISS:      36826
cpu0_L1D PREFETCH  ACCESS:          0  HIT:          0  MISS:          0
cpu0_L1D WRITEBACK ACCESS:          0  HIT:          0  MISS:          0
cpu0_L2C TOTAL     ACCESS:     239979  HIT:     105472  MISS:     134507
cpu0_L2C LOAD      ACCESS:     163665  HIT:      66050  MISS:      97615
cpu0_L2C RFO       ACCESS:      36826  HIT:          1  MISS:      36825
cpu0_L2C PREFETCH  ACCESS:          0  HIT:          0  MISS:          0
cpu0_L2C WRITEBACK ACCESS:      38426  HIT:      38391  MISS:         35
LLC TOTAL     ACCESS:     171304  HIT:      94134  MISS:      77170
LLC LOAD      ACCESS:      97615  HIT:      45947  MISS:      51668
LLC RFO       ACCESS:      36825  HIT:      11326  MISS:      25499
LLC PREFETCH  ACCESS:          0  HIT:          0  MISS:          0
LLC WRITEBACK ACCESS:      36832  HIT:      36832  MISS:          0
Heartbeat CPU 0 instructions: 80000000 cycles: 43160419 heartbeat IPC: 1.4821 cumulative IPC: 1.31815 (Simulation time: 1 hr 8 min 47 sec) 

Region of Interest Statistics
cpu0_DTLB TOTAL     ACCESS:    8454113  HIT:    7728818  MISS:     725295
cpu0_DTLB LOAD      ACCESS:    6488866  HIT:    5967471  MISS:     521395
cpu0_DTLB RFO       ACCESS:    1965247  HIT:    1761347  MISS:     203900
cpu0_DTLB PREFETCH  ACCESS:          0  HIT:          0  MISS:          0
cpu0_DTLB WRITEBACK ACCESS:          0  HIT:          0  MISS:          0
cpu0_ITLB TOTAL     ACCESS:     418535  HIT:     418535  MISS:          0
cpu0_ITLB LOAD      ACCESS:     418535  HIT:     418535  MISS:          0
cpu0_ITLB RFO       ACCESS:          0  HIT:          0  MISS:          0
cpu0_ITLB PREFETCH  ACCESS:          0  HIT:          0  MISS:          0
cpu0_ITLB WRITEBACK ACCESS:          0  HIT:          0  MISS:          0
cpu0_L1I TOTAL     ACCESS:    2794832  HIT:    2794832  MISS:          0
cpu0_L1I LOAD      ACCESS:    2794832  HIT:    2794832  MISS:          0
cpu0_L1I RFO       ACCESS:          0  HIT:          0  MISS:          0
cpu0_L1I PREFETCH  ACCESS:          0  HIT:          0  MISS:          0
cpu0_L1I WRITEBACK ACCESS:          0  HIT:          0  MISS:          0
cpu0_STLB TOTAL     ACCESS:     725295  HIT:     401064  MISS:     324231
cpu0_STLB LOAD      ACCESS:     521395  HIT:     317171  MISS:     204224
cpu0_STLB RFO       ACCESS:     203900  HIT:      83893  MISS:     120007
cpu0_STLB PREFETCH  ACCESS:          0  HIT:          0  MISS:          0
cpu0_STLB WRITEBACK ACCESS:          0  HIT:          0  MISS:          0
cpu0_L1D TOTAL     ACCESS:   13349131  HIT:   13136257  MISS:     212874
cpu0_L1D LOAD      ACCESS:    8548201  HIT:    8374287  MISS:     173914
cpu0_L1D RFO       ACCESS:    4476701  HIT:    4438879  MISS:      37822
cpu0_L1D PREFETCH  ACCESS:          0  HIT:          0  MISS:          0
cpu0_L1D WRITEBACK ACCESS:          0  HIT:          0  MISS:          0
cpu0_L2C TOTAL     ACCESS:     252413  HIT:     111431  MISS:     140982
cpu0_L2C LOAD      ACCESS:     173914  HIT:      70820  MISS:     103094
cpu0_L2C RFO       ACCESS:      37822  HIT:          1  MISS:      37821
cpu0_L2C PREFETCH  ACCESS:          0  HIT:          0  MISS:          0
cpu0_L2C WRITEBACK ACCESS:      39539  HIT:      39504  MISS:         35
LLC TOTAL     ACCESS:     178634  HIT:      98396  MISS:      80238
LLC LOAD      ACCESS:     103094  HIT:      49354  MISS:      53740
LLC RFO       ACCESS:      37821  HIT:      11326  MISS:      26495
LLC PREFETCH  ACCESS:          0  HIT:          0  MISS:          0
LLC WRITEBACK ACCESS:      37687  HIT:      37687  MISS:          0
Heartbeat CPU 0 instructions: 82000004 cycles: 44501628 heartbeat IPC: 1.49119 cumulative IPC: 1.32778 (Simulation time: 1 hr 10 min 39 sec) 

Region of Interest Statistics
cpu0_DTLB TOTAL     ACCESS:    9007401  HIT:    8250009  MISS:     757392
cpu0_DTLB LOAD      ACCESS:    6923831  HIT:    6378082  MISS:     545749
cpu0_DTLB RFO       ACCESS:    2083570  HIT:    1871927  MISS:     211643
cpu0_DTLB PREFETCH  ACCESS:          0  HIT:          0  MISS:          0
cpu0_DTLB WRITEBACK ACCESS:          0  HIT:          0  MISS:          0
cpu0_ITLB TOTAL     ACCESS:     447347  HIT:     447347  MISS:          0
cpu0_ITLB LOAD      ACCESS:     447347  HIT:     447347  MISS:          0
cpu0_ITLB RFO       ACCESS:          0  HIT:          0  MISS:          0
cpu0_ITLB PREFETCH  ACCESS:          0  HIT:          0  MISS:          0
cpu0_ITLB WRITEBACK ACCESS:          0  HIT:          0  MISS:          0
cpu0_L1I TOTAL     ACCESS:    2988197  HIT:    2988197  MISS:          0
cpu0_L1I LOAD      ACCESS:    2988197  HIT:    2988197  MISS:          0
cpu0_L1I RFO       ACCESS:          0  HIT:          0  MISS:          0
cpu0_L1I PREFETCH  ACCESS:          0  HIT:          0  MISS:          0
cpu0_L1I WRITEBACK ACCESS:          0  HIT:          0  MISS:          0
cpu0_STLB TOTAL     ACCESS:     757392  HIT:     419731  MISS:     337661
cpu0_STLB LOAD      ACCESS:     545749  HIT:     333570  MISS:     212179
cpu0_STLB RFO       ACCESS:     211643  HIT:      86161  MISS:     125482
cpu0_STLB PREFETCH  ACCESS:          0  HIT:          0  MISS:          0
cpu0_STLB WRITEBACK ACCESS:          0  HIT:          0  MISS:          0
cpu0_L1D TOTAL     ACCESS:   14225418  HIT:   14001111  MISS:     224307
cpu0_L1D LOAD      ACCESS:    9124689  HIT:    8940398  MISS:     184291
cpu0_L1D RFO       ACCESS:    4763070  HIT:    4724252  MISS:      38818
cpu0_L1D PREFETCH  ACCESS:          0  HIT:          0  MISS:          0
cpu0_L1D WRITEBACK ACCESS:          0  HIT:          0  MISS:          0
cpu0_L2C TOTAL     ACCESS:     264959  HIT:     117488  MISS:     147471
cpu0_L2C LOAD      ACCESS:     184291  HIT:      75704  MISS:     108587
cpu0_L2C RFO       ACCESS:      38818  HIT:          1  MISS:      38817
cpu0_L2C PREFETCH  ACCESS:          0  HIT:          0  MISS:          0
cpu0_L2C WRITEBACK ACCESS:      40652  HIT:      40617  MISS:         35
LLC TOTAL     ACCESS:     186152  HIT:     102977  MISS:      83175
LLC LOAD      ACCESS:     108587  HIT:      52906  MISS:      55681
LLC RFO       ACCESS:      38817  HIT:      11326  MISS:      27491
LLC PREFETCH  ACCESS:          0  HIT:          0  MISS:          0
LLC WRITEBACK ACCESS:      38716  HIT:      38716  MISS:          0
Heartbeat CPU 0 instructions: 84000003 cycles: 45839960 heartbeat IPC: 1.4944 cumulative IPC: 1.33655 (Simulation time: 1 hr 12 min 32 sec) 

Region of Interest Statistics
cpu0_DTLB TOTAL     ACCESS:    9559429  HIT:    8768376  MISS:     791053
cpu0_DTLB LOAD      ACCESS:    7357680  HIT:    6786042  MISS:     571638
cpu0_DTLB RFO       ACCESS:    2201749  HIT:    1982334  MISS:     219415
cpu0_DTLB PREFETCH  ACCESS:          0  HIT:          0  MISS:          0
cpu0_DTLB WRITEBACK ACCESS:          0  HIT:          0  MISS:          0
cpu0_ITLB TOTAL     ACCESS:     476161  HIT:     476161  MISS:          0
cpu0_ITLB LOAD      ACCESS:     476161  HIT:     476161  MISS:          0
cpu0_ITLB RFO       ACCESS:          0  HIT:          0  MISS:          0
cpu0_ITLB PREFETCH  ACCESS:          0  HIT:          0  MISS:          0
cpu0_ITLB WRITEBACK ACCESS:          0  HIT:          0  MISS:          0
cpu0_L1I TOTAL     ACCESS:    3181228  HIT:    3181228  MISS:          0
cpu0_L1I LOAD      ACCESS:    3181228  HIT:    3181228  MISS:          0
cpu0_L1I RFO       ACCESS:          0  HIT:          0  MISS:          0
cpu0_L1I PREFETCH  ACCESS:          0  HIT:          0  MISS:          0
cpu0_L1I WRITEBACK ACCESS:          0  HIT:          0  MISS:          0
cpu0_STLB TOTAL     ACCESS:     791053  HIT:     438281  MISS:     352772
cpu0_STLB LOAD      ACCESS:     571638  HIT:     350474  MISS:     221164
cpu0_STLB RFO       ACCESS:     219415  HIT:      87807  MISS:     131608
cpu0_STLB PREFETCH  ACCESS:          0  HIT:          0  MISS:          0
cpu0_STLB WRITEBACK ACCESS:          0  HIT:          0  MISS:          0
cpu0_L1D TOTAL     ACCESS:   15102958  HIT:   14867297  MISS:     235661
cpu0_L1D LOAD      ACCESS:    9700781  HIT:    9506204  MISS:     194577
cpu0_L1D RFO       ACCESS:    5049407  HIT:    5009593  MISS:      39814
cpu0_L1D PREFETCH  ACCESS:          0  HIT:          0  MISS:          0
cpu0_L1D WRITEBACK ACCESS:          0  HIT:          0  MISS:          0
cpu0_L2C TOTAL     ACCESS:     277427  HIT:     123480  MISS:     153947
cpu0_L2C LOAD      ACCESS:     194577  HIT:      80510  MISS:     114067
cpu0_L2C RFO       ACCESS:      39814  HIT:          1  MISS:      39813
cpu0_L2C PREFETCH  ACCESS:          0  HIT:          0  MISS:          0
cpu0_L2C WRITEBACK ACCESS:      41766  HIT:      41731  MISS:         35
LLC TOTAL     ACCESS:     193838  HIT:     107787  MISS:      86051
LLC LOAD      ACCESS:     114067  HIT:      56506  MISS:      57561
LLC RFO       ACCESS:      39813  HIT:      11326  MISS:      28487
LLC PREFETCH  ACCESS:          0  HIT:          0  MISS:          0
LLC WRITEBACK ACCESS:      39926  HIT:      39926  MISS:          0
Heartbeat CPU 0 instructions: 86000000 cycles: 49911090 heartbeat IPC: 0.491263 cumulative IPC: 1.21993 (Simulation time: 1 hr 15 min 59 sec) 

Region of Interest Statistics
cpu0_DTLB TOTAL     ACCESS:   10267342  HIT:    9227642  MISS:    1039700
cpu0_DTLB LOAD      ACCESS:    7756420  HIT:    7028348  MISS:     728072
cpu0_DTLB RFO       ACCESS:    2510922  HIT:    2199294  MISS:     311628
cpu0_DTLB PREFETCH  ACCESS:          0  HIT:          0  MISS:          0
cpu0_DTLB WRITEBACK ACCESS:          0  HIT:          0  MISS:          0
cpu0_ITLB TOTAL     ACCESS:     491514  HIT:     491514  MISS:          0
cpu0_ITLB LOAD      ACCESS:     491514  HIT:     491514  MISS:          0
cpu0_ITLB RFO       ACCESS:          0  HIT:          0  MISS:          0
cpu0_ITLB PREFETCH  ACCESS:          0  HIT:          0  MISS:          0
cpu0_ITLB WRITEBACK ACCESS:          0  HIT:          0  MISS:          0
cpu0_L1I TOTAL     ACCESS:    3270389  HIT:    3270389  MISS:          0
cpu0_L1I LOAD      ACCESS:    3270389  HIT:    3270389  MISS:          0
cpu0_L1I RFO       ACCESS:          0  HIT:          0  MISS:          0
cpu0_L1I PREFETCH  ACCESS:          0  HIT:          0  MISS:          0
cpu0_L1I WRITEBACK ACCESS:          0  HIT:          0  MISS:          0
cpu0_STLB TOTAL     ACCESS:    1039700  HIT:     563061  MISS:     476639
cpu0_STLB LOAD      ACCESS:     728072  HIT:     421779  MISS:     306293
cpu0_STLB RFO       ACCESS:     311628  HIT:     141282  MISS:     170346
cpu0_STLB PREFETCH  ACCESS:          0  HIT:          0  MISS:          0
cpu0_STLB WRITEBACK ACCESS:          0  HIT:          0  MISS:          0
cpu0_L1D TOTAL     ACCESS:   16153486  HIT:   15865715  MISS:     287771
cpu0_L1D LOAD      ACCESS:   10164482  HIT:    9941852  MISS:     222630
cpu0_L1D RFO       ACCESS:    5512370  HIT:    5448679  MISS:      63691
cpu0_L1D PREFETCH  ACCESS:          0  HIT:          0  MISS:          0
cpu0_L1D WRITEBACK ACCESS:          0  HIT:          0  MISS:          0
cpu0_L2C TOTAL     ACCESS:     353298  HIT:     149450  MISS:     203848
cpu0_L2C LOAD      ACCESS:     222631  HIT:      82590  MISS:     140041
cpu0_L2C RFO       ACCESS:      63691  HIT:          2  MISS:      63689
cpu0_L2C PREFETCH  ACCESS:          0  HIT:          0  MISS:          0
cpu0_L2C WRITEBACK ACCESS:      65526  HIT:      65467  MISS:         59
LLC TOTAL     ACCESS:     264486  HIT:     142393  MISS:     122093
LLC LOAD      ACCESS:     140041  HIT:      58154  MISS:      81887
LLC RFO       ACCESS:      63689  HIT:      23510  MISS:      40179
LLC PREFETCH  ACCESS:          0  HIT:          0  MISS:          0
LLC WRITEBACK ACCESS:      60697  HIT:      60687  MISS:         10
Heartbeat CPU 0 instructions: 88000002 cycles: 51277443 heartbeat IPC: 1.46375 cumulative IPC: 1.23072 (Simulation time: 1 hr 17 min 53 sec) 

Region of Interest Statistics
cpu0_DTLB TOTAL     ACCESS:   10821346  HIT:    9750004  MISS:    1071342
cpu0_DTLB LOAD      ACCESS:    8192550  HIT:    7441059  MISS:     751491
cpu0_DTLB RFO       ACCESS:    2628796  HIT:    2308945  MISS:     319851
cpu0_DTLB PREFETCH  ACCESS:          0  HIT:          0  MISS:          0
cpu0_DTLB WRITEBACK ACCESS:          0  HIT:          0  MISS:          0
cpu0_ITLB TOTAL     ACCESS:     520322  HIT:     520322  MISS:          0
cpu0_ITLB LOAD      ACCESS:     520322  HIT:     520322  MISS:          0
cpu0_ITLB RFO       ACCESS:          0  HIT:          0  MISS:          0
cpu0_ITLB PREFETCH  ACCESS:          0  HIT:          0  MISS:          0
cpu0_ITLB WRITEBACK ACCESS:          0  HIT:          0  MISS:          0
cpu0_L1I TOTAL     ACCESS:    3463828  HIT:    3463828  MISS:          0
cpu0_L1I LOAD      ACCESS:    3463828  HIT:    3463828  MISS:          0
cpu0_L1I RFO       ACCESS:          0  HIT:          0  MISS:          0
cpu0_L1I PREFETCH  ACCESS:          0  HIT:          0  MISS:          0
cpu0_L1I WRITEBACK ACCESS:          0  HIT:          0  MISS:          0
cpu0_STLB TOTAL     ACCESS:    1071342  HIT:     579744  MISS:     491598
cpu0_STLB LOAD      ACCESS:     751491  HIT:     436286  MISS:     315205
cpu0_STLB RFO       ACCESS:     319851  HIT:     143458  MISS:     176393
cpu0_STLB PREFETCH  ACCESS:          0  HIT:          0  MISS:          0
cpu0_STLB WRITEBACK ACCESS:          0  HIT:          0  MISS:          0
cpu0_L1D TOTAL     ACCESS:   17032021  HIT:   16732476  MISS:     299545
cpu0_L1D LOAD      ACCESS:   10741639  HIT:   10508285  MISS:     233354
cpu0_L1D RFO       ACCESS:    5798789  HIT:    5734102  MISS:      64687
cpu0_L1D PREFETCH  ACCESS:          0  HIT:          0  MISS:          0
cpu0_L1D WRITEBACK ACCESS:          0  HIT:          0  MISS:          0
cpu0_L2C TOTAL     ACCESS:     366366  HIT:     155636  MISS:     210730
cpu0_L2C LOAD      ACCESS:     233354  HIT:      87441  MISS:     145913
cpu0_L2C RFO       ACCESS:      64687  HIT:          2  MISS:      64685
cpu0_L2C PREFETCH  ACCESS:          0  HIT:          0  MISS:          0
cpu0_L2C WRITEBACK ACCESS:      66821  HIT:      66751  MISS:         70
LLC TOTAL     ACCESS:     274779  HIT:     149513  MISS:     125266
LLC LOAD      ACCESS:     145913  HIT:      61850  MISS:      84063
LLC RFO       ACCESS:      64685  HIT:      23510  MISS:      41175
LLC PREFETCH  ACCESS:          0  HIT:          0  MISS:          0
LLC WRITEBACK ACCESS:      64119  HIT:      64109  MISS:         10
Heartbeat CPU 0 instructions: 90000003 cycles: 52626602 heartbeat IPC: 1.48241 cumulative IPC: 1.24126 (Simulation time: 1 hr 19 min 47 sec) 

Region of Interest Statistics
cpu0_DTLB TOTAL     ACCESS:   11374084  HIT:   10268096  MISS:    1105988
cpu0_DTLB LOAD      ACCESS:    8627585  HIT:    7849955  MISS:     777630
cpu0_DTLB RFO       ACCESS:    2746499  HIT:    2418141  MISS:     328358
cpu0_DTLB PREFETCH  ACCESS:          0  HIT:          0  MISS:          0
cpu0_DTLB WRITEBACK ACCESS:          0  HIT:          0  MISS:          0
cpu0_ITLB TOTAL     ACCESS:     549112  HIT:     549112  MISS:          0
cpu0_ITLB LOAD      ACCESS:     549112  HIT:     549112  MISS:          0
cpu0_ITLB RFO       ACCESS:          0  HIT:          0  MISS:          0
cpu0_ITLB PREFETCH  ACCESS:          0  HIT:          0  MISS:          0
cpu0_ITLB WRITEBACK ACCESS:          0  HIT:          0  MISS:          0
cpu0_L1I TOTAL     ACCESS:    3657070  HIT:    3657070  MISS:          0
cpu0_L1I LOAD      ACCESS:    3657070  HIT:    3657070  MISS:          0
cpu0_L1I RFO       ACCESS:          0  HIT:          0  MISS:          0
cpu0_L1I PREFETCH  ACCESS:          0  HIT:          0  MISS:          0
cpu0_L1I WRITEBACK ACCESS:          0  HIT:          0  MISS:          0
cpu0_STLB TOTAL     ACCESS:    1105988  HIT:     600759  MISS:     505229
cpu0_STLB LOAD      ACCESS:     777630  HIT:     454351  MISS:     323279
cpu0_STLB RFO       ACCESS:     328358  HIT:     146408  MISS:     181950
cpu0_STLB PREFETCH  ACCESS:          0  HIT:          0  MISS:          0
cpu0_STLB WRITEBACK ACCESS:          0  HIT:          0  MISS:          0
cpu0_L1D TOTAL     ACCESS:   17908369  HIT:   17597194  MISS:     311175
cpu0_L1D LOAD      ACCESS:   11318110  HIT:   11074198  MISS:     243912
cpu0_L1D RFO       ACCESS:    6085035  HIT:    6019352  MISS:      65683
cpu0_L1D PREFETCH  ACCESS:          0  HIT:          0  MISS:          0
cpu0_L1D WRITEBACK ACCESS:          0  HIT:          0  MISS:          0
cpu0_L2C TOTAL     ACCESS:     379111  HIT:     161906  MISS:     217205
cpu0_L2C LOAD      ACCESS:     243912  HIT:      92520  MISS:     151392
cpu0_L2C RFO       ACCESS:      65683  HIT:          2  MISS:      65681
cpu0_L2C PREFETCH  ACCESS:          0  HIT:          0  MISS:          0
cpu0_L2C WRITEBACK ACCESS:      67936  HIT:      67866  MISS:         70
LLC TOTAL     ACCESS:     282809  HIT:     154425  MISS:     128384
LLC LOAD      ACCESS:     151392  HIT:      65207  MISS:      86185
LLC RFO       ACCESS:      65681  HIT:      23510  MISS:      42171
LLC PREFETCH  ACCESS:          0  HIT:          0  MISS:          0
LLC WRITEBACK ACCESS:      65674  HIT:      65664  MISS:         10
Heartbeat CPU 0 instructions: 92000001 cycles: 53982748 heartbeat IPC: 1.47477 cumulative IPC: 1.25069 (Simulation time: 1 hr 21 min 42 sec) 

Region of Interest Statistics
cpu0_DTLB TOTAL     ACCESS:   11929236  HIT:   10794066  MISS:    1135170
cpu0_DTLB LOAD      ACCESS:    9064911  HIT:    8265791  MISS:     799120
cpu0_DTLB RFO       ACCESS:    2864325  HIT:    2528275  MISS:     336050
cpu0_DTLB PREFETCH  ACCESS:          0  HIT:          0  MISS:          0
cpu0_DTLB WRITEBACK ACCESS:          0  HIT:          0  MISS:          0
cpu0_ITLB TOTAL     ACCESS:     577947  HIT:     577947  MISS:          0
cpu0_ITLB LOAD      ACCESS:     577947  HIT:     577947  MISS:          0
cpu0_ITLB RFO       ACCESS:          0  HIT:          0  MISS:          0
cpu0_ITLB PREFETCH  ACCESS:          0  HIT:          0  MISS:          0
cpu0_ITLB WRITEBACK ACCESS:          0  HIT:          0  MISS:          0
cpu0_L1I TOTAL     ACCESS:    3850830  HIT:    3850830  MISS:          0
cpu0_L1I LOAD      ACCESS:    3850830  HIT:    3850830  MISS:          0
cpu0_L1I RFO       ACCESS:          0  HIT:          0  MISS:          0
cpu0_L1I PREFETCH  ACCESS:          0  HIT:          0  MISS:          0
cpu0_L1I WRITEBACK ACCESS:          0  HIT:          0  MISS:          0
cpu0_STLB TOTAL     ACCESS:    1135170  HIT:     616511  MISS:     518659
cpu0_STLB LOAD      ACCESS:     799120  HIT:     467889  MISS:     331231
cpu0_STLB RFO       ACCESS:     336050  HIT:     148622  MISS:     187428
cpu0_STLB PREFETCH  ACCESS:          0  HIT:          0  MISS:          0
cpu0_STLB WRITEBACK ACCESS:          0  HIT:          0  MISS:          0
cpu0_L1D TOTAL     ACCESS:   18784920  HIT:   18462011  MISS:     322909
cpu0_L1D LOAD      ACCESS:   11894879  HIT:   11640286  MISS:     254593
cpu0_L1D RFO       ACCESS:    6371387  HIT:    6304708  MISS:      66679
cpu0_L1D PREFETCH  ACCESS:          0  HIT:          0  MISS:          0
cpu0_L1D WRITEBACK ACCESS:          0  HIT:          0  MISS:          0
cpu0_L2C TOTAL     ACCESS:     391956  HIT:     168275  MISS:     223681
cpu0_L2C LOAD      ACCESS:     254593  HIT:      97723  MISS:     156870
cpu0_L2C RFO       ACCESS:      66679  HIT:          2  MISS:      66677
cpu0_L2C PREFETCH  ACCESS:          0  HIT:          0  MISS:          0
cpu0_L2C WRITEBACK ACCESS:      69047  HIT:      68977  MISS:         70
LLC TOTAL     ACCESS:     290046  HIT:     158641  MISS:     131405
LLC LOAD      ACCESS:     156870  HIT:      68660  MISS:      88210
LLC RFO       ACCESS:      66677  HIT:      23510  MISS:      43167
LLC PREFETCH  ACCESS:          0  HIT:          0  MISS:          0
LLC WRITEBACK ACCESS:      66435  HIT:      66425  MISS:         10
Heartbeat CPU 0 instructions: 94000000 cycles: 55359895 heartbeat IPC: 1.45228 cumulative IPC: 1.25863 (Simulation time: 1 hr 23 min 38 sec) 

Region of Interest Statistics
cpu0_DTLB TOTAL     ACCESS:   12482746  HIT:   11316571  MISS:    1166175
cpu0_DTLB LOAD      ACCESS:    9500771  HIT:    8678386  MISS:     822385
cpu0_DTLB RFO       ACCESS:    2981975  HIT:    2638185  MISS:     343790
cpu0_DTLB PREFETCH  ACCESS:          0  HIT:          0  MISS:          0
cpu0_DTLB WRITEBACK ACCESS:          0  HIT:          0  MISS:          0
cpu0_ITLB TOTAL     ACCESS:     606746  HIT:     606746  MISS:          0
cpu0_ITLB LOAD      ACCESS:     606746  HIT:     606746  MISS:          0
cpu0_ITLB RFO       ACCESS:          0  HIT:          0  MISS:          0
cpu0_ITLB PREFETCH  ACCESS:          0  HIT:          0  MISS:          0
cpu0_ITLB WRITEBACK ACCESS:          0  HIT:          0  MISS:          0
cpu0_L1I TOTAL     ACCESS:    4044019  HIT:    4044019  MISS:          0
cpu0_L1I LOAD      ACCESS:    4044019  HIT:    4044019  MISS:          0
cpu0_L1I RFO       ACCESS:          0  HIT:          0  MISS:          0
cpu0_L1I PREFETCH  ACCESS:          0  HIT:          0  MISS:          0
cpu0_L1I WRITEBACK ACCESS:          0  HIT:          0  MISS:          0
cpu0_STLB TOTAL     ACCESS:    1166175  HIT:     632393  MISS:     533782
cpu0_STLB LOAD      ACCESS:     822385  HIT:     482154  MISS:     340231
cpu0_STLB RFO       ACCESS:     343790  HIT:     150239  MISS:     193551
cpu0_STLB PREFETCH  ACCESS:          0  HIT:          0  MISS:          0
cpu0_STLB WRITEBACK ACCESS:          0  HIT:          0  MISS:          0
cpu0_L1D TOTAL     ACCESS:   19662586  HIT:   19328014  MISS:     334572
cpu0_L1D LOAD      ACCESS:   12470699  HIT:   12205511  MISS:     265188
cpu0_L1D RFO       ACCESS:    6658110  HIT:    6590435  MISS:      67675
cpu0_L1D PREFETCH  ACCESS:          0  HIT:          0  MISS:          0
cpu0_L1D WRITEBACK ACCESS:          0  HIT:          0  MISS:          0
cpu0_L2C TOTAL     ACCESS:     404737  HIT:     174565  MISS:     230172
cpu0_L2C LOAD      ACCESS:     265188  HIT:     102823  MISS:     162365
cpu0_L2C RFO       ACCESS:      67675  HIT:          2  MISS:      67673
cpu0_L2C PREFETCH  ACCESS:          0  HIT:          0  MISS:          0
cpu0_L2C WRITEBACK ACCESS:      70165  HIT:      70095  MISS:         70
LLC TOTAL     ACCESS:     297752  HIT:     163186  MISS:     134566
LLC LOAD      ACCESS:     162365  HIT:      71990  MISS:      90375
LLC RFO       ACCESS:      67673  HIT:      23510  MISS:      44163
LLC PREFETCH  ACCESS:          0  HIT:          0  MISS:          0
LLC WRITEBACK ACCESS:      67650  HIT:      67640  MISS:         10
Heartbeat CPU 0 instructions: 96000003 cycles: 56706983 heartbeat IPC: 1.48469 cumulative IPC: 1.26702 (Simulation time: 1 hr 25 min 35 sec) 

Region of Interest Statistics
cpu0_DTLB TOTAL     ACCESS:   13036299  HIT:   11839497  MISS:    1196802
cpu0_DTLB LOAD      ACCESS:    9936461  HIT:    9091141  MISS:     845320
cpu0_DTLB RFO       ACCESS:    3099838  HIT:    2748356  MISS:     351482
cpu0_DTLB PREFETCH  ACCESS:          0  HIT:          0  MISS:          0
cpu0_DTLB WRITEBACK ACCESS:          0  HIT:          0  MISS:          0
cpu0_ITLB TOTAL     ACCESS:     635580  HIT:     635580  MISS:          0
cpu0_ITLB LOAD      ACCESS:     635580  HIT:     635580  MISS:          0
cpu0_ITLB RFO       ACCESS:          0  HIT:          0  MISS:          0
cpu0_ITLB PREFETCH  ACCESS:          0  HIT:          0  MISS:          0
cpu0_ITLB WRITEBACK ACCESS:          0  HIT:          0  MISS:          0
cpu0_L1I TOTAL     ACCESS:    4237720  HIT:    4237720  MISS:          0
cpu0_L1I LOAD      ACCESS:    4237720  HIT:    4237720  MISS:          0
cpu0_L1I RFO       ACCESS:          0  HIT:          0  MISS:          0
cpu0_L1I PREFETCH  ACCESS:          0  HIT:          0  MISS:          0
cpu0_L1I WRITEBACK ACCESS:          0  HIT:          0  MISS:          0
cpu0_STLB TOTAL     ACCESS:    1196802  HIT:     650069  MISS:     546733
cpu0_STLB LOAD      ACCESS:     845320  HIT:     497532  MISS:     347788
cpu0_STLB RFO       ACCESS:     351482  HIT:     152537  MISS:     198945
cpu0_STLB PREFETCH  ACCESS:          0  HIT:          0  MISS:          0
cpu0_STLB WRITEBACK ACCESS:          0  HIT:          0  MISS:          0
cpu0_L1D TOTAL     ACCESS:   20538854  HIT:   20192597  MISS:     346257
cpu0_L1D LOAD      ACCESS:   13047481  HIT:   12771679  MISS:     275802
cpu0_L1D RFO       ACCESS:    6944645  HIT:    6875973  MISS:      68672
cpu0_L1D PREFETCH  ACCESS:          0  HIT:          0  MISS:          0
cpu0_L1D WRITEBACK ACCESS:          0  HIT:          0  MISS:          0
cpu0_L2C TOTAL     ACCESS:     417538  HIT:     180891  MISS:     236647
cpu0_L2C LOAD      ACCESS:     275802  HIT:     107959  MISS:     167843
cpu0_L2C RFO       ACCESS:      68672  HIT:          2  MISS:      68670
cpu0_L2C PREFETCH  ACCESS:          0  HIT:          0  MISS:          0
cpu0_L2C WRITEBACK ACCESS:      71281  HIT:      71211  MISS:         70
LLC TOTAL     ACCESS:     305084  HIT:     167489  MISS:     137595
LLC LOAD      ACCESS:     167843  HIT:      75436  MISS:      92407
LLC RFO       ACCESS:      68670  HIT:      23510  MISS:      45160
LLC PREFETCH  ACCESS:          0  HIT:          0  MISS:          0
LLC WRITEBACK ACCESS:      68507  HIT:      68497  MISS:         10
Heartbeat CPU 0 instructions: 98000001 cycles: 58048571 heartbeat IPC: 1.49077 cumulative IPC: 1.27499 (Simulation time: 1 hr 27 min 39 sec) 

Region of Interest Statistics
cpu0_DTLB TOTAL     ACCESS:   13589163  HIT:   12362975  MISS:    1226188
cpu0_DTLB LOAD      ACCESS:   10372029  HIT:    9505015  MISS:     867014
cpu0_DTLB RFO       ACCESS:    3217134  HIT:    2857960  MISS:     359174
cpu0_DTLB PREFETCH  ACCESS:          0  HIT:          0  MISS:          0
cpu0_DTLB WRITEBACK ACCESS:          0  HIT:          0  MISS:          0
cpu0_ITLB TOTAL     ACCESS:     664381  HIT:     664381  MISS:          0
cpu0_ITLB LOAD      ACCESS:     664381  HIT:     664381  MISS:          0
cpu0_ITLB RFO       ACCESS:          0  HIT:          0  MISS:          0
cpu0_ITLB PREFETCH  ACCESS:          0  HIT:          0  MISS:          0
cpu0_ITLB WRITEBACK ACCESS:          0  HIT:          0  MISS:          0
cpu0_L1I TOTAL     ACCESS:    4431170  HIT:    4431170  MISS:          0
cpu0_L1I LOAD      ACCESS:    4431170  HIT:    4431170  MISS:          0
cpu0_L1I RFO       ACCESS:          0  HIT:          0  MISS:          0
cpu0_L1I PREFETCH  ACCESS:          0  HIT:          0  MISS:          0
cpu0_L1I WRITEBACK ACCESS:          0  HIT:          0  MISS:          0
cpu0_STLB TOTAL     ACCESS:    1226188  HIT:     664272  MISS:     561916
cpu0_STLB LOAD      ACCESS:     867014  HIT:     510166  MISS:     356848
cpu0_STLB RFO       ACCESS:     359174  HIT:     154106  MISS:     205068
cpu0_STLB PREFETCH  ACCESS:          0  HIT:          0  MISS:          0
cpu0_STLB WRITEBACK ACCESS:          0  HIT:          0  MISS:          0
cpu0_L1D TOTAL     ACCESS:   21417001  HIT:   21059040  MISS:     357961
cpu0_L1D LOAD      ACCESS:   13623802  HIT:   13337349  MISS:     286453
cpu0_L1D RFO       ACCESS:    7231288  HIT:    7161615  MISS:      69673
cpu0_L1D PREFETCH  ACCESS:          0  HIT:          0  MISS:          0
cpu0_L1D WRITEBACK ACCESS:          0  HIT:          0  MISS:          0
cpu0_L2C TOTAL     ACCESS:     430358  HIT:     187230  MISS:     243128
cpu0_L2C LOAD      ACCESS:     286453  HIT:     113130  MISS:     173323
cpu0_L2C RFO       ACCESS:      69673  HIT:          2  MISS:      69671
cpu0_L2C PREFETCH  ACCESS:          0  HIT:          0  MISS:          0
cpu0_L2C WRITEBACK ACCESS:      72397  HIT:      72327  MISS:         70
LLC TOTAL     ACCESS:     312506  HIT:     171893  MISS:     140613
LLC LOAD      ACCESS:     173323  HIT:      78899  MISS:      94424
LLC RFO       ACCESS:      69671  HIT:      23510  MISS:      46161
LLC PREFETCH  ACCESS:          0  HIT:          0  MISS:          0
LLC WRITEBACK ACCESS:      69448  HIT:      69438  MISS:         10
Heartbeat CPU 0 instructions: 100000001 cycles: 59387486 heartbeat IPC: 1.49375 cumulative IPC: 1.2825 (Simulation time: 1 hr 29 min 30 sec) 

Region of Interest Statistics
cpu0_DTLB TOTAL     ACCESS:   14142802  HIT:   12884919  MISS:    1257883
cpu0_DTLB LOAD      ACCESS:   10807907  HIT:    9917244  MISS:     890663
cpu0_DTLB RFO       ACCESS:    3334895  HIT:    2967675  MISS:     367220
cpu0_DTLB PREFETCH  ACCESS:          0  HIT:          0  MISS:          0
cpu0_DTLB WRITEBACK ACCESS:          0  HIT:          0  MISS:          0
cpu0_ITLB TOTAL     ACCESS:     693205  HIT:     693205  MISS:          0
cpu0_ITLB LOAD      ACCESS:     693205  HIT:     693205  MISS:          0
cpu0_ITLB RFO       ACCESS:          0  HIT:          0  MISS:          0
cpu0_ITLB PREFETCH  ACCESS:          0  HIT:          0  MISS:          0
cpu0_ITLB WRITEBACK ACCESS:          0  HIT:          0  MISS:          0
cpu0_L1I TOTAL     ACCESS:    4624603  HIT:    4624603  MISS:          0
cpu0_L1I LOAD      ACCESS:    4624603  HIT:    4624603  MISS:          0
cpu0_L1I RFO       ACCESS:          0  HIT:          0  MISS:          0
cpu0_L1I PREFETCH  ACCESS:          0  HIT:          0  MISS:          0
cpu0_L1I WRITEBACK ACCESS:          0  HIT:          0  MISS:          0
cpu0_STLB TOTAL     ACCESS:    1257883  HIT:     682575  MISS:     575308
cpu0_STLB LOAD      ACCESS:     890663  HIT:     525902  MISS:     364761
cpu0_STLB RFO       ACCESS:     367220  HIT:     156673  MISS:     210547
cpu0_STLB PREFETCH  ACCESS:          0  HIT:          0  MISS:          0
cpu0_STLB WRITEBACK ACCESS:          0  HIT:          0  MISS:          0
cpu0_L1D TOTAL     ACCESS:   22293974  HIT:   21924378  MISS:     369596
cpu0_L1D LOAD      ACCESS:   14200770  HIT:   13903751  MISS:     297019
cpu0_L1D RFO       ACCESS:    7517901  HIT:    7447232  MISS:      70669
cpu0_L1D PREFETCH  ACCESS:          0  HIT:          0  MISS:          0
cpu0_L1D WRITEBACK ACCESS:          0  HIT:          0  MISS:          0
cpu0_L2C TOTAL     ACCESS:     443112  HIT:     193509  MISS:     249603
cpu0_L2C LOAD      ACCESS:     297019  HIT:     118217  MISS:     178802
cpu0_L2C RFO       ACCESS:      70669  HIT:          2  MISS:      70667
cpu0_L2C PREFETCH  ACCESS:          0  HIT:          0  MISS:          0
cpu0_L2C WRITEBACK ACCESS:      73516  HIT:      73446  MISS:         70
LLC TOTAL     ACCESS:     320092  HIT:     176500  MISS:     143592
LLC LOAD      ACCESS:     178802  HIT:      82395  MISS:      96407
LLC RFO       ACCESS:      70667  HIT:      23510  MISS:      47157
LLC PREFETCH  ACCESS:          0  HIT:          0  MISS:          0
LLC WRITEBACK ACCESS:      70559  HIT:      70549  MISS:         10
Heartbeat CPU 0 instructions: 102000004 cycles: 60727340 heartbeat IPC: 1.4927 cumulative IPC: 1.28949 (Simulation time: 1 hr 31 min 26 sec) 

Region of Interest Statistics
cpu0_DTLB TOTAL     ACCESS:   14694268  HIT:   13402511  MISS:    1291757
cpu0_DTLB LOAD      ACCESS:   11241487  HIT:   10325626  MISS:     915861
cpu0_DTLB RFO       ACCESS:    3452781  HIT:    3076885  MISS:     375896
cpu0_DTLB PREFETCH  ACCESS:          0  HIT:          0  MISS:          0
cpu0_DTLB WRITEBACK ACCESS:          0  HIT:          0  MISS:          0
cpu0_ITLB TOTAL     ACCESS:     721988  HIT:     721988  MISS:          0
cpu0_ITLB LOAD      ACCESS:     721988  HIT:     721988  MISS:          0
cpu0_ITLB RFO       ACCESS:          0  HIT:          0  MISS:          0
cpu0_ITLB PREFETCH  ACCESS:          0  HIT:          0  MISS:          0
cpu0_ITLB WRITEBACK ACCESS:          0  HIT:          0  MISS:          0
cpu0_L1I TOTAL     ACCESS:    4817977  HIT:    4817977  MISS:          0
cpu0_L1I LOAD      ACCESS:    4817977  HIT:    4817977  MISS:          0
cpu0_L1I RFO       ACCESS:          0  HIT:          0  MISS:          0
cpu0_L1I PREFETCH  ACCESS:          0  HIT:          0  MISS:          0
cpu0_L1I WRITEBACK ACCESS:          0  HIT:          0  MISS:          0
cpu0_STLB TOTAL     ACCESS:    1291757  HIT:     702801  MISS:     588956
cpu0_STLB LOAD      ACCESS:     915861  HIT:     543009  MISS:     372852
cpu0_STLB RFO       ACCESS:     375896  HIT:     159792  MISS:     216104
cpu0_STLB PREFETCH  ACCESS:          0  HIT:          0  MISS:          0
cpu0_STLB WRITEBACK ACCESS:          0  HIT:          0  MISS:          0
cpu0_L1D TOTAL     ACCESS:   23170751  HIT:   22789417  MISS:     381334
cpu0_L1D LOAD      ACCESS:   14777451  HIT:   14469750  MISS:     307701
cpu0_L1D RFO       ACCESS:    7804349  HIT:    7732684  MISS:      71665
cpu0_L1D PREFETCH  ACCESS:          0  HIT:          0  MISS:          0
cpu0_L1D WRITEBACK ACCESS:          0  HIT:          0  MISS:          0
cpu0_L2C TOTAL     ACCESS:     455959  HIT:     199881  MISS:     256078
cpu0_L2C LOAD      ACCESS:     307701  HIT:     123420  MISS:     184281
cpu0_L2C RFO       ACCESS:      71665  HIT:          2  MISS:      71663
cpu0_L2C PREFETCH  ACCESS:          0  HIT:          0  MISS:          0
cpu0_L2C WRITEBACK ACCESS:      74625  HIT:      74555  MISS:         70
LLC TOTAL     ACCESS:     327565  HIT:     180957  MISS:     146608
LLC LOAD      ACCESS:     184281  HIT:      85854  MISS:      98427
LLC RFO       ACCESS:      71663  HIT:      23510  MISS:      48153
LLC PREFETCH  ACCESS:          0  HIT:          0  MISS:          0
LLC WRITEBACK ACCESS:      71557  HIT:      71547  MISS:         10
Heartbeat CPU 0 instructions: 104000004 cycles: 62072229 heartbeat IPC: 1.48711 cumulative IPC: 1.29587 (Simulation time: 1 hr 33 min 22 sec) 

Region of Interest Statistics
cpu0_DTLB TOTAL     ACCESS:   15247618  HIT:   13925414  MISS:    1322204
cpu0_DTLB LOAD      ACCESS:   11677211  HIT:   10738646  MISS:     938565
cpu0_DTLB RFO       ACCESS:    3570407  HIT:    3186768  MISS:     383639
cpu0_DTLB PREFETCH  ACCESS:          0  HIT:          0  MISS:          0
cpu0_DTLB WRITEBACK ACCESS:          0  HIT:          0  MISS:          0
cpu0_ITLB TOTAL     ACCESS:     750814  HIT:     750814  MISS:          0
cpu0_ITLB LOAD      ACCESS:     750814  HIT:     750814  MISS:          0
cpu0_ITLB RFO       ACCESS:          0  HIT:          0  MISS:          0
cpu0_ITLB PREFETCH  ACCESS:          0  HIT:          0  MISS:          0
cpu0_ITLB WRITEBACK ACCESS:          0  HIT:          0  MISS:          0
cpu0_L1I TOTAL     ACCESS:    5011172  HIT:    5011172  MISS:          0
cpu0_L1I LOAD      ACCESS:    5011172  HIT:    5011172  MISS:          0
cpu0_L1I RFO       ACCESS:          0  HIT:          0  MISS:          0
cpu0_L1I PREFETCH  ACCESS:          0  HIT:          0  MISS:          0
cpu0_L1I WRITEBACK ACCESS:          0  HIT:          0  MISS:          0
cpu0_STLB TOTAL     ACCESS:    1322204  HIT:     718333  MISS:     603871
cpu0_STLB LOAD      ACCESS:     938565  HIT:     556845  MISS:     381720
cpu0_STLB RFO       ACCESS:     383639  HIT:     161488  MISS:     222151
cpu0_STLB PREFETCH  ACCESS:          0  HIT:          0  MISS:          0
cpu0_STLB WRITEBACK ACCESS:          0  HIT:          0  MISS:          0
cpu0_L1D TOTAL     ACCESS:   24048329  HIT:   23655359  MISS:     392970
cpu0_L1D LOAD      ACCESS:   15353677  HIT:   15035408  MISS:     318269
cpu0_L1D RFO       ACCESS:    8090786  HIT:    8018125  MISS:      72661
cpu0_L1D PREFETCH  ACCESS:          0  HIT:          0  MISS:          0
cpu0_L1D WRITEBACK ACCESS:          0  HIT:          0  MISS:          0
cpu0_L2C TOTAL     ACCESS:     468710  HIT:     206156  MISS:     262554
cpu0_L2C LOAD      ACCESS:     318269  HIT:     128508  MISS:     189761
cpu0_L2C RFO       ACCESS:      72661  HIT:          2  MISS:      72659
cpu0_L2C PREFETCH  ACCESS:          0  HIT:          0  MISS:          0
cpu0_L2C WRITEBACK ACCESS:      75740  HIT:      75670  MISS:         70
LLC TOTAL     ACCESS:     335057  HIT:     185432  MISS:     149625
LLC LOAD      ACCESS:     189761  HIT:      89313  MISS:     100448
LLC RFO       ACCESS:      72659  HIT:      23510  MISS:      49149
LLC PREFETCH  ACCESS:          0  HIT:          0  MISS:          0
LLC WRITEBACK ACCESS:      72573  HIT:      72563  MISS:         10
Heartbeat CPU 0 instructions: 106000002 cycles: 63418637 heartbeat IPC: 1.48543 cumulative IPC: 1.3018 (Simulation time: 1 hr 35 min 16 sec) 

Region of Interest Statistics
cpu0_DTLB TOTAL     ACCESS:   15801687  HIT:   14448758  MISS:    1352929
cpu0_DTLB LOAD      ACCESS:   12113667  HIT:   11152068  MISS:     961599
cpu0_DTLB RFO       ACCESS:    3688020  HIT:    3296690  MISS:     391330
cpu0_DTLB PREFETCH  ACCESS:          0  HIT:          0  MISS:          0
cpu0_DTLB WRITEBACK ACCESS:          0  HIT:          0  MISS:          0
cpu0_ITLB TOTAL     ACCESS:     779634  HIT:     779634  MISS:          0
cpu0_ITLB LOAD      ACCESS:     779634  HIT:     779634  MISS:          0
cpu0_ITLB RFO       ACCESS:          0  HIT:          0  MISS:          0
cpu0_ITLB PREFETCH  ACCESS:          0  HIT:          0  MISS:          0
cpu0_ITLB WRITEBACK ACCESS:          0  HIT:          0  MISS:          0
cpu0_L1I TOTAL     ACCESS:    5204909  HIT:    5204909  MISS:          0
cpu0_L1I LOAD      ACCESS:    5204909  HIT:    5204909  MISS:          0
cpu0_L1I RFO       ACCESS:          0  HIT:          0  MISS:          0
cpu0_L1I PREFETCH  ACCESS:          0  HIT:          0  MISS:          0
cpu0_L1I WRITEBACK ACCESS:          0  HIT:          0  MISS:          0
cpu0_STLB TOTAL     ACCESS:    1352929  HIT:     736124  MISS:     616805
cpu0_STLB LOAD      ACCESS:     961599  HIT:     572337  MISS:     389262
cpu0_STLB RFO       ACCESS:     391330  HIT:     163787  MISS:     227543
cpu0_STLB PREFETCH  ACCESS:          0  HIT:          0  MISS:          0
cpu0_STLB WRITEBACK ACCESS:          0  HIT:          0  MISS:          0
cpu0_L1D TOTAL     ACCESS:   24924546  HIT:   24519885  MISS:     404661
cpu0_L1D LOAD      ACCESS:   15930479  HIT:   15601587  MISS:     328892
cpu0_L1D RFO       ACCESS:    8377267  HIT:    8303610  MISS:      73657
cpu0_L1D PREFETCH  ACCESS:          0  HIT:          0  MISS:          0
cpu0_L1D WRITEBACK ACCESS:          0  HIT:          0  MISS:          0
cpu0_L2C TOTAL     ACCESS:     481519  HIT:     212490  MISS:     269029
cpu0_L2C LOAD      ACCESS:     328892  HIT:     133652  MISS:     195240
cpu0_L2C RFO       ACCESS:      73657  HIT:          2  MISS:      73655
cpu0_L2C PREFETCH  ACCESS:          0  HIT:          0  MISS:          0
cpu0_L2C WRITEBACK ACCESS:      76858  HIT:      76788  MISS:         70
[...]
cpu0_L1I TOTAL     ACCESS:  137990375  HIT:  137990375  MISS:          0
cpu0_L1I LOAD      ACCESS:  137990375  HIT:  137990375  MISS:          0
cpu0_L1I RFO       ACCESS:          0  HIT:          0  MISS:          0
cpu0_L1I PREFETCH  ACCESS:          0  HIT:          0  MISS:          0
cpu0_L1I WRITEBACK ACCESS:          0  HIT:          0  MISS:          0
cpu0_STLB TOTAL     ACCESS:   39754972  HIT:   20963006  MISS:   18791966
cpu0_STLB LOAD      ACCESS:   27743635  HIT:   15795140  MISS:   11948495
cpu0_STLB RFO       ACCESS:   12011337  HIT:    5167866  MISS:    6843471
cpu0_STLB PREFETCH  ACCESS:          0  HIT:          0  MISS:          0
cpu0_STLB WRITEBACK ACCESS:          0  HIT:          0  MISS:          0
cpu0_L1D TOTAL     ACCESS:  671228668  HIT:  659637478  MISS:   11591190
cpu0_L1D LOAD      ACCESS:  425425191  HIT:  416168963  MISS:    9256228
cpu0_L1D RFO       ACCESS:  227011982  HIT:  224731729  MISS:    2280253
cpu0_L1D PREFETCH  ACCESS:          0  HIT:          0  MISS:          0
cpu0_L1D WRITEBACK ACCESS:          0  HIT:          0  MISS:          0
cpu0_L2C TOTAL     ACCESS:   13957212  HIT:    6161861  MISS:    7795351
cpu0_L2C LOAD      ACCESS:    9256219  HIT:    3745660  MISS:    5510559
cpu0_L2C RFO       ACCESS:    2280253  HIT:         78  MISS:    2280175
cpu0_L2C PREFETCH  ACCESS:          0  HIT:          0  MISS:          0
cpu0_L2C WRITEBACK ACCESS:    2366031  HIT:    2363622  MISS:       2409
LLC TOTAL     ACCESS:   10074153  HIT:    5615258  MISS:    4458895
LLC LOAD      ACCESS:    5510559  HIT:    2507909  MISS:    3002650
LLC RFO       ACCESS:    2280175  HIT:     825537  MISS:    1454638
LLC PREFETCH  ACCESS:          0  HIT:          0  MISS:          0
LLC WRITEBACK ACCESS:    2281211  HIT:    2279769  MISS:       1442
Finished CPU 0 instructions: 1500000000 cycles: 1187196202 cumulative IPC: 1.26348 (Simulation time: 16 hr 42 min 35 sec) 

ChampSim completed all CPUs

Region of Interest Statistics

CPU 0 cumulative IPC: 1.26348 instructions: 1500000000 cycles: 1187196202
cpu0_DTLB TOTAL     ACCESS:  425750275  HIT:  385995303  MISS:   39754972
cpu0_DTLB LOAD      ACCESS:  324381718  HIT:  296638083  MISS:   27743635
cpu0_DTLB RFO       ACCESS:  101368557  HIT:   89357220  MISS:   12011337
cpu0_DTLB PREFETCH  ACCESS:          0  HIT:          0  MISS:          0
cpu0_DTLB WRITEBACK ACCESS:          0  HIT:          0  MISS:          0
cpu0_DTLB TRANSLATION ACCESS:          0  HIT:          0  MISS:          0
cpu0_DTLB PREFETCH  REQUESTED:          0  ISSUED:          0  USEFUL:          0  USELESS:          0
cpu0_DTLB AVERAGE MISS LATENCY: 13.5758 cycles
cpu0_ITLB TOTAL     ACCESS:   20705726  HIT:   20705726  MISS:          0
cpu0_ITLB LOAD      ACCESS:   20705726  HIT:   20705726  MISS:          0
cpu0_ITLB RFO       ACCESS:          0  HIT:          0  MISS:          0
cpu0_ITLB PREFETCH  ACCESS:          0  HIT:          0  MISS:          0
cpu0_ITLB WRITEBACK ACCESS:          0  HIT:          0  MISS:          0
cpu0_ITLB TRANSLATION ACCESS:          0  HIT:          0  MISS:          0
cpu0_ITLB PREFETCH  REQUESTED:          0  ISSUED:          0  USEFUL:          0  USELESS:          0
cpu0_ITLB AVERAGE MISS LATENCY: -nan cycles
cpu0_L1I TOTAL     ACCESS:  137990375  HIT:  137990375  MISS:          0
cpu0_L1I LOAD      ACCESS:  137990375  HIT:  137990375  MISS:          0
cpu0_L1I RFO       ACCESS:          0  HIT:          0  MISS:          0
cpu0_L1I PREFETCH  ACCESS:          0  HIT:          0  MISS:          0
cpu0_L1I WRITEBACK ACCESS:          0  HIT:          0  MISS:          0
cpu0_L1I TRANSLATION ACCESS:          0  HIT:          0  MISS:          0
cpu0_L1I PREFETCH  REQUESTED:          0  ISSUED:          0  USEFUL:          0  USELESS:          0
cpu0_L1I AVERAGE MISS LATENCY: -nan cycles
cpu0_STLB TOTAL     ACCESS:   39754972  HIT:   20963006  MISS:   18791966
cpu0_STLB LOAD      ACCESS:   27743635  HIT:   15795140  MISS:   11948495
cpu0_STLB RFO       ACCESS:   12011337  HIT:    5167866  MISS:    6843471
cpu0_STLB PREFETCH  ACCESS:          0  HIT:          0  MISS:          0
cpu0_STLB WRITEBACK ACCESS:          0  HIT:          0  MISS:          0
cpu0_STLB TRANSLATION ACCESS:          0  HIT:          0  MISS:          0
cpu0_STLB PREFETCH  REQUESTED:          0  ISSUED:          0  USEFUL:          0  USELESS:          0
cpu0_STLB AVERAGE MISS LATENCY: 8.66546 cycles
cpu0_L1D TOTAL     ACCESS:  671228668  HIT:  659637478  MISS:   11591190
cpu0_L1D LOAD      ACCESS:  425425191  HIT:  416168963  MISS:    9256228
cpu0_L1D RFO       ACCESS:  227011982  HIT:  224731729  MISS:    2280253
cpu0_L1D PREFETCH  ACCESS:          0  HIT:          0  MISS:          0
cpu0_L1D WRITEBACK ACCESS:          0  HIT:          0  MISS:          0
cpu0_L1D TRANSLATION ACCESS:   18791495  HIT:   18736786  MISS:      54709
cpu0_L1D PREFETCH  REQUESTED:          0  ISSUED:          0  USEFUL:          0  USELESS:          0
cpu0_L1D AVERAGE MISS LATENCY: 154.005 cycles
cpu0_L2C TOTAL     ACCESS:   13957212  HIT:    6161861  MISS:    7795351
cpu0_L2C LOAD      ACCESS:    9256219  HIT:    3745660  MISS:    5510559
cpu0_L2C RFO       ACCESS:    2280253  HIT:         78  MISS:    2280175
cpu0_L2C PREFETCH  ACCESS:          0  HIT:          0  MISS:          0
cpu0_L2C WRITEBACK ACCESS:    2366031  HIT:    2363622  MISS:       2409
cpu0_L2C TRANSLATION ACCESS:      54709  HIT:      52501  MISS:       2208
cpu0_L2C PREFETCH  REQUESTED:          0  ISSUED:          0  USEFUL:          0  USELESS:          0
cpu0_L2C AVERAGE MISS LATENCY: 212.289 cycles
LLC TOTAL     ACCESS:   10074153  HIT:    5615258  MISS:    4458895
LLC LOAD      ACCESS:    5510559  HIT:    2507909  MISS:    3002650
LLC RFO       ACCESS:    2280175  HIT:     825537  MISS:    1454638
LLC PREFETCH  ACCESS:          0  HIT:          0  MISS:          0
LLC WRITEBACK ACCESS:    2281211  HIT:    2279769  MISS:       1442
LLC TRANSLATION ACCESS:       2208  HIT:       2043  MISS:        165
LLC PREFETCH  REQUESTED:          0  ISSUED:          0  USEFUL:          0  USELESS:          0
LLC AVERAGE MISS LATENCY: 334.433 cycles
~~~~~~~~~~Reuse Distance Profiler output~~~~~~~~~~
0	88198064	5414208
1	36243808	9477248
2	29639680	11171744
3	22678816	14607824
4	23322240	18482496
5	19448672	16140224
6	17989520	15675168
7	15973312	13893168
8	14396752	12151152
9	13689920	11968864
10	12136160	10523968
11	11228176	9774624
12	9791056	8607552
13	8475216	7761232
14	8425568	7814288
15	6834752	6203200
16	6734880	6147216
17	7633488	6491808
18	6852848	5779616
19	5663936	5040272
20	5319632	4814208
21	5230448	4795952
22	4323168	3834160
23	4375408	3868208
24	4730672	3851328
25	5000896	4003600
26	5257728	4235120
27	5892272	4465552
28	4069328	3378480
29	4089680	3449232
30	3674816	2947088
31	3628448	3051088
32	4733040	3719856
33	4605344	3567968
34	4898272	3319920
35	4327216	3217520
36	4637104	3276400
37	4950336	3434736
38	4920512	3243840
39	5209216	3671616
40	3929792	2989744
41	3002720	2344144
42	2592496	2058208
43	2186704	1610960
44	2061248	1396192
45	2204928	1484976
46	1728064	1198144
47	1732096	1186816
48	1759456	1298208
49	1604560	1134064
50	1367616	1102080
51	1206032	1017904
52	1509760	1393120
53	1902352	1794272
54	1288512	1202720
55	1719584	1519904
56	1259152	1088064
57	1250240	1071584
58	1103552	889504
59	1043104	920416
60	968304	888288
61	966880	860096
62	843744	759664
63	578896	440064
64	996000	890096
66	1163648	987408
68	1225520	1068528
70	1127616	844560
72	1538128	862160
74	1323024	1034688
76	1220144	846288
78	1443968	1113680
80	1462352	1078848
82	1317424	978544
84	1472656	1093072
86	1816528	1125648
88	1707184	1239344
90	2001472	1528224
92	2005152	1633584
94	1661568	1345360
96	1512720	1281504
98	1511936	1210576
100	1836096	1598048
102	1314928	1152528
104	1676512	1203504
106	1929792	1058192
108	1638080	894928
110	1139968	696384
112	979488	624000
114	931376	618496
116	738960	412608
118	526144	337792
120	457696	278416
122	594448	285200
124	779296	272320
126	787696	252352
128	1775184	571808
132	1469552	387648
136	1384080	313472
140	1532736	594992
144	1555392	806896
148	942496	660224
152	603312	519952
156	536448	491648
160	391392	368928
164	580128	557888
168	923040	888736
172	506432	487264
176	323872	281520
180	559376	518336
184	1138304	845280
188	919792	762128
192	801168	764416
196	1014384	960544
200	1326352	1071488
204	1541888	1176656
208	1202512	990944
212	911568	675392
216	845264	369968
220	438912	240432
224	303696	245216
228	251392	229872
232	175040	154304
236	208992	145984
240	504704	243744
244	451680	173152
248	376784	103632
252	456080	85536
256	1017536	90144
264	1312576	57184
272	1341328	47104
280	553872	15440
288	135600	10480
296	51616	16496
304	70000	19872
312	223552	32224
320	128384	27280
328	208368	163856
336	872944	861616
344	556352	551408
352	367328	219312
360	1047712	482000
368	1630784	855968
376	1650416	1038768
384	699088	383920
392	662048	290048
400	781552	407760
408	945568	638384
416	1328912	507168
424	1325120	347456
432	1245424	589584
440	873152	628112
448	1101088	639088
456	899632	529520
464	439696	294800
472	534704	341856
480	1000864	655776
488	1019280	603648
496	1152352	940496
504	1380448	1215888
512	2372816	1303568
528	2010224	1748544
544	2846032	2138768
560	2250752	1898736
576	1833616	1689664
592	3505040	3117216
608	5885328	5322864
624	7193872	7148128
640	20265952	17724432
656	15137664	13423696
672	2590208	2553008
688	1606128	1531488
704	1449472	1337120
720	561008	536480
736	108336	107472
752	17056	16240
768	12304	9248
784	8208	2288
800	5888	512
816	7136	5840
832	9712	8960
848	14480	10576
864	23008	19648
880	35264	27584
896	24704	23824
912	23264	23168
928	29632	29632
944	26736	26736
960	21856	21856
976	4256	4256
992	496	496
1008	192	176
1024	448	240
1056	1584	1520
1088	4464	4464
1120	800	800
1152	0	0
1184	0	0
1216	0	0
1248	0	0
1280	0	0
1312	0	0
1344	0	0
1376	0	0
1408	0	0
1440	0	0
1472	0	0
1504	0	0
1536	0	0
1568	0	0
1600	0	0
1632	0	0
1664	0	0
1696	0	0
1728	0	0
1760	0	0
1792	0	0
1824	0	0
1856	0	0
1888	0	0
1920	0	0
1952	0	0
1984	0	0
2016	0	0
2048	0	0
2112	0	0
2176	0	0
2240	0	0
2304	0	0
2368	0	0
2432	0	0
2496	0	0
2560	0	0
2624	0	0
2688	0	0
2752	0	0
2816	0	0
2880	0	0
2944	0	0
3008	0	0
3072	0	0
3136	0	0
3200	0	0
3264	0	0
3328	0	0
3392	0	0
3456	0	0
3520	0	0
3584	0	0
3648	0	0
3712	0	0
3776	0	0
3840	0	0
3904	0	0
3968	0	0
4032	16	16
4096	1856	1856
4224	15840	15840
4352	49232	49232
4480	76416	76384
4608	65584	65536
4736	1600	1584
4864	4288	4272
4992	64	16
5120	16	0
5248	0	0
5376	0	0
5504	0	0
5632	0	0
5760	0	0
5888	0	0
6016	0	0
6144	0	0
6272	0	0
6400	0	0
6528	0	0
6656	0	0
6784	0	0
6912	0	0
7040	0	0
7168	0	0
7296	0	0
7424	0	0
7552	0	0
7680	0	0
7808	0	0
7936	0	0
8064	0	0
8192	0	0
8448	0	0
8704	0	0
8960	0	0
9216	0	0
9472	0	0
9728	0	0
9984	0	0
10240	0	0
10496	0	0
10752	0	0
11008	0	0
11264	0	0
11520	0	0
11776	0	0
12032	0	0
12288	0	0
12544	0	0
12800	0	0
13056	0	0
13312	0	0
13568	0	0
13824	0	0
14080	0	0
14336	0	0
14592	0	0
14848	0	0
15104	0	0
15360	0	0
15616	0	0
15872	0	0
16128	0	0
16384	0	0
16896	0	0
17408	0	0
17920	0	0
18432	0	0
18944	0	0
19456	0	0
19968	0	0
20480	0	0
20992	0	0
21504	0	0
22016	0	0
22528	0	0
23040	0	0
23552	0	0
24064	0	0
24576	0	0
25088	0	0
25600	0	0
26112	0	0
26624	0	0
27136	0	0
27648	0	0
28160	0	0
28672	0	0
29184	0	0
29696	0	0
30208	0	0
30720	0	0
31232	0	0
31744	0	0
32256	0	0
32768	0	0
33792	0	0
34816	0	0
35840	0	0
36864	0	0
37888	0	0
38912	0	0
39936	0	0
40960	0	0
41984	0	0
43008	0	0
44032	0	0
45056	0	0
46080	0	0
47104	0	0
48128	0	0
49152	0	0
50176	0	0
51200	0	0
52224	0	0
53248	0	0
54272	0	0
55296	0	0
56320	0	0
57344	0	0
58368	0	0
59392	0	0
60416	0	0
61440	0	0
62464	0	0
63488	0	0
64512	0	0
65536	0	0
67584	0	0
69632	38864	38864
71680	3726464	3726464
73728	223968	223968
75776	116240	116240
77824	179504	179440
79872	992	992
81920	3936	3936
83968	1104	1104
86016	0	0
88064	0	0
90112	0	0
92160	0	0
94208	0	0
96256	0	0
98304	0	0
100352	0	0
102400	0	0
104448	0	0
106496	0	0
108544	0	0
110592	0	0
112640	0	0
114688	0	0
116736	0	0
118784	0	0
120832	0	0
122880	0	0
124928	0	0
126976	0	0
129024	0	0
131072	0	0
135168	0	0
139264	0	0
143360	0	0
147456	0	0
151552	0	0
155648	0	0
159744	0	0
163840	0	0
167936	0	0
172032	0	0
176128	0	0
180224	0	0
184320	0	0
188416	0	0
192512	0	0
196608	0	0
200704	0	0
204800	0	0
208896	0	0
212992	0	0
217088	0	0
221184	0	0
225280	0	0
229376	0	0
233472	0	0
237568	0	0
241664	0	0
245760	0	0
249856	0	0
253952	0	0
258048	0	0
262144	0	0
270336	0	0
278528	0	0
286720	0	0
294912	0	0
303104	0	0
311296	0	0
319488	0	0
327680	0	0
335872	0	0
344064	0	0
352256	0	0
360448	0	0
368640	0	0
376832	0	0
385024	0	0
393216	0	0
401408	0	0
409600	0	0
417792	0	0
425984	0	0
434176	0	0
442368	0	0
450560	0	0
458752	0	0
466944	0	0
475136	0	0
483328	0	0
491520	0	0
499712	0	0
507904	0	0
516096	0	0
524288	592	320
540672	10416	4544
557056	7824	3984
573440	7440	3920
589824	7008	3600
606208	6080	3200
622592	3600	1840
638976	3312	1552
655360	3440	1776
671744	2960	1392
688128	3360	1664
704512	2880	1344
720896	3184	1728
737280	3296	1712
753664	2992	1696
770048	3216	1616
786432	3328	1552
802816	3632	1984
819200	3328	1504
835584	3552	1888
851968	2816	1472
868352	2960	1552
884736	2992	1472
901120	3120	1344
917504	3456	1760
933888	3152	1520
950272	3104	1520
966656	3360	1808
983040	3056	1552
999424	3376	1600
1015808	2912	1520
1032192	3296	1824
1048576	6976	3472
1081344	6320	3104
1114112	6560	2992
1146880	6304	3024
1179648	6624	3088
1212416	6048	2720
1245184	6560	3120
1277952	7120	3376
1310720	6944	3488
1343488	6592	3520
1376256	6704	3424
1409024	6928	3360
1441792	5856	2656
1474560	6560	3376
1507328	6272	3184
1540096	6816	3392
1572864	6096	3248
1605632	6272	2864
1638400	6592	3152
1671168	6112	3024
1703936	6192	3024
1736704	6976	3520
1769472	7072	3312
1802240	5952	3152
1835008	6288	3216
1867776	6816	3120
1900544	6320	3200
1933312	6320	2928
1966080	6016	2800
1998848	5904	3024
2031616	6256	3232
2064384	6208	3072
2097152	12912	6080
2162688	12480	6000
2228224	14016	6192
2293760	13392	6640
2359296	12400	5968
2424832	12368	6240
2490368	13408	6576
2555904	12704	6432
2621440	13024	6448
2686976	12992	6640
2752512	12480	6816
2818048	12624	6480
2883584	13216	6768
2949120	12496	6256
3014656	13264	6640
3080192	12176	6352
3145728	13456	6480
3211264	12688	6304
3276800	12720	6672
3342336	13408	6768
3407872	12352	6480
3473408	13088	6448
3538944	12864	6144
3604480	12992	6592
3670016	12976	6672
3735552	12928	6544
3801088	13136	6832
3866624	13040	6512
3932160	13776	6336
3997696	12592	6000
4063232	12800	6336
4128768	12960	6192
4194304	25776	12912
4325376	26368	12384
4456448	25712	12752
4587520	25744	12592
4718592	26288	13216
4849664	25968	13152
4980736	25040	12768
5111808	25552	13136
5242880	25680	12704
5373952	25312	12416
5505024	25760	12816
5636096	25952	13312
5767168	25728	12800
5898240	25104	12016
6029312	25920	12464
6160384	25152	12832
6291456	26368	12768
6422528	25168	12512
6553600	25984	13008
6684672	25728	12752
6815744	25344	12384
6946816	25104	12576
7077888	25408	12816
7208960	25152	12448
7340032	24960	12448
7471104	25264	13168
7602176	26512	13616
7733248	24704	12016
7864320	26208	12432
7995392	25904	13216
8126464	25040	12736
8257536	25200	13232
8388608	51360	25648
8650752	50256	25168
8912896	50432	25264
9175040	8144	3856
9437184	1628544	1628080
9699328	32640	32240
9961472	9120	9120
10223616	54976	53248
10485760	21968	21952
10747904	21104	21104
11010048	21728	21712
11272192	22144	22144
11534336	22176	22176
11796480	22176	22176
12058624	22320	22320
12320768	22144	22144
12582912	22016	22016
12845056	21696	21696
13107200	21376	21376
13369344	22352	22352
13631488	20848	20848
13893632	21216	21216
14155776	22096	22096
14417920	21760	21760
14680064	21344	21344
14942208	20736	20736
15204352	21120	21120
15466496	21248	21248
15728640	21504	21504
15990784	22160	22160
16252928	21216	21216
16515072	22704	22704
16777216	42064	42064
17301504	43552	43552
17825792	43536	43536
18350080	43760	43728
18874368	12448	10432
19398656	496	496
19922944	176	144
20447232	0	0
20971520	0	0
21495808	0	0
22020096	0	0
22544384	0	0
23068672	0	0
23592960	0	0
24117248	0	0
24641536	0	0
25165824	0	0
25690112	0	0
26214400	0	0
26738688	0	0
27262976	0	0
27787264	0	0
28311552	0	0
28835840	0	0
29360128	0	0
29884416	0	0
30408704	0	0
30932992	0	0
31457280	0	0
31981568	0	0
32505856	0	0
33030144	0	0
33554432	0	0
34603008	0	0
35651584	0	0
36700160	0	0
37748736	0	0
38797312	0	0
39845888	0	0
40894464	0	0
41943040	0	0
42991616	0	0
44040192	0	0
45088768	0	0
46137344	0	0
47185920	0	0
48234496	0	0
49283072	0	0
50331648	0	0
51380224	0	0
52428800	0	0
53477376	0	0
54525952	0	0
55574528	0	0
56623104	0	0
57671680	0	0
58720256	0	0
59768832	0	0
60817408	0	0
61865984	0	0
62914560	0	0
63963136	0	0
65011712	0	0
66060288	0	0
67108864	0	0
69206016	0	0
71303168	0	0
73400320	0	0
75497472	0	0
77594624	0	0
79691776	0	0
81788928	0	0
83886080	0	0
85983232	0	0
88080384	0	0
90177536	0	0
92274688	0	0
94371840	0	0
96468992	0	0
98566144	0	0
100663296	0	0
102760448	0	0
104857600	0	0
106954752	0	0
109051904	0	0
111149056	0	0
113246208	0	0
115343360	0	0
117440512	0	0
119537664	0	0
121634816	0	0
123731968	0	0
125829120	0	0
127926272	0	0
130023424	0	0
132120576	0	0
134217728	0	0
138412032	0	0
142606336	0	0
146800640	0	0
150994944	0	0
155189248	0	0
159383552	0	0
163577856	0	0
167772160	0	0
171966464	0	0
176160768	0	0
180355072	0	0
184549376	0	0
188743680	0	0
192937984	0	0
197132288	0	0
201326592	0	0
205520896	0	0
209715200	0	0
213909504	0	0
218103808	0	0
222298112	0	0
226492416	0	0
230686720	0	0
234881024	0	0
239075328	0	0
243269632	0	0
247463936	0	0
251658240	0	0
255852544	0	0
260046848	0	0
264241152	0	0
268435456	0	0
276824064	0	0
285212672	0	0
293601280	0	0
301989888	0	0
310378496	0	0
318767104	0	0
327155712	0	0
335544320	0	0
343932928	0	0
352321536	0	0
360710144	0	0
369098752	0	0
377487360	0	0
385875968	0	0
394264576	0	0
402653184	0	0
411041792	0	0
419430400	0	0
427819008	0	0
436207616	0	0
444596224	0	0
452984832	0	0
461373440	0	0
469762048	0	0
478150656	0	0
486539264	0	0
494927872	0	0
503316480	0	0
511705088	0	0
520093696	0	0
528482304	0	0
536870912	0	0
553648128	0	0
570425344	0	0
587202560	0	0
603979776	0	0
620756992	0	0
637534208	0	0
654311424	0	0
671088640	0	0
687865856	0	0
704643072	0	0
721420288	0	0
738197504	0	0
754974720	0	0
771751936	0	0
788529152	0	0
805306368	0	0
822083584	0	0
838860800	0	0
855638016	0	0
872415232	0	0
889192448	0	0
905969664	0	0
922746880	0	0
939524096	0	0
956301312	0	0
973078528	0	0
989855744	0	0
1006632960	0	0
1023410176	0	0
1040187392	0	0
1056964608	0	0
1073741824	0	0
1107296256	0	0
1140850688	0	0
1174405120	0	0
1207959552	0	0
1241513984	0	0
1275068416	0	0
1308622848	0	0
1342177280	0	0
1375731712	0	0
1409286144	0	0
1442840576	0	0
1476395008	0	0
1509949440	0	0
1543503872	0	0
1577058304	0	0
1610612736	0	0
1644167168	0	0
1677721600	0	0
1711276032	0	0
1744830464	0	0
1778384896	0	0
1811939328	0	0
1845493760	0	0
1879048192	0	0
1912602624	0	0
1946157056	0	0
1979711488	0	0
2013265920	0	0
2046820352	0	0
2080374784	0	0
2113929216	0	0
2147483648	0	0
2214592512	0	0
2281701376	0	0
2348810240	0	0
2415919104	0	0
2483027968	0	0
2550136832	0	0
2617245696	0	0
2684354560	0	0
2751463424	0	0
2818572288	0	0
2885681152	0	0
2952790016	0	0
3019898880	0	0
3087007744	0	0
3154116608	0	0
3221225472	0	0
3288334336	0	0
3355443200	0	0
3422552064	0	0
3489660928	0	0
3556769792	0	0
3623878656	0	0
3690987520	0	0
3758096384	0	0
3825205248	0	0
3892314112	0	0
3959422976	0	0
4026531840	0	0
4093640704	0	0
4160749568	0	0
4227858432	0	0
~~~~~~~~~~Reuse Distance Profiler output end~~~~~~~~~~

Sampler size:242675

DRAM Statistics
 CHANNEL 0
 RQ ROW_BUFFER_HIT:       1485  ROW_BUFFER_MISS:    4455965
 DBUS AVG_CONGESTED_CYCLE:    3.98133
 WQ ROW_BUFFER_HIT:      24273  ROW_BUFFER_MISS:    1450404  FULL:          0


CPU 0 Branch Prediction Accuracy: 98.3506% MPKI: 0.0213753 Average ROB Occupancy at Mispredict: 348.568
Branch type MPKI
BRANCH_DIRECT_JUMP: 0
BRANCH_INDIRECT: 0
BRANCH_CONDITIONAL: 0.0213753
BRANCH_DIRECT_CALL: 0
BRANCH_INDIRECT_CALL: 0
BRANCH_RETURN: 0

