
*** ChampSim Multicore Out-of-Order Simulator ***

Warmup Instructions: 50000000
Simulation Instructions: 1500000000
Number of CPUs: 1
Off-chip DRAM Size: 4 GiB Channels: 1 Width: 64-bit Data Rate: 3200 MT/s

VirtualMemory physical capacity: 8588881920 num_ppages: 2096895
VirtualMemory page size: 4096 log2_page_size: 12

CPU 0 runs /s/traces/champsim_traces/437.leslie3d-273B.champsimtrace.xz
CPU 0 Bimodal branch predictor
Basic BTB sets: 1024 ways: 8 indirect buffer size: 4096 RAS size: 64
Initializing LRU.
Initializing LRU.
Initializing LRU.
Initializing LRU.
Initializing rdLRU.
Initializing LRU.
Heartbeat CPU 0 instructions: 2000003 cycles: 758124 heartbeat IPC: 2.63809 cumulative IPC: 2.63809 (Simulation time: 0 hr 1 min 41 sec) 
Heartbeat CPU 0 instructions: 4000002 cycles: 1516141 heartbeat IPC: 2.63846 cumulative IPC: 2.63828 (Simulation time: 0 hr 3 min 25 sec) 
Heartbeat CPU 0 instructions: 6000001 cycles: 2274087 heartbeat IPC: 2.63871 cumulative IPC: 2.63842 (Simulation time: 0 hr 5 min 11 sec) 
Heartbeat CPU 0 instructions: 8000004 cycles: 3031894 heartbeat IPC: 2.6392 cumulative IPC: 2.63862 (Simulation time: 0 hr 6 min 49 sec) 
Heartbeat CPU 0 instructions: 10000001 cycles: 3789748 heartbeat IPC: 2.63903 cumulative IPC: 2.6387 (Simulation time: 0 hr 8 min 36 sec) 
Heartbeat CPU 0 instructions: 12000000 cycles: 4547329 heartbeat IPC: 2.63998 cumulative IPC: 2.63891 (Simulation time: 0 hr 10 min 19 sec) 
Heartbeat CPU 0 instructions: 14000004 cycles: 5304585 heartbeat IPC: 2.64112 cumulative IPC: 2.63923 (Simulation time: 0 hr 12 min 0 sec) 
Heartbeat CPU 0 instructions: 16000004 cycles: 6061863 heartbeat IPC: 2.64104 cumulative IPC: 2.63945 (Simulation time: 0 hr 13 min 44 sec) 
Heartbeat CPU 0 instructions: 18000000 cycles: 6819324 heartbeat IPC: 2.64039 cumulative IPC: 2.63956 (Simulation time: 0 hr 15 min 30 sec) 
Heartbeat CPU 0 instructions: 20000000 cycles: 7503023 heartbeat IPC: 2.92526 cumulative IPC: 2.66559 (Simulation time: 0 hr 16 min 57 sec) 
Heartbeat CPU 0 instructions: 22000003 cycles: 8286379 heartbeat IPC: 2.55312 cumulative IPC: 2.65496 (Simulation time: 0 hr 18 min 41 sec) 
Heartbeat CPU 0 instructions: 24000000 cycles: 9069737 heartbeat IPC: 2.55311 cumulative IPC: 2.64616 (Simulation time: 0 hr 20 min 25 sec) 
Heartbeat CPU 0 instructions: 26000001 cycles: 9852425 heartbeat IPC: 2.5553 cumulative IPC: 2.63894 (Simulation time: 0 hr 22 min 9 sec) 
Heartbeat CPU 0 instructions: 28000001 cycles: 10635782 heartbeat IPC: 2.55311 cumulative IPC: 2.63262 (Simulation time: 0 hr 23 min 51 sec) 
Heartbeat CPU 0 instructions: 30000003 cycles: 11419142 heartbeat IPC: 2.55311 cumulative IPC: 2.62717 (Simulation time: 0 hr 25 min 29 sec) 
Heartbeat CPU 0 instructions: 32000000 cycles: 12202498 heartbeat IPC: 2.55311 cumulative IPC: 2.62241 (Simulation time: 0 hr 27 min 8 sec) 
Heartbeat CPU 0 instructions: 34000001 cycles: 12985854 heartbeat IPC: 2.55312 cumulative IPC: 2.61823 (Simulation time: 0 hr 28 min 49 sec) 
Heartbeat CPU 0 instructions: 36000003 cycles: 13769213 heartbeat IPC: 2.55311 cumulative IPC: 2.61453 (Simulation time: 0 hr 30 min 30 sec) 
Heartbeat CPU 0 instructions: 38000000 cycles: 14552570 heartbeat IPC: 2.55311 cumulative IPC: 2.61122 (Simulation time: 0 hr 32 min 14 sec) 
Heartbeat CPU 0 instructions: 40000000 cycles: 15335928 heartbeat IPC: 2.55311 cumulative IPC: 2.60825 (Simulation time: 0 hr 33 min 52 sec) 
Heartbeat CPU 0 instructions: 42000003 cycles: 16119285 heartbeat IPC: 2.55312 cumulative IPC: 2.60557 (Simulation time: 0 hr 35 min 28 sec) 
Heartbeat CPU 0 instructions: 44000004 cycles: 16902646 heartbeat IPC: 2.5531 cumulative IPC: 2.60314 (Simulation time: 0 hr 37 min 6 sec) 
Heartbeat CPU 0 instructions: 46000001 cycles: 17685331 heartbeat IPC: 2.5553 cumulative IPC: 2.60103 (Simulation time: 0 hr 38 min 42 sec) 
Heartbeat CPU 0 instructions: 48000003 cycles: 18468691 heartbeat IPC: 2.55311 cumulative IPC: 2.59899 (Simulation time: 0 hr 40 min 21 sec) 
Heartbeat CPU 0 instructions: 50000002 cycles: 19252046 heartbeat IPC: 2.55312 cumulative IPC: 2.59713 (Simulation time: 0 hr 41 min 58 sec) 

Warmup complete CPU 0 instructions: 50000002 cycles: 19252046 (Simulation time: 0 hr 41 min 58 sec) 

Heartbeat CPU 0 instructions: 52000004 cycles: 20883382 heartbeat IPC: 1.22599 cumulative IPC: 1.22599 (Simulation time: 0 hr 44 min 31 sec) 

Region of Interest Statistics
cpu0_DTLB TOTAL     ACCESS:     372583  HIT:     372403  MISS:        180
cpu0_DTLB LOAD      ACCESS:     360204  HIT:     360114  MISS:         90
cpu0_DTLB RFO       ACCESS:      12379  HIT:      12289  MISS:         90
cpu0_DTLB PREFETCH  ACCESS:          0  HIT:          0  MISS:          0
cpu0_DTLB WRITEBACK ACCESS:          0  HIT:          0  MISS:          0
cpu0_ITLB TOTAL     ACCESS:       8542  HIT:       8542  MISS:          0
cpu0_ITLB LOAD      ACCESS:       8542  HIT:       8542  MISS:          0
cpu0_ITLB RFO       ACCESS:          0  HIT:          0  MISS:          0
cpu0_ITLB PREFETCH  ACCESS:          0  HIT:          0  MISS:          0
cpu0_ITLB WRITEBACK ACCESS:          0  HIT:          0  MISS:          0
cpu0_L1I TOTAL     ACCESS:         36  HIT:         36  MISS:          0
cpu0_L1I LOAD      ACCESS:         36  HIT:         36  MISS:          0
cpu0_L1I RFO       ACCESS:          0  HIT:          0  MISS:          0
cpu0_L1I PREFETCH  ACCESS:          0  HIT:          0  MISS:          0
cpu0_L1I WRITEBACK ACCESS:          0  HIT:          0  MISS:          0
cpu0_STLB TOTAL     ACCESS:        180  HIT:          3  MISS:        177
cpu0_STLB LOAD      ACCESS:         90  HIT:          3  MISS:         87
cpu0_STLB RFO       ACCESS:         90  HIT:          0  MISS:         90
cpu0_STLB PREFETCH  ACCESS:          0  HIT:          0  MISS:          0
cpu0_STLB WRITEBACK ACCESS:          0  HIT:          0  MISS:          0
cpu0_L1D TOTAL     ACCESS:     477399  HIT:     466338  MISS:      11061
cpu0_L1D LOAD      ACCESS:     469666  HIT:     464132  MISS:       5534
cpu0_L1D RFO       ACCESS:       7556  HIT:       2029  MISS:       5527
cpu0_L1D PREFETCH  ACCESS:          0  HIT:          0  MISS:          0
cpu0_L1D WRITEBACK ACCESS:          0  HIT:          0  MISS:          0
cpu0_L2C TOTAL     ACCESS:      16588  HIT:       5533  MISS:      11055
cpu0_L2C LOAD      ACCESS:       5534  HIT:          6  MISS:       5528
cpu0_L2C RFO       ACCESS:       5527  HIT:          0  MISS:       5527
cpu0_L2C PREFETCH  ACCESS:          0  HIT:          0  MISS:          0
cpu0_L2C WRITEBACK ACCESS:       5527  HIT:       5527  MISS:          0
LLC TOTAL     ACCESS:      16980  HIT:       5914  MISS:      11066
LLC LOAD      ACCESS:       5528  HIT:          0  MISS:       5528
LLC RFO       ACCESS:       5527  HIT:          0  MISS:       5527
LLC PREFETCH  ACCESS:          0  HIT:          0  MISS:          0
LLC WRITEBACK ACCESS:       5925  HIT:       5914  MISS:         11
Heartbeat CPU 0 instructions: 54000003 cycles: 22563229 heartbeat IPC: 1.19058 cumulative IPC: 1.20803 (Simulation time: 0 hr 47 min 7 sec) 

Region of Interest Statistics
cpu0_DTLB TOTAL     ACCESS:     744931  HIT:     744573  MISS:        358
cpu0_DTLB LOAD      ACCESS:     720285  HIT:     720107  MISS:        178
cpu0_DTLB RFO       ACCESS:      24646  HIT:      24466  MISS:        180
cpu0_DTLB PREFETCH  ACCESS:          0  HIT:          0  MISS:          0
cpu0_DTLB WRITEBACK ACCESS:          0  HIT:          0  MISS:          0
cpu0_ITLB TOTAL     ACCESS:      17094  HIT:      17094  MISS:          0
cpu0_ITLB LOAD      ACCESS:      17094  HIT:      17094  MISS:          0
cpu0_ITLB RFO       ACCESS:          0  HIT:          0  MISS:          0
cpu0_ITLB PREFETCH  ACCESS:          0  HIT:          0  MISS:          0
cpu0_ITLB WRITEBACK ACCESS:          0  HIT:          0  MISS:          0
cpu0_L1I TOTAL     ACCESS:         72  HIT:         72  MISS:          0
cpu0_L1I LOAD      ACCESS:         72  HIT:         72  MISS:          0
cpu0_L1I RFO       ACCESS:          0  HIT:          0  MISS:          0
cpu0_L1I PREFETCH  ACCESS:          0  HIT:          0  MISS:          0
cpu0_L1I WRITEBACK ACCESS:          0  HIT:          0  MISS:          0
cpu0_STLB TOTAL     ACCESS:        358  HIT:          4  MISS:        354
cpu0_STLB LOAD      ACCESS:        178  HIT:          4  MISS:        174
cpu0_STLB RFO       ACCESS:        180  HIT:          0  MISS:        180
cpu0_STLB PREFETCH  ACCESS:          0  HIT:          0  MISS:          0
cpu0_STLB WRITEBACK ACCESS:          0  HIT:          0  MISS:          0
cpu0_L1D TOTAL     ACCESS:     954681  HIT:     932558  MISS:      22123
cpu0_L1D LOAD      ACCESS:     939202  HIT:     928134  MISS:      11068
cpu0_L1D RFO       ACCESS:      15124  HIT:       4069  MISS:      11055
cpu0_L1D PREFETCH  ACCESS:          0  HIT:          0  MISS:          0
cpu0_L1D WRITEBACK ACCESS:          0  HIT:          0  MISS:          0
cpu0_L2C TOTAL     ACCESS:      33179  HIT:      11068  MISS:      22111
cpu0_L2C LOAD      ACCESS:      11068  HIT:         12  MISS:      11056
cpu0_L2C RFO       ACCESS:      11055  HIT:          0  MISS:      11055
cpu0_L2C PREFETCH  ACCESS:          0  HIT:          0  MISS:          0
cpu0_L2C WRITEBACK ACCESS:      11056  HIT:      11056  MISS:          0
LLC TOTAL     ACCESS:      33495  HIT:      11317  MISS:      22178
LLC LOAD      ACCESS:      11056  HIT:          0  MISS:      11056
LLC RFO       ACCESS:      11055  HIT:          0  MISS:      11055
LLC PREFETCH  ACCESS:          0  HIT:          0  MISS:          0
LLC WRITEBACK ACCESS:      11384  HIT:      11317  MISS:         67
Heartbeat CPU 0 instructions: 56000002 cycles: 24216336 heartbeat IPC: 1.20984 cumulative IPC: 1.20863 (Simulation time: 0 hr 49 min 39 sec) 

Region of Interest Statistics
cpu0_DTLB TOTAL     ACCESS:    1117317  HIT:    1116778  MISS:        539
cpu0_DTLB LOAD      ACCESS:    1080567  HIT:    1080299  MISS:        268
cpu0_DTLB RFO       ACCESS:      36750  HIT:      36479  MISS:        271
cpu0_DTLB PREFETCH  ACCESS:          0  HIT:          0  MISS:          0
cpu0_DTLB WRITEBACK ACCESS:          0  HIT:          0  MISS:          0
cpu0_ITLB TOTAL     ACCESS:      25670  HIT:      25670  MISS:          0
cpu0_ITLB LOAD      ACCESS:      25670  HIT:      25670  MISS:          0
cpu0_ITLB RFO       ACCESS:          0  HIT:          0  MISS:          0
cpu0_ITLB PREFETCH  ACCESS:          0  HIT:          0  MISS:          0
cpu0_ITLB WRITEBACK ACCESS:          0  HIT:          0  MISS:          0
cpu0_L1I TOTAL     ACCESS:        108  HIT:        108  MISS:          0
cpu0_L1I LOAD      ACCESS:        108  HIT:        108  MISS:          0
cpu0_L1I RFO       ACCESS:          0  HIT:          0  MISS:          0
cpu0_L1I PREFETCH  ACCESS:          0  HIT:          0  MISS:          0
cpu0_L1I WRITEBACK ACCESS:          0  HIT:          0  MISS:          0
cpu0_STLB TOTAL     ACCESS:        539  HIT:          7  MISS:        532
cpu0_STLB LOAD      ACCESS:        268  HIT:          7  MISS:        261
cpu0_STLB RFO       ACCESS:        271  HIT:          0  MISS:        271
cpu0_STLB PREFETCH  ACCESS:          0  HIT:          0  MISS:          0
cpu0_STLB WRITEBACK ACCESS:          0  HIT:          0  MISS:          0
cpu0_L1D TOTAL     ACCESS:    1431438  HIT:    1398252  MISS:      33186
cpu0_L1D LOAD      ACCESS:    1408398  HIT:    1391796  MISS:      16602
cpu0_L1D RFO       ACCESS:      22508  HIT:       5924  MISS:      16584
cpu0_L1D PREFETCH  ACCESS:          0  HIT:          0  MISS:          0
cpu0_L1D WRITEBACK ACCESS:          0  HIT:          0  MISS:          0
cpu0_L2C TOTAL     ACCESS:      49772  HIT:      16604  MISS:      33168
cpu0_L2C LOAD      ACCESS:      16602  HIT:         18  MISS:      16584
cpu0_L2C RFO       ACCESS:      16584  HIT:          0  MISS:      16584
cpu0_L2C PREFETCH  ACCESS:          0  HIT:          0  MISS:          0
cpu0_L2C WRITEBACK ACCESS:      16586  HIT:      16586  MISS:          0
LLC TOTAL     ACCESS:      49915  HIT:      16627  MISS:      33288
LLC LOAD      ACCESS:      16584  HIT:          0  MISS:      16584
LLC RFO       ACCESS:      16584  HIT:          0  MISS:      16584
LLC PREFETCH  ACCESS:          0  HIT:          0  MISS:          0
LLC WRITEBACK ACCESS:      16747  HIT:      16627  MISS:        120
Heartbeat CPU 0 instructions: 58000002 cycles: 25880675 heartbeat IPC: 1.20168 cumulative IPC: 1.20689 (Simulation time: 0 hr 52 min 17 sec) 

Region of Interest Statistics
cpu0_DTLB TOTAL     ACCESS:    1489791  HIT:    1489072  MISS:        719
cpu0_DTLB LOAD      ACCESS:    1440685  HIT:    1440327  MISS:        358
cpu0_DTLB RFO       ACCESS:      49106  HIT:      48745  MISS:        361
cpu0_DTLB PREFETCH  ACCESS:          0  HIT:          0  MISS:          0
cpu0_DTLB WRITEBACK ACCESS:          0  HIT:          0  MISS:          0
cpu0_ITLB TOTAL     ACCESS:      34164  HIT:      34164  MISS:          0
cpu0_ITLB LOAD      ACCESS:      34164  HIT:      34164  MISS:          0
cpu0_ITLB RFO       ACCESS:          0  HIT:          0  MISS:          0
cpu0_ITLB PREFETCH  ACCESS:          0  HIT:          0  MISS:          0
cpu0_ITLB WRITEBACK ACCESS:          0  HIT:          0  MISS:          0
cpu0_L1I TOTAL     ACCESS:        145  HIT:        145  MISS:          0
cpu0_L1I LOAD      ACCESS:        145  HIT:        145  MISS:          0
cpu0_L1I RFO       ACCESS:          0  HIT:          0  MISS:          0
cpu0_L1I PREFETCH  ACCESS:          0  HIT:          0  MISS:          0
cpu0_L1I WRITEBACK ACCESS:          0  HIT:          0  MISS:          0
cpu0_STLB TOTAL     ACCESS:        719  HIT:         10  MISS:        709
cpu0_STLB LOAD      ACCESS:        358  HIT:         10  MISS:        348
cpu0_STLB RFO       ACCESS:        361  HIT:          0  MISS:        361
cpu0_STLB PREFETCH  ACCESS:          0  HIT:          0  MISS:          0
cpu0_STLB WRITEBACK ACCESS:          0  HIT:          0  MISS:          0
cpu0_L1D TOTAL     ACCESS:    1908847  HIT:    1864600  MISS:      44247
cpu0_L1D LOAD      ACCESS:    1877970  HIT:    1855834  MISS:      22136
cpu0_L1D RFO       ACCESS:      30169  HIT:       8058  MISS:      22111
cpu0_L1D PREFETCH  ACCESS:          0  HIT:          0  MISS:          0
cpu0_L1D WRITEBACK ACCESS:          0  HIT:          0  MISS:          0
cpu0_L2C TOTAL     ACCESS:      66361  HIT:      22138  MISS:      44223
cpu0_L2C LOAD      ACCESS:      22136  HIT:         24  MISS:      22112
cpu0_L2C RFO       ACCESS:      22111  HIT:          0  MISS:      22111
cpu0_L2C PREFETCH  ACCESS:          0  HIT:          0  MISS:          0
cpu0_L2C WRITEBACK ACCESS:      22114  HIT:      22114  MISS:          0
LLC TOTAL     ACCESS:      66773  HIT:      22428  MISS:      44345
LLC LOAD      ACCESS:      22112  HIT:          0  MISS:      22112
LLC RFO       ACCESS:      22111  HIT:          0  MISS:      22111
LLC PREFETCH  ACCESS:          0  HIT:          0  MISS:          0
LLC WRITEBACK ACCESS:      22550  HIT:      22428  MISS:        122
Heartbeat CPU 0 instructions: 60000001 cycles: 27493923 heartbeat IPC: 1.23973 cumulative IPC: 1.21332 (Simulation time: 0 hr 54 min 52 sec) 

Region of Interest Statistics
cpu0_DTLB TOTAL     ACCESS:    1862257  HIT:    1861357  MISS:        900
cpu0_DTLB LOAD      ACCESS:    1800910  HIT:    1800460  MISS:        450
cpu0_DTLB RFO       ACCESS:      61347  HIT:      60897  MISS:        450
cpu0_DTLB PREFETCH  ACCESS:          0  HIT:          0  MISS:          0
cpu0_DTLB WRITEBACK ACCESS:          0  HIT:          0  MISS:          0
cpu0_ITLB TOTAL     ACCESS:      42718  HIT:      42718  MISS:          0
cpu0_ITLB LOAD      ACCESS:      42718  HIT:      42718  MISS:          0
cpu0_ITLB RFO       ACCESS:          0  HIT:          0  MISS:          0
cpu0_ITLB PREFETCH  ACCESS:          0  HIT:          0  MISS:          0
cpu0_ITLB WRITEBACK ACCESS:          0  HIT:          0  MISS:          0
cpu0_L1I TOTAL     ACCESS:        181  HIT:        181  MISS:          0
cpu0_L1I LOAD      ACCESS:        181  HIT:        181  MISS:          0
cpu0_L1I RFO       ACCESS:          0  HIT:          0  MISS:          0
cpu0_L1I PREFETCH  ACCESS:          0  HIT:          0  MISS:          0
cpu0_L1I WRITEBACK ACCESS:          0  HIT:          0  MISS:          0
cpu0_STLB TOTAL     ACCESS:        900  HIT:         12  MISS:        888
cpu0_STLB LOAD      ACCESS:        450  HIT:         12  MISS:        438
cpu0_STLB RFO       ACCESS:        450  HIT:          0  MISS:        450
cpu0_STLB PREFETCH  ACCESS:          0  HIT:          0  MISS:          0
cpu0_STLB WRITEBACK ACCESS:          0  HIT:          0  MISS:          0
cpu0_L1D TOTAL     ACCESS:    2386054  HIT:    2330744  MISS:      55310
cpu0_L1D LOAD      ACCESS:    2347576  HIT:    2319906  MISS:      27670
cpu0_L1D RFO       ACCESS:      37593  HIT:       9954  MISS:      27639
cpu0_L1D PREFETCH  ACCESS:          0  HIT:          0  MISS:          0
cpu0_L1D WRITEBACK ACCESS:          0  HIT:          0  MISS:          0
cpu0_L2C TOTAL     ACCESS:      82953  HIT:      27672  MISS:      55281
cpu0_L2C LOAD      ACCESS:      27670  HIT:         29  MISS:      27641
cpu0_L2C RFO       ACCESS:      27639  HIT:          0  MISS:      27639
cpu0_L2C PREFETCH  ACCESS:          0  HIT:          0  MISS:          0
cpu0_L2C WRITEBACK ACCESS:      27643  HIT:      27643  MISS:          0
LLC TOTAL     ACCESS:      83358  HIT:      27941  MISS:      55417
LLC LOAD      ACCESS:      27641  HIT:          1  MISS:      27640
LLC RFO       ACCESS:      27639  HIT:          0  MISS:      27639
LLC PREFETCH  ACCESS:          0  HIT:          0  MISS:          0
LLC WRITEBACK ACCESS:      28077  HIT:      27940  MISS:        137
Heartbeat CPU 0 instructions: 62000000 cycles: 29132407 heartbeat IPC: 1.22064 cumulative IPC: 1.21453 (Simulation time: 0 hr 57 min 18 sec) 

Region of Interest Statistics
cpu0_DTLB TOTAL     ACCESS:    2234766  HIT:    2233686  MISS:       1080
cpu0_DTLB LOAD      ACCESS:    2161138  HIT:    2160595  MISS:        543
cpu0_DTLB RFO       ACCESS:      73628  HIT:      73091  MISS:        537
cpu0_DTLB PREFETCH  ACCESS:          0  HIT:          0  MISS:          0
cpu0_DTLB WRITEBACK ACCESS:          0  HIT:          0  MISS:          0
cpu0_ITLB TOTAL     ACCESS:      51207  HIT:      51207  MISS:          0
cpu0_ITLB LOAD      ACCESS:      51207  HIT:      51207  MISS:          0
cpu0_ITLB RFO       ACCESS:          0  HIT:          0  MISS:          0
cpu0_ITLB PREFETCH  ACCESS:          0  HIT:          0  MISS:          0
cpu0_ITLB WRITEBACK ACCESS:          0  HIT:          0  MISS:          0
cpu0_L1I TOTAL     ACCESS:        217  HIT:        217  MISS:          0
cpu0_L1I LOAD      ACCESS:        217  HIT:        217  MISS:          0
cpu0_L1I RFO       ACCESS:          0  HIT:          0  MISS:          0
cpu0_L1I PREFETCH  ACCESS:          0  HIT:          0  MISS:          0
cpu0_L1I WRITEBACK ACCESS:          0  HIT:          0  MISS:          0
cpu0_STLB TOTAL     ACCESS:       1080  HIT:         15  MISS:       1065
cpu0_STLB LOAD      ACCESS:        543  HIT:         15  MISS:        528
cpu0_STLB RFO       ACCESS:        537  HIT:          0  MISS:        537
cpu0_STLB PREFETCH  ACCESS:          0  HIT:          0  MISS:          0
cpu0_STLB WRITEBACK ACCESS:          0  HIT:          0  MISS:          0
cpu0_L1D TOTAL     ACCESS:    2863329  HIT:    2796957  MISS:      66372
cpu0_L1D LOAD      ACCESS:    2817085  HIT:    2783881  MISS:      33204
cpu0_L1D RFO       ACCESS:      45182  HIT:      12015  MISS:      33167
cpu0_L1D PREFETCH  ACCESS:          0  HIT:          0  MISS:          0
cpu0_L1D WRITEBACK ACCESS:          0  HIT:          0  MISS:          0
cpu0_L2C TOTAL     ACCESS:      99537  HIT:      33200  MISS:      66337
cpu0_L2C LOAD      ACCESS:      33204  HIT:         35  MISS:      33169
cpu0_L2C RFO       ACCESS:      33167  HIT:          0  MISS:      33167
cpu0_L2C PREFETCH  ACCESS:          0  HIT:          0  MISS:          0
cpu0_L2C WRITEBACK ACCESS:      33165  HIT:      33165  MISS:          0
LLC TOTAL     ACCESS:      99864  HIT:      33357  MISS:      66507
LLC LOAD      ACCESS:      33169  HIT:          1  MISS:      33168
LLC RFO       ACCESS:      33167  HIT:          0  MISS:      33167
LLC PREFETCH  ACCESS:          0  HIT:          0  MISS:          0
LLC WRITEBACK ACCESS:      33527  HIT:      33356  MISS:        171
Heartbeat CPU 0 instructions: 64000002 cycles: 30775411 heartbeat IPC: 1.21728 cumulative IPC: 1.21492 (Simulation time: 0 hr 59 min 59 sec) 

Region of Interest Statistics
cpu0_DTLB TOTAL     ACCESS:    2607218  HIT:    2605959  MISS:       1259
cpu0_DTLB LOAD      ACCESS:    2521175  HIT:    2520540  MISS:        635
cpu0_DTLB RFO       ACCESS:      86043  HIT:      85419  MISS:        624
cpu0_DTLB PREFETCH  ACCESS:          0  HIT:          0  MISS:          0
cpu0_DTLB WRITEBACK ACCESS:          0  HIT:          0  MISS:          0
cpu0_ITLB TOTAL     ACCESS:      59821  HIT:      59821  MISS:          0
cpu0_ITLB LOAD      ACCESS:      59821  HIT:      59821  MISS:          0
cpu0_ITLB RFO       ACCESS:          0  HIT:          0  MISS:          0
cpu0_ITLB PREFETCH  ACCESS:          0  HIT:          0  MISS:          0
cpu0_ITLB WRITEBACK ACCESS:          0  HIT:          0  MISS:          0
cpu0_L1I TOTAL     ACCESS:        249  HIT:        249  MISS:          0
cpu0_L1I LOAD      ACCESS:        249  HIT:        249  MISS:          0
cpu0_L1I RFO       ACCESS:          0  HIT:          0  MISS:          0
cpu0_L1I PREFETCH  ACCESS:          0  HIT:          0  MISS:          0
cpu0_L1I WRITEBACK ACCESS:          0  HIT:          0  MISS:          0
cpu0_STLB TOTAL     ACCESS:       1259  HIT:         17  MISS:       1242
cpu0_STLB LOAD      ACCESS:        635  HIT:         17  MISS:        618
cpu0_STLB RFO       ACCESS:        624  HIT:          0  MISS:        624
cpu0_STLB PREFETCH  ACCESS:          0  HIT:          0  MISS:          0
cpu0_STLB WRITEBACK ACCESS:          0  HIT:          0  MISS:          0
cpu0_L1D TOTAL     ACCESS:    3340683  HIT:    3263269  MISS:      77414
cpu0_L1D LOAD      ACCESS:    3286628  HIT:    3247908  MISS:      38720
cpu0_L1D RFO       ACCESS:      52816  HIT:      14123  MISS:      38693
cpu0_L1D PREFETCH  ACCESS:          0  HIT:          0  MISS:          0
cpu0_L1D WRITEBACK ACCESS:          0  HIT:          0  MISS:          0
cpu0_L2C TOTAL     ACCESS:     116102  HIT:      38729  MISS:      77373
cpu0_L2C LOAD      ACCESS:      38720  HIT:         41  MISS:      38679
cpu0_L2C RFO       ACCESS:      38693  HIT:          0  MISS:      38693
cpu0_L2C PREFETCH  ACCESS:          0  HIT:          0  MISS:          0
cpu0_L2C WRITEBACK ACCESS:      38688  HIT:      38688  MISS:          0
LLC TOTAL     ACCESS:     116350  HIT:      38680  MISS:      77670
LLC LOAD      ACCESS:      38679  HIT:          1  MISS:      38678
LLC RFO       ACCESS:      38693  HIT:          0  MISS:      38693
LLC PREFETCH  ACCESS:          0  HIT:          0  MISS:          0
LLC WRITEBACK ACCESS:      38977  HIT:      38679  MISS:        298
Heartbeat CPU 0 instructions: 66000001 cycles: 32443911 heartbeat IPC: 1.19868 cumulative IPC: 1.21287 (Simulation time: 1 hr 2 min 28 sec) 

Region of Interest Statistics
cpu0_DTLB TOTAL     ACCESS:    2979763  HIT:    2978327  MISS:       1436
cpu0_DTLB LOAD      ACCESS:    2881491  HIT:    2880765  MISS:        726
cpu0_DTLB RFO       ACCESS:      98272  HIT:      97562  MISS:        710
cpu0_DTLB PREFETCH  ACCESS:          0  HIT:          0  MISS:          0
cpu0_DTLB WRITEBACK ACCESS:          0  HIT:          0  MISS:          0
cpu0_ITLB TOTAL     ACCESS:      68358  HIT:      68358  MISS:          0
cpu0_ITLB LOAD      ACCESS:      68358  HIT:      68358  MISS:          0
cpu0_ITLB RFO       ACCESS:          0  HIT:          0  MISS:          0
cpu0_ITLB PREFETCH  ACCESS:          0  HIT:          0  MISS:          0
cpu0_ITLB WRITEBACK ACCESS:          0  HIT:          0  MISS:          0
cpu0_L1I TOTAL     ACCESS:        277  HIT:        277  MISS:          0
cpu0_L1I LOAD      ACCESS:        277  HIT:        277  MISS:          0
cpu0_L1I RFO       ACCESS:          0  HIT:          0  MISS:          0
cpu0_L1I PREFETCH  ACCESS:          0  HIT:          0  MISS:          0
cpu0_L1I WRITEBACK ACCESS:          0  HIT:          0  MISS:          0
cpu0_STLB TOTAL     ACCESS:       1436  HIT:         19  MISS:       1417
cpu0_STLB LOAD      ACCESS:        726  HIT:         19  MISS:        707
cpu0_STLB RFO       ACCESS:        710  HIT:          0  MISS:        710
cpu0_STLB PREFETCH  ACCESS:          0  HIT:          0  MISS:          0
cpu0_STLB WRITEBACK ACCESS:          0  HIT:          0  MISS:          0
cpu0_L1D TOTAL     ACCESS:    3817834  HIT:    3729357  MISS:      88477
cpu0_L1D LOAD      ACCESS:    3756030  HIT:    3711769  MISS:      44261
cpu0_L1D RFO       ACCESS:      60390  HIT:      16175  MISS:      44215
cpu0_L1D PREFETCH  ACCESS:          0  HIT:          0  MISS:          0
cpu0_L1D WRITEBACK ACCESS:          0  HIT:          0  MISS:          0
cpu0_L2C TOTAL     ACCESS:     132692  HIT:      44259  MISS:      88433
cpu0_L2C LOAD      ACCESS:      44261  HIT:         44  MISS:      44217
cpu0_L2C RFO       ACCESS:      44215  HIT:          0  MISS:      44215
cpu0_L2C PREFETCH  ACCESS:          0  HIT:          0  MISS:          0
cpu0_L2C WRITEBACK ACCESS:      44215  HIT:      44215  MISS:          0
LLC TOTAL     ACCESS:     132805  HIT:      44050  MISS:      88755
LLC LOAD      ACCESS:      44217  HIT:          1  MISS:      44216
LLC RFO       ACCESS:      44215  HIT:          0  MISS:      44215
LLC PREFETCH  ACCESS:          0  HIT:          0  MISS:          0
LLC WRITEBACK ACCESS:      44372  HIT:      44049  MISS:        323
Heartbeat CPU 0 instructions: 68000000 cycles: 34096645 heartbeat IPC: 1.21012 cumulative IPC: 1.21256 (Simulation time: 1 hr 4 min 51 sec) 

Region of Interest Statistics
cpu0_DTLB TOTAL     ACCESS:    3352183  HIT:    3350567  MISS:       1616
cpu0_DTLB LOAD      ACCESS:    3241770  HIT:    3240951  MISS:        819
cpu0_DTLB RFO       ACCESS:     110413  HIT:     109616  MISS:        797
cpu0_DTLB PREFETCH  ACCESS:          0  HIT:          0  MISS:          0
cpu0_DTLB WRITEBACK ACCESS:          0  HIT:          0  MISS:          0
cpu0_ITLB TOTAL     ACCESS:      76958  HIT:      76958  MISS:          0
cpu0_ITLB LOAD      ACCESS:      76958  HIT:      76958  MISS:          0
cpu0_ITLB RFO       ACCESS:          0  HIT:          0  MISS:          0
cpu0_ITLB PREFETCH  ACCESS:          0  HIT:          0  MISS:          0
cpu0_ITLB WRITEBACK ACCESS:          0  HIT:          0  MISS:          0
cpu0_L1I TOTAL     ACCESS:        313  HIT:        313  MISS:          0
cpu0_L1I LOAD      ACCESS:        313  HIT:        313  MISS:          0
cpu0_L1I RFO       ACCESS:          0  HIT:          0  MISS:          0
cpu0_L1I PREFETCH  ACCESS:          0  HIT:          0  MISS:          0
cpu0_L1I WRITEBACK ACCESS:          0  HIT:          0  MISS:          0
cpu0_STLB TOTAL     ACCESS:       1616  HIT:         22  MISS:       1594
cpu0_STLB LOAD      ACCESS:        819  HIT:         22  MISS:        797
cpu0_STLB RFO       ACCESS:        797  HIT:          0  MISS:        797
cpu0_STLB PREFETCH  ACCESS:          0  HIT:          0  MISS:          0
cpu0_STLB WRITEBACK ACCESS:          0  HIT:          0  MISS:          0
cpu0_L1D TOTAL     ACCESS:    4294655  HIT:    4195117  MISS:      99538
cpu0_L1D LOAD      ACCESS:    4225251  HIT:    4175456  MISS:      49795
cpu0_L1D RFO       ACCESS:      67813  HIT:      18071  MISS:      49742
cpu0_L1D PREFETCH  ACCESS:          0  HIT:          0  MISS:          0
cpu0_L1D WRITEBACK ACCESS:          0  HIT:          0  MISS:          0
cpu0_L2C TOTAL     ACCESS:     149280  HIT:      49792  MISS:      99488
cpu0_L2C LOAD      ACCESS:      49795  HIT:         50  MISS:      49745
cpu0_L2C RFO       ACCESS:      49742  HIT:          0  MISS:      49742
cpu0_L2C PREFETCH  ACCESS:          0  HIT:          0  MISS:          0
cpu0_L2C WRITEBACK ACCESS:      49742  HIT:      49742  MISS:          0
LLC TOTAL     ACCESS:     149666  HIT:      49839  MISS:      99827
LLC LOAD      ACCESS:      49745  HIT:          1  MISS:      49744
LLC RFO       ACCESS:      49742  HIT:          0  MISS:      49742
LLC PREFETCH  ACCESS:          0  HIT:          0  MISS:          0
LLC WRITEBACK ACCESS:      50178  HIT:      49838  MISS:        340
Heartbeat CPU 0 instructions: 70000000 cycles: 35746744 heartbeat IPC: 1.21205 cumulative IPC: 1.21251 (Simulation time: 1 hr 7 min 21 sec) 

Region of Interest Statistics
cpu0_DTLB TOTAL     ACCESS:    3724843  HIT:    3723048  MISS:       1795
cpu0_DTLB LOAD      ACCESS:    3602129  HIT:    3601218  MISS:        911
cpu0_DTLB RFO       ACCESS:     122714  HIT:     121830  MISS:        884
cpu0_DTLB PREFETCH  ACCESS:          0  HIT:          0  MISS:          0
cpu0_DTLB WRITEBACK ACCESS:          0  HIT:          0  MISS:          0
cpu0_ITLB TOTAL     ACCESS:      85529  HIT:      85529  MISS:          0
cpu0_ITLB LOAD      ACCESS:      85529  HIT:      85529  MISS:          0
cpu0_ITLB RFO       ACCESS:          0  HIT:          0  MISS:          0
cpu0_ITLB PREFETCH  ACCESS:          0  HIT:          0  MISS:          0
cpu0_ITLB WRITEBACK ACCESS:          0  HIT:          0  MISS:          0
cpu0_L1I TOTAL     ACCESS:        350  HIT:        350  MISS:          0
cpu0_L1I LOAD      ACCESS:        350  HIT:        350  MISS:          0
cpu0_L1I RFO       ACCESS:          0  HIT:          0  MISS:          0
cpu0_L1I PREFETCH  ACCESS:          0  HIT:          0  MISS:          0
cpu0_L1I WRITEBACK ACCESS:          0  HIT:          0  MISS:          0
cpu0_STLB TOTAL     ACCESS:       1795  HIT:         24  MISS:       1771
cpu0_STLB LOAD      ACCESS:        911  HIT:         24  MISS:        887
cpu0_STLB RFO       ACCESS:        884  HIT:          0  MISS:        884
cpu0_STLB PREFETCH  ACCESS:          0  HIT:          0  MISS:          0
cpu0_STLB WRITEBACK ACCESS:          0  HIT:          0  MISS:          0
cpu0_L1D TOTAL     ACCESS:    4771947  HIT:    4661347  MISS:     110600
cpu0_L1D LOAD      ACCESS:    4694757  HIT:    4639428  MISS:      55329
cpu0_L1D RFO       ACCESS:      75422  HIT:      20152  MISS:      55270
cpu0_L1D PREFETCH  ACCESS:          0  HIT:          0  MISS:          0
cpu0_L1D WRITEBACK ACCESS:          0  HIT:          0  MISS:          0
cpu0_L2C TOTAL     ACCESS:     165870  HIT:      55326  MISS:     110544
cpu0_L2C LOAD      ACCESS:      55329  HIT:         56  MISS:      55273
cpu0_L2C RFO       ACCESS:      55270  HIT:          0  MISS:      55270
cpu0_L2C PREFETCH  ACCESS:          0  HIT:          0  MISS:          0
cpu0_L2C WRITEBACK ACCESS:      55270  HIT:      55270  MISS:          0
LLC TOTAL     ACCESS:     166340  HIT:      55457  MISS:     110883
LLC LOAD      ACCESS:      55273  HIT:          1  MISS:      55272
LLC RFO       ACCESS:      55270  HIT:          0  MISS:      55270
LLC PREFETCH  ACCESS:          0  HIT:          0  MISS:          0
LLC WRITEBACK ACCESS:      55796  HIT:      55456  MISS:        340
Heartbeat CPU 0 instructions: 72000004 cycles: 37448155 heartbeat IPC: 1.1755 cumulative IPC: 1.20905 (Simulation time: 1 hr 9 min 47 sec) 

Region of Interest Statistics
cpu0_DTLB TOTAL     ACCESS:    4097541  HIT:    4095566  MISS:       1975
cpu0_DTLB LOAD      ACCESS:    3962392  HIT:    3961388  MISS:       1004
cpu0_DTLB RFO       ACCESS:     135149  HIT:     134178  MISS:        971
cpu0_DTLB PREFETCH  ACCESS:          0  HIT:          0  MISS:          0
cpu0_DTLB WRITEBACK ACCESS:          0  HIT:          0  MISS:          0
cpu0_ITLB TOTAL     ACCESS:      94052  HIT:      94052  MISS:          0
cpu0_ITLB LOAD      ACCESS:      94052  HIT:      94052  MISS:          0
cpu0_ITLB RFO       ACCESS:          0  HIT:          0  MISS:          0
cpu0_ITLB PREFETCH  ACCESS:          0  HIT:          0  MISS:          0
cpu0_ITLB WRITEBACK ACCESS:          0  HIT:          0  MISS:          0
cpu0_L1I TOTAL     ACCESS:        386  HIT:        386  MISS:          0
cpu0_L1I LOAD      ACCESS:        386  HIT:        386  MISS:          0
cpu0_L1I RFO       ACCESS:          0  HIT:          0  MISS:          0
cpu0_L1I PREFETCH  ACCESS:          0  HIT:          0  MISS:          0
cpu0_L1I WRITEBACK ACCESS:          0  HIT:          0  MISS:          0
cpu0_STLB TOTAL     ACCESS:       1975  HIT:         27  MISS:       1948
cpu0_STLB LOAD      ACCESS:       1004  HIT:         27  MISS:        977
cpu0_STLB RFO       ACCESS:        971  HIT:          0  MISS:        971
cpu0_STLB PREFETCH  ACCESS:          0  HIT:          0  MISS:          0
cpu0_STLB WRITEBACK ACCESS:          0  HIT:          0  MISS:          0
cpu0_L1D TOTAL     ACCESS:    5249456  HIT:    5127794  MISS:     121662
cpu0_L1D LOAD      ACCESS:    5164252  HIT:    5103389  MISS:      60863
cpu0_L1D RFO       ACCESS:      83259  HIT:      22461  MISS:      60798
cpu0_L1D PREFETCH  ACCESS:          0  HIT:          0  MISS:          0
cpu0_L1D WRITEBACK ACCESS:          0  HIT:          0  MISS:          0
cpu0_L2C TOTAL     ACCESS:     182460  HIT:      60859  MISS:     121601
cpu0_L2C LOAD      ACCESS:      60863  HIT:         61  MISS:      60802
cpu0_L2C RFO       ACCESS:      60798  HIT:          0  MISS:      60798
cpu0_L2C PREFETCH  ACCESS:          0  HIT:          0  MISS:          0
cpu0_L2C WRITEBACK ACCESS:      60798  HIT:      60798  MISS:          0
LLC TOTAL     ACCESS:     182550  HIT:      60605  MISS:     121945
LLC LOAD      ACCESS:      60802  HIT:          2  MISS:      60800
LLC RFO       ACCESS:      60798  HIT:          0  MISS:      60798
LLC PREFETCH  ACCESS:          0  HIT:          0  MISS:          0
LLC WRITEBACK ACCESS:      60949  HIT:      60603  MISS:        346
Heartbeat CPU 0 instructions: 74000001 cycles: 39099467 heartbeat IPC: 1.21116 cumulative IPC: 1.20923 (Simulation time: 1 hr 12 min 19 sec) 

Region of Interest Statistics
cpu0_DTLB TOTAL     ACCESS:    4470297  HIT:    4468143  MISS:       2154
cpu0_DTLB LOAD      ACCESS:    4322843  HIT:    4321747  MISS:       1096
cpu0_DTLB RFO       ACCESS:     147454  HIT:     146396  MISS:       1058
cpu0_DTLB PREFETCH  ACCESS:          0  HIT:          0  MISS:          0
cpu0_DTLB WRITEBACK ACCESS:          0  HIT:          0  MISS:          0
cpu0_ITLB TOTAL     ACCESS:     102652  HIT:     102652  MISS:          0
cpu0_ITLB LOAD      ACCESS:     102652  HIT:     102652  MISS:          0
cpu0_ITLB RFO       ACCESS:          0  HIT:          0  MISS:          0
cpu0_ITLB PREFETCH  ACCESS:          0  HIT:          0  MISS:          0
cpu0_ITLB WRITEBACK ACCESS:          0  HIT:          0  MISS:          0
cpu0_L1I TOTAL     ACCESS:        422  HIT:        422  MISS:          0
cpu0_L1I LOAD      ACCESS:        422  HIT:        422  MISS:          0
cpu0_L1I RFO       ACCESS:          0  HIT:          0  MISS:          0
cpu0_L1I PREFETCH  ACCESS:          0  HIT:          0  MISS:          0
cpu0_L1I WRITEBACK ACCESS:          0  HIT:          0  MISS:          0
cpu0_STLB TOTAL     ACCESS:       2154  HIT:         29  MISS:       2125
cpu0_STLB LOAD      ACCESS:       1096  HIT:         29  MISS:       1067
cpu0_STLB RFO       ACCESS:       1058  HIT:          0  MISS:       1058
cpu0_STLB PREFETCH  ACCESS:          0  HIT:          0  MISS:          0
cpu0_STLB WRITEBACK ACCESS:          0  HIT:          0  MISS:          0
cpu0_L1D TOTAL     ACCESS:    5726784  HIT:    5594058  MISS:     132726
cpu0_L1D LOAD      ACCESS:    5633856  HIT:    5567458  MISS:      66398
cpu0_L1D RFO       ACCESS:      90806  HIT:      24479  MISS:      66327
cpu0_L1D PREFETCH  ACCESS:          0  HIT:          0  MISS:          0
cpu0_L1D WRITEBACK ACCESS:          0  HIT:          0  MISS:          0
cpu0_L2C TOTAL     ACCESS:     199054  HIT:      66395  MISS:     132659
cpu0_L2C LOAD      ACCESS:      66398  HIT:         67  MISS:      66331
cpu0_L2C RFO       ACCESS:      66327  HIT:          0  MISS:      66327
cpu0_L2C PREFETCH  ACCESS:          0  HIT:          0  MISS:          0
cpu0_L2C WRITEBACK ACCESS:      66328  HIT:      66328  MISS:          0
LLC TOTAL     ACCESS:     199079  HIT:      66076  MISS:     133003
LLC LOAD      ACCESS:      66331  HIT:          2  MISS:      66329
LLC RFO       ACCESS:      66327  HIT:          0  MISS:      66327
LLC PREFETCH  ACCESS:          0  HIT:          0  MISS:          0
LLC WRITEBACK ACCESS:      66420  HIT:      66074  MISS:        346
Heartbeat CPU 0 instructions: 76000000 cycles: 40760884 heartbeat IPC: 1.20379 cumulative IPC: 1.20881 (Simulation time: 1 hr 14 min 50 sec) 

Region of Interest Statistics
cpu0_DTLB TOTAL     ACCESS:    4843082  HIT:    4840747  MISS:       2335
cpu0_DTLB LOAD      ACCESS:    4683213  HIT:    4682024  MISS:       1189
cpu0_DTLB RFO       ACCESS:     159869  HIT:     158723  MISS:       1146
cpu0_DTLB PREFETCH  ACCESS:          0  HIT:          0  MISS:          0
cpu0_DTLB WRITEBACK ACCESS:          0  HIT:          0  MISS:          0
cpu0_ITLB TOTAL     ACCESS:     111175  HIT:     111175  MISS:          0
cpu0_ITLB LOAD      ACCESS:     111175  HIT:     111175  MISS:          0
cpu0_ITLB RFO       ACCESS:          0  HIT:          0  MISS:          0
cpu0_ITLB PREFETCH  ACCESS:          0  HIT:          0  MISS:          0
cpu0_ITLB WRITEBACK ACCESS:          0  HIT:          0  MISS:          0
cpu0_L1I TOTAL     ACCESS:        458  HIT:        458  MISS:          0
cpu0_L1I LOAD      ACCESS:        458  HIT:        458  MISS:          0
cpu0_L1I RFO       ACCESS:          0  HIT:          0  MISS:          0
cpu0_L1I PREFETCH  ACCESS:          0  HIT:          0  MISS:          0
cpu0_L1I WRITEBACK ACCESS:          0  HIT:          0  MISS:          0
cpu0_STLB TOTAL     ACCESS:       2335  HIT:         32  MISS:       2303
cpu0_STLB LOAD      ACCESS:       1189  HIT:         32  MISS:       1157
cpu0_STLB RFO       ACCESS:       1146  HIT:          0  MISS:       1146
cpu0_STLB PREFETCH  ACCESS:          0  HIT:          0  MISS:          0
cpu0_STLB WRITEBACK ACCESS:          0  HIT:          0  MISS:          0
cpu0_L1D TOTAL     ACCESS:    6204156  HIT:    6060368  MISS:     143788
cpu0_L1D LOAD      ACCESS:    6103364  HIT:    6031432  MISS:      71932
cpu0_L1D RFO       ACCESS:      98492  HIT:      26637  MISS:      71855
cpu0_L1D PREFETCH  ACCESS:          0  HIT:          0  MISS:          0
cpu0_L1D WRITEBACK ACCESS:          0  HIT:          0  MISS:          0
cpu0_L2C TOTAL     ACCESS:     215645  HIT:      71930  MISS:     143715
cpu0_L2C LOAD      ACCESS:      71932  HIT:         73  MISS:      71859
cpu0_L2C RFO       ACCESS:      71855  HIT:          0  MISS:      71855
cpu0_L2C PREFETCH  ACCESS:          0  HIT:          0  MISS:          0
cpu0_L2C WRITEBACK ACCESS:      71857  HIT:      71857  MISS:          0
LLC TOTAL     ACCESS:     215651  HIT:      71545  MISS:     144106
LLC LOAD      ACCESS:      71859  HIT:          2  MISS:      71857
LLC RFO       ACCESS:      71855  HIT:          0  MISS:      71855
LLC PREFETCH  ACCESS:          0  HIT:          0  MISS:          0
LLC WRITEBACK ACCESS:      71936  HIT:      71543  MISS:        393
Heartbeat CPU 0 instructions: 78000004 cycles: 42426507 heartbeat IPC: 1.20075 cumulative IPC: 1.20823 (Simulation time: 1 hr 17 min 19 sec) 

Region of Interest Statistics
cpu0_DTLB TOTAL     ACCESS:    5215798  HIT:    5213283  MISS:       2515
cpu0_DTLB LOAD      ACCESS:    5043680  HIT:    5042398  MISS:       1282
cpu0_DTLB RFO       ACCESS:     172118  HIT:     170885  MISS:       1233
cpu0_DTLB PREFETCH  ACCESS:          0  HIT:          0  MISS:          0
cpu0_DTLB WRITEBACK ACCESS:          0  HIT:          0  MISS:          0
cpu0_ITLB TOTAL     ACCESS:     119663  HIT:     119663  MISS:          0
cpu0_ITLB LOAD      ACCESS:     119663  HIT:     119663  MISS:          0
cpu0_ITLB RFO       ACCESS:          0  HIT:          0  MISS:          0
cpu0_ITLB PREFETCH  ACCESS:          0  HIT:          0  MISS:          0
cpu0_ITLB WRITEBACK ACCESS:          0  HIT:          0  MISS:          0
cpu0_L1I TOTAL     ACCESS:        494  HIT:        494  MISS:          0
cpu0_L1I LOAD      ACCESS:        494  HIT:        494  MISS:          0
cpu0_L1I RFO       ACCESS:          0  HIT:          0  MISS:          0
cpu0_L1I PREFETCH  ACCESS:          0  HIT:          0  MISS:          0
cpu0_L1I WRITEBACK ACCESS:          0  HIT:          0  MISS:          0
cpu0_STLB TOTAL     ACCESS:       2515  HIT:         35  MISS:       2480
cpu0_STLB LOAD      ACCESS:       1282  HIT:         35  MISS:       1247
cpu0_STLB RFO       ACCESS:       1233  HIT:          0  MISS:       1233
cpu0_STLB PREFETCH  ACCESS:          0  HIT:          0  MISS:          0
cpu0_STLB WRITEBACK ACCESS:          0  HIT:          0  MISS:          0
cpu0_L1D TOTAL     ACCESS:    6681398  HIT:    6526548  MISS:     154850
cpu0_L1D LOAD      ACCESS:    6572886  HIT:    6495420  MISS:      77466
cpu0_L1D RFO       ACCESS:     106035  HIT:      28652  MISS:      77383
cpu0_L1D PREFETCH  ACCESS:          0  HIT:          0  MISS:          0
cpu0_L1D WRITEBACK ACCESS:          0  HIT:          0  MISS:          0
cpu0_L2C TOTAL     ACCESS:     232236  HIT:      77465  MISS:     154771
cpu0_L2C LOAD      ACCESS:      77466  HIT:         79  MISS:      77387
cpu0_L2C RFO       ACCESS:      77383  HIT:          0  MISS:      77383
cpu0_L2C PREFETCH  ACCESS:          0  HIT:          0  MISS:          0
cpu0_L2C WRITEBACK ACCESS:      77386  HIT:      77386  MISS:          0
LLC TOTAL     ACCESS:     232415  HIT:      77253  MISS:     155162
LLC LOAD      ACCESS:      77387  HIT:          2  MISS:      77385
LLC RFO       ACCESS:      77383  HIT:          0  MISS:      77383
LLC PREFETCH  ACCESS:          0  HIT:          0  MISS:          0
LLC WRITEBACK ACCESS:      77644  HIT:      77251  MISS:        393
Heartbeat CPU 0 instructions: 80000003 cycles: 44073237 heartbeat IPC: 1.21453 cumulative IPC: 1.20864 (Simulation time: 1 hr 19 min 47 sec) 

Region of Interest Statistics
cpu0_DTLB TOTAL     ACCESS:    5588596  HIT:    5585900  MISS:       2696
cpu0_DTLB LOAD      ACCESS:    5404203  HIT:    5402829  MISS:       1374
cpu0_DTLB RFO       ACCESS:     184393  HIT:     183071  MISS:       1322
cpu0_DTLB PREFETCH  ACCESS:          0  HIT:          0  MISS:          0
cpu0_DTLB WRITEBACK ACCESS:          0  HIT:          0  MISS:          0
cpu0_ITLB TOTAL     ACCESS:     128220  HIT:     128220  MISS:          0
cpu0_ITLB LOAD      ACCESS:     128220  HIT:     128220  MISS:          0
cpu0_ITLB RFO       ACCESS:          0  HIT:          0  MISS:          0
cpu0_ITLB PREFETCH  ACCESS:          0  HIT:          0  MISS:          0
cpu0_ITLB WRITEBACK ACCESS:          0  HIT:          0  MISS:          0
cpu0_L1I TOTAL     ACCESS:        530  HIT:        530  MISS:          0
cpu0_L1I LOAD      ACCESS:        530  HIT:        530  MISS:          0
cpu0_L1I RFO       ACCESS:          0  HIT:          0  MISS:          0
cpu0_L1I PREFETCH  ACCESS:          0  HIT:          0  MISS:          0
cpu0_L1I WRITEBACK ACCESS:          0  HIT:          0  MISS:          0
cpu0_STLB TOTAL     ACCESS:       2696  HIT:         37  MISS:       2659
cpu0_STLB LOAD      ACCESS:       1374  HIT:         37  MISS:       1337
cpu0_STLB RFO       ACCESS:       1322  HIT:          0  MISS:       1322
cpu0_STLB PREFETCH  ACCESS:          0  HIT:          0  MISS:          0
cpu0_STLB WRITEBACK ACCESS:          0  HIT:          0  MISS:          0
cpu0_L1D TOTAL     ACCESS:    7158438  HIT:    6992526  MISS:     165912
cpu0_L1D LOAD      ACCESS:    7042208  HIT:    6959208  MISS:      83000
cpu0_L1D RFO       ACCESS:     113574  HIT:      30663  MISS:      82911
cpu0_L1D PREFETCH  ACCESS:          0  HIT:          0  MISS:          0
cpu0_L1D WRITEBACK ACCESS:          0  HIT:          0  MISS:          0
cpu0_L2C TOTAL     ACCESS:     248836  HIT:      83009  MISS:     165827
cpu0_L2C LOAD      ACCESS:      83000  HIT:         85  MISS:      82915
cpu0_L2C RFO       ACCESS:      82911  HIT:          0  MISS:      82911
cpu0_L2C PREFETCH  ACCESS:          0  HIT:          0  MISS:          0
cpu0_L2C WRITEBACK ACCESS:      82924  HIT:      82924  MISS:          0
LLC TOTAL     ACCESS:     248992  HIT:      82521  MISS:     166471
LLC LOAD      ACCESS:      82915  HIT:          2  MISS:      82913
LLC RFO       ACCESS:      82911  HIT:          0  MISS:      82911
LLC PREFETCH  ACCESS:          0  HIT:          0  MISS:          0
LLC WRITEBACK ACCESS:      83165  HIT:      82519  MISS:        646
Heartbeat CPU 0 instructions: 82000002 cycles: 45753199 heartbeat IPC: 1.1905 cumulative IPC: 1.20749 (Simulation time: 1 hr 22 min 17 sec) 

Region of Interest Statistics
cpu0_DTLB TOTAL     ACCESS:    5960301  HIT:    5957416  MISS:       2885
cpu0_DTLB LOAD      ACCESS:    5763426  HIT:    5761954  MISS:       1472
cpu0_DTLB RFO       ACCESS:     196875  HIT:     195462  MISS:       1413
cpu0_DTLB PREFETCH  ACCESS:          0  HIT:          0  MISS:          0
cpu0_DTLB WRITEBACK ACCESS:          0  HIT:          0  MISS:          0
cpu0_ITLB TOTAL     ACCESS:     136996  HIT:     136996  MISS:          0
cpu0_ITLB LOAD      ACCESS:     136996  HIT:     136996  MISS:          0
cpu0_ITLB RFO       ACCESS:          0  HIT:          0  MISS:          0
cpu0_ITLB PREFETCH  ACCESS:          0  HIT:          0  MISS:          0
cpu0_ITLB WRITEBACK ACCESS:          0  HIT:          0  MISS:          0
cpu0_L1I TOTAL     ACCESS:        565  HIT:        561  MISS:          4
cpu0_L1I LOAD      ACCESS:        565  HIT:        561  MISS:          4
cpu0_L1I RFO       ACCESS:          0  HIT:          0  MISS:          0
cpu0_L1I PREFETCH  ACCESS:          0  HIT:          0  MISS:          0
cpu0_L1I WRITEBACK ACCESS:          0  HIT:          0  MISS:          0
cpu0_STLB TOTAL     ACCESS:       2885  HIT:         39  MISS:       2846
cpu0_STLB LOAD      ACCESS:       1472  HIT:         39  MISS:       1433
cpu0_STLB RFO       ACCESS:       1413  HIT:          0  MISS:       1413
cpu0_STLB PREFETCH  ACCESS:          0  HIT:          0  MISS:          0
cpu0_STLB WRITEBACK ACCESS:          0  HIT:          0  MISS:          0
cpu0_L1D TOTAL     ACCESS:    7633101  HIT:    7455732  MISS:     177369
cpu0_L1D LOAD      ACCESS:    7509097  HIT:    7420244  MISS:      88853
cpu0_L1D RFO       ACCESS:     121161  HIT:      32647  MISS:      88514
cpu0_L1D PREFETCH  ACCESS:          0  HIT:          0  MISS:          0
cpu0_L1D WRITEBACK ACCESS:          0  HIT:          0  MISS:          0
cpu0_L2C TOTAL     ACCESS:     266013  HIT:      88730  MISS:     177283
cpu0_L2C LOAD      ACCESS:      88857  HIT:         90  MISS:      88767
cpu0_L2C RFO       ACCESS:      88514  HIT:          0  MISS:      88514
cpu0_L2C PREFETCH  ACCESS:          0  HIT:          0  MISS:          0
cpu0_L2C WRITEBACK ACCESS:      88640  HIT:      88640  MISS:          0
LLC TOTAL     ACCESS:     266346  HIT:      88410  MISS:     177936
LLC LOAD      ACCESS:      88767  HIT:          2  MISS:      88765
LLC RFO       ACCESS:      88514  HIT:          0  MISS:      88514
LLC PREFETCH  ACCESS:          0  HIT:          0  MISS:          0
LLC WRITEBACK ACCESS:      89063  HIT:      88408  MISS:        655
Heartbeat CPU 0 instructions: 84000000 cycles: 48397087 heartbeat IPC: 0.756461 cumulative IPC: 1.16658 (Simulation time: 1 hr 25 min 46 sec) 

Region of Interest Statistics
cpu0_DTLB TOTAL     ACCESS:    6304280  HIT:    6301008  MISS:       3272
cpu0_DTLB LOAD      ACCESS:    6088316  HIT:    6086586  MISS:       1730
cpu0_DTLB RFO       ACCESS:     215964  HIT:     214422  MISS:       1542
cpu0_DTLB PREFETCH  ACCESS:          0  HIT:          0  MISS:          0
cpu0_DTLB WRITEBACK ACCESS:          0  HIT:          0  MISS:          0
cpu0_ITLB TOTAL     ACCESS:     150374  HIT:     150374  MISS:          0
cpu0_ITLB LOAD      ACCESS:     150374  HIT:     150374  MISS:          0
cpu0_ITLB RFO       ACCESS:          0  HIT:          0  MISS:          0
cpu0_ITLB PREFETCH  ACCESS:          0  HIT:          0  MISS:          0
cpu0_ITLB WRITEBACK ACCESS:          0  HIT:          0  MISS:          0
cpu0_L1I TOTAL     ACCESS:        567  HIT:        562  MISS:          5
cpu0_L1I LOAD      ACCESS:        567  HIT:        562  MISS:          5
cpu0_L1I RFO       ACCESS:          0  HIT:          0  MISS:          0
cpu0_L1I PREFETCH  ACCESS:          0  HIT:          0  MISS:          0
cpu0_L1I WRITEBACK ACCESS:          0  HIT:          0  MISS:          0
cpu0_STLB TOTAL     ACCESS:       3272  HIT:         39  MISS:       3233
cpu0_STLB LOAD      ACCESS:       1730  HIT:         39  MISS:       1691
cpu0_STLB RFO       ACCESS:       1542  HIT:          0  MISS:       1542
cpu0_STLB PREFETCH  ACCESS:          0  HIT:          0  MISS:          0
cpu0_STLB WRITEBACK ACCESS:          0  HIT:          0  MISS:          0
cpu0_L1D TOTAL     ACCESS:    8035849  HIT:    7834695  MISS:     201154
cpu0_L1D LOAD      ACCESS:    7903531  HIT:    7798820  MISS:     104711
cpu0_L1D RFO       ACCESS:     129088  HIT:      32647  MISS:      96441
cpu0_L1D PREFETCH  ACCESS:          0  HIT:          0  MISS:          0
cpu0_L1D WRITEBACK ACCESS:          0  HIT:          0  MISS:          0
cpu0_L2C TOTAL     ACCESS:     297726  HIT:      96660  MISS:     201066
cpu0_L2C LOAD      ACCESS:     104716  HIT:         93  MISS:     104623
cpu0_L2C RFO       ACCESS:      96441  HIT:          0  MISS:      96441
cpu0_L2C PREFETCH  ACCESS:          0  HIT:          0  MISS:          0
cpu0_L2C WRITEBACK ACCESS:      96567  HIT:      96567  MISS:          0
LLC TOTAL     ACCESS:     299058  HIT:      97200  MISS:     201858
LLC LOAD      ACCESS:     104623  HIT:          2  MISS:     104621
LLC RFO       ACCESS:      96441  HIT:          0  MISS:      96441
LLC PREFETCH  ACCESS:          0  HIT:          0  MISS:          0
LLC WRITEBACK ACCESS:      97992  HIT:      97198  MISS:        794
Heartbeat CPU 0 instructions: 86000003 cycles: 51032969 heartbeat IPC: 0.75876 cumulative IPC: 1.13276 (Simulation time: 1 hr 29 min 17 sec) 

Region of Interest Statistics
cpu0_DTLB TOTAL     ACCESS:    6648142  HIT:    6644484  MISS:       3658
cpu0_DTLB LOAD      ACCESS:    6413430  HIT:    6411442  MISS:       1988
cpu0_DTLB RFO       ACCESS:     234712  HIT:     233042  MISS:       1670
cpu0_DTLB PREFETCH  ACCESS:          0  HIT:          0  MISS:          0
cpu0_DTLB WRITEBACK ACCESS:          0  HIT:          0  MISS:          0
cpu0_ITLB TOTAL     ACCESS:     163291  HIT:     163291  MISS:          0
cpu0_ITLB LOAD      ACCESS:     163291  HIT:     163291  MISS:          0
cpu0_ITLB RFO       ACCESS:          0  HIT:          0  MISS:          0
cpu0_ITLB PREFETCH  ACCESS:          0  HIT:          0  MISS:          0
cpu0_ITLB WRITEBACK ACCESS:          0  HIT:          0  MISS:          0
cpu0_L1I TOTAL     ACCESS:        567  HIT:        562  MISS:          5
cpu0_L1I LOAD      ACCESS:        567  HIT:        562  MISS:          5
cpu0_L1I RFO       ACCESS:          0  HIT:          0  MISS:          0
cpu0_L1I PREFETCH  ACCESS:          0  HIT:          0  MISS:          0
cpu0_L1I WRITEBACK ACCESS:          0  HIT:          0  MISS:          0
cpu0_STLB TOTAL     ACCESS:       3658  HIT:         39  MISS:       3619
cpu0_STLB LOAD      ACCESS:       1988  HIT:         39  MISS:       1949
cpu0_STLB RFO       ACCESS:       1670  HIT:          0  MISS:       1670
cpu0_STLB PREFETCH  ACCESS:          0  HIT:          0  MISS:          0
cpu0_STLB WRITEBACK ACCESS:          0  HIT:          0  MISS:          0
cpu0_L1D TOTAL     ACCESS:    8437755  HIT:    8212816  MISS:     224939
cpu0_L1D LOAD      ACCESS:    8297124  HIT:    8176555  MISS:     120569
cpu0_L1D RFO       ACCESS:     137015  HIT:      32647  MISS:     104368
cpu0_L1D PREFETCH  ACCESS:          0  HIT:          0  MISS:          0
cpu0_L1D WRITEBACK ACCESS:          0  HIT:          0  MISS:          0
cpu0_L2C TOTAL     ACCESS:     329438  HIT:     104591  MISS:     224847
cpu0_L2C LOAD      ACCESS:     120574  HIT:         97  MISS:     120477
cpu0_L2C RFO       ACCESS:     104368  HIT:          0  MISS:     104368
cpu0_L2C PREFETCH  ACCESS:          0  HIT:          0  MISS:          0
cpu0_L2C WRITEBACK ACCESS:     104494  HIT:     104494  MISS:          0
LLC TOTAL     ACCESS:     330889  HIT:     105221  MISS:     225668
LLC LOAD      ACCESS:     120477  HIT:          2  MISS:     120475
LLC RFO       ACCESS:     104368  HIT:          0  MISS:     104368
LLC PREFETCH  ACCESS:          0  HIT:          0  MISS:          0
LLC WRITEBACK ACCESS:     106042  HIT:     105219  MISS:        823
Heartbeat CPU 0 instructions: 88000002 cycles: 53613857 heartbeat IPC: 0.774927 cumulative IPC: 1.10588 (Simulation time: 1 hr 32 min 44 sec) 

Region of Interest Statistics
cpu0_DTLB TOTAL     ACCESS:    6991657  HIT:    6987614  MISS:       4043
cpu0_DTLB LOAD      ACCESS:    6738542  HIT:    6736298  MISS:       2244
cpu0_DTLB RFO       ACCESS:     253115  HIT:     251316  MISS:       1799
cpu0_DTLB PREFETCH  ACCESS:          0  HIT:          0  MISS:          0
cpu0_DTLB WRITEBACK ACCESS:          0  HIT:          0  MISS:          0
cpu0_ITLB TOTAL     ACCESS:     176229  HIT:     176229  MISS:          0
cpu0_ITLB LOAD      ACCESS:     176229  HIT:     176229  MISS:          0
cpu0_ITLB RFO       ACCESS:          0  HIT:          0  MISS:          0
cpu0_ITLB PREFETCH  ACCESS:          0  HIT:          0  MISS:          0
cpu0_ITLB WRITEBACK ACCESS:          0  HIT:          0  MISS:          0
cpu0_L1I TOTAL     ACCESS:        567  HIT:        562  MISS:          5
cpu0_L1I LOAD      ACCESS:        567  HIT:        562  MISS:          5
cpu0_L1I RFO       ACCESS:          0  HIT:          0  MISS:          0
cpu0_L1I PREFETCH  ACCESS:          0  HIT:          0  MISS:          0
cpu0_L1I WRITEBACK ACCESS:          0  HIT:          0  MISS:          0
cpu0_STLB TOTAL     ACCESS:       4043  HIT:         39  MISS:       4004
cpu0_STLB LOAD      ACCESS:       2244  HIT:         39  MISS:       2205
cpu0_STLB RFO       ACCESS:       1799  HIT:          0  MISS:       1799
cpu0_STLB PREFETCH  ACCESS:          0  HIT:          0  MISS:          0
cpu0_STLB WRITEBACK ACCESS:          0  HIT:          0  MISS:          0
cpu0_L1D TOTAL     ACCESS:    8839438  HIT:    8590711  MISS:     248727
cpu0_L1D LOAD      ACCESS:    8690494  HIT:    8554065  MISS:     136429
cpu0_L1D RFO       ACCESS:     144943  HIT:      32647  MISS:     112296
cpu0_L1D PREFETCH  ACCESS:          0  HIT:          0  MISS:          0
cpu0_L1D WRITEBACK ACCESS:          0  HIT:          0  MISS:          0
cpu0_L2C TOTAL     ACCESS:     361155  HIT:     112523  MISS:     248632
cpu0_L2C LOAD      ACCESS:     136434  HIT:        100  MISS:     136334
cpu0_L2C RFO       ACCESS:     112296  HIT:          0  MISS:     112296
cpu0_L2C PREFETCH  ACCESS:          0  HIT:          0  MISS:          0
cpu0_L2C WRITEBACK ACCESS:     112423  HIT:     112423  MISS:          0
LLC TOTAL     ACCESS:     362472  HIT:     112968  MISS:     249504
LLC LOAD      ACCESS:     136334  HIT:          2  MISS:     136332
LLC RFO       ACCESS:     112296  HIT:          0  MISS:     112296
LLC PREFETCH  ACCESS:          0  HIT:          0  MISS:          0
LLC WRITEBACK ACCESS:     113840  HIT:     112966  MISS:        874
Heartbeat CPU 0 instructions: 90000000 cycles: 56188775 heartbeat IPC: 0.776723 cumulative IPC: 1.08293 (Simulation time: 1 hr 36 min 14 sec) 

Region of Interest Statistics
cpu0_DTLB TOTAL     ACCESS:    7335233  HIT:    7330803  MISS:       4430
cpu0_DTLB LOAD      ACCESS:    7065551  HIT:    7063049  MISS:       2502
cpu0_DTLB RFO       ACCESS:     269682  HIT:     267754  MISS:       1928
cpu0_DTLB PREFETCH  ACCESS:          0  HIT:          0  MISS:          0
cpu0_DTLB WRITEBACK ACCESS:          0  HIT:          0  MISS:          0
cpu0_ITLB TOTAL     ACCESS:     188396  HIT:     188396  MISS:          0
cpu0_ITLB LOAD      ACCESS:     188396  HIT:     188396  MISS:          0
cpu0_ITLB RFO       ACCESS:          0  HIT:          0  MISS:          0
cpu0_ITLB PREFETCH  ACCESS:          0  HIT:          0  MISS:          0
cpu0_ITLB WRITEBACK ACCESS:          0  HIT:          0  MISS:          0
cpu0_L1I TOTAL     ACCESS:        567  HIT:        562  MISS:          5
cpu0_L1I LOAD      ACCESS:        567  HIT:        562  MISS:          5
cpu0_L1I RFO       ACCESS:          0  HIT:          0  MISS:          0
cpu0_L1I PREFETCH  ACCESS:          0  HIT:          0  MISS:          0
cpu0_L1I WRITEBACK ACCESS:          0  HIT:          0  MISS:          0
cpu0_STLB TOTAL     ACCESS:       4430  HIT:         39  MISS:       4391
cpu0_STLB LOAD      ACCESS:       2502  HIT:         39  MISS:       2463
cpu0_STLB RFO       ACCESS:       1928  HIT:          0  MISS:       1928
cpu0_STLB PREFETCH  ACCESS:          0  HIT:          0  MISS:          0
cpu0_STLB WRITEBACK ACCESS:          0  HIT:          0  MISS:          0
cpu0_L1D TOTAL     ACCESS:    9236532  HIT:    8964019  MISS:     272513
cpu0_L1D LOAD      ACCESS:    9079274  HIT:    8926987  MISS:     152287
cpu0_L1D RFO       ACCESS:     152870  HIT:      32647  MISS:     120223
cpu0_L1D PREFETCH  ACCESS:          0  HIT:          0  MISS:          0
cpu0_L1D WRITEBACK ACCESS:          0  HIT:          0  MISS:          0
cpu0_L2C TOTAL     ACCESS:     392867  HIT:     120452  MISS:     272415
cpu0_L2C LOAD      ACCESS:     152292  HIT:        103  MISS:     152189
cpu0_L2C RFO       ACCESS:     120223  HIT:          0  MISS:     120223
cpu0_L2C PREFETCH  ACCESS:          0  HIT:          0  MISS:          0
cpu0_L2C WRITEBACK ACCESS:     120349  HIT:     120349  MISS:          0
LLC TOTAL     ACCESS:     394364  HIT:     121078  MISS:     273286
LLC LOAD      ACCESS:     152189  HIT:          3  MISS:     152186
LLC RFO       ACCESS:     120223  HIT:          0  MISS:     120223
LLC PREFETCH  ACCESS:          0  HIT:          0  MISS:          0
LLC WRITEBACK ACCESS:     121949  HIT:     121075  MISS:        874
Heartbeat CPU 0 instructions: 92000001 cycles: 58625477 heartbeat IPC: 0.820782 cumulative IPC: 1.06671 (Simulation time: 1 hr 39 min 37 sec) 

Region of Interest Statistics
cpu0_DTLB TOTAL     ACCESS:    7677259  HIT:    7672451  MISS:       4808
cpu0_DTLB LOAD      ACCESS:    7388787  HIT:    7386033  MISS:       2754
cpu0_DTLB RFO       ACCESS:     288472  HIT:     286418  MISS:       2054
cpu0_DTLB PREFETCH  ACCESS:          0  HIT:          0  MISS:          0
cpu0_DTLB WRITEBACK ACCESS:          0  HIT:          0  MISS:          0
cpu0_ITLB TOTAL     ACCESS:     201316  HIT:     201315  MISS:          1
cpu0_ITLB LOAD      ACCESS:     201316  HIT:     201315  MISS:          1
cpu0_ITLB RFO       ACCESS:          0  HIT:          0  MISS:          0
cpu0_ITLB PREFETCH  ACCESS:          0  HIT:          0  MISS:          0
cpu0_ITLB WRITEBACK ACCESS:          0  HIT:          0  MISS:          0
cpu0_L1I TOTAL     ACCESS:        575  HIT:        566  MISS:          9
cpu0_L1I LOAD      ACCESS:        575  HIT:        566  MISS:          9
cpu0_L1I RFO       ACCESS:          0  HIT:          0  MISS:          0
cpu0_L1I PREFETCH  ACCESS:          0  HIT:          0  MISS:          0
cpu0_L1I WRITEBACK ACCESS:          0  HIT:          0  MISS:          0
cpu0_STLB TOTAL     ACCESS:       4809  HIT:         62  MISS:       4747
cpu0_STLB LOAD      ACCESS:       2755  HIT:         62  MISS:       2693
cpu0_STLB RFO       ACCESS:       2054  HIT:          0  MISS:       2054
cpu0_STLB PREFETCH  ACCESS:          0  HIT:          0  MISS:          0
cpu0_STLB WRITEBACK ACCESS:          0  HIT:          0  MISS:          0
cpu0_L1D TOTAL     ACCESS:    9626961  HIT:    9331166  MISS:     295795
cpu0_L1D LOAD      ACCESS:    9461588  HIT:    9293779  MISS:     167809
cpu0_L1D RFO       ACCESS:     160629  HIT:      32647  MISS:     127982
cpu0_L1D PREFETCH  ACCESS:          0  HIT:          0  MISS:          0
cpu0_L1D WRITEBACK ACCESS:          0  HIT:          0  MISS:          0
cpu0_L2C TOTAL     ACCESS:     423912  HIT:     128213  MISS:     295699
cpu0_L2C LOAD      ACCESS:     167818  HIT:        105  MISS:     167713
cpu0_L2C RFO       ACCESS:     127982  HIT:          0  MISS:     127982
cpu0_L2C PREFETCH  ACCESS:          0  HIT:          0  MISS:          0
cpu0_L2C WRITEBACK ACCESS:     128108  HIT:     128108  MISS:          0
LLC TOTAL     ACCESS:     425210  HIT:     128640  MISS:     296570
LLC LOAD      ACCESS:     167713  HIT:          3  MISS:     167710
LLC RFO       ACCESS:     127982  HIT:          0  MISS:     127982
LLC PREFETCH  ACCESS:          0  HIT:          0  MISS:          0
LLC WRITEBACK ACCESS:     129511  HIT:     128637  MISS:        874
Heartbeat CPU 0 instructions: 94000000 cycles: 61028977 heartbeat IPC: 0.832119 cumulative IPC: 1.05321 (Simulation time: 1 hr 42 min 55 sec) 

Region of Interest Statistics
cpu0_DTLB TOTAL     ACCESS:    8019234  HIT:    8014051  MISS:       5183
cpu0_DTLB LOAD      ACCESS:    7710949  HIT:    7707945  MISS:       3004
cpu0_DTLB RFO       ACCESS:     308285  HIT:     306106  MISS:       2179
cpu0_DTLB PREFETCH  ACCESS:          0  HIT:          0  MISS:          0
cpu0_DTLB WRITEBACK ACCESS:          0  HIT:          0  MISS:          0
cpu0_ITLB TOTAL     ACCESS:     214678  HIT:     214677  MISS:          1
cpu0_ITLB LOAD      ACCESS:     214678  HIT:     214677  MISS:          1
cpu0_ITLB RFO       ACCESS:          0  HIT:          0  MISS:          0
cpu0_ITLB PREFETCH  ACCESS:          0  HIT:          0  MISS:          0
cpu0_ITLB WRITEBACK ACCESS:          0  HIT:          0  MISS:          0
cpu0_L1I TOTAL     ACCESS:        575  HIT:        566  MISS:          9
cpu0_L1I LOAD      ACCESS:        575  HIT:        566  MISS:          9
cpu0_L1I RFO       ACCESS:          0  HIT:          0  MISS:          0
cpu0_L1I PREFETCH  ACCESS:          0  HIT:          0  MISS:          0
cpu0_L1I WRITEBACK ACCESS:          0  HIT:          0  MISS:          0
cpu0_STLB TOTAL     ACCESS:       5184  HIT:         82  MISS:       5102
cpu0_STLB LOAD      ACCESS:       3005  HIT:         82  MISS:       2923
cpu0_STLB RFO       ACCESS:       2179  HIT:          0  MISS:       2179
cpu0_STLB PREFETCH  ACCESS:          0  HIT:          0  MISS:          0
cpu0_STLB WRITEBACK ACCESS:          0  HIT:          0  MISS:          0
cpu0_L1D TOTAL     ACCESS:   10014537  HIT:    9695678  MISS:     318859
cpu0_L1D LOAD      ACCESS:    9841121  HIT:    9657936  MISS:     183185
cpu0_L1D RFO       ACCESS:     168317  HIT:      32647  MISS:     135670
cpu0_L1D PREFETCH  ACCESS:          0  HIT:          0  MISS:          0
cpu0_L1D WRITEBACK ACCESS:          0  HIT:          0  MISS:          0
cpu0_L2C TOTAL     ACCESS:     454664  HIT:     135901  MISS:     318763
cpu0_L2C LOAD      ACCESS:     183194  HIT:        105  MISS:     183089
cpu0_L2C RFO       ACCESS:     135670  HIT:          0  MISS:     135670
cpu0_L2C PREFETCH  ACCESS:          0  HIT:          0  MISS:          0
cpu0_L2C WRITEBACK ACCESS:     135796  HIT:     135796  MISS:          0
LLC TOTAL     ACCESS:     456246  HIT:     136612  MISS:     319634
LLC LOAD      ACCESS:     183089  HIT:          3  MISS:     183086
LLC RFO       ACCESS:     135670  HIT:          0  MISS:     135670
LLC PREFETCH  ACCESS:          0  HIT:          0  MISS:          0
LLC WRITEBACK ACCESS:     137483  HIT:     136609  MISS:        874
Heartbeat CPU 0 instructions: 96000000 cycles: 63474911 heartbeat IPC: 0.817684 cumulative IPC: 1.04019 (Simulation time: 1 hr 46 min 18 sec) 

Region of Interest Statistics
cpu0_DTLB TOTAL     ACCESS:    8360691  HIT:    8355133  MISS:       5558
cpu0_DTLB LOAD      ACCESS:    8033237  HIT:    8029983  MISS:       3254
cpu0_DTLB RFO       ACCESS:     327454  HIT:     325150  MISS:       2304
cpu0_DTLB PREFETCH  ACCESS:          0  HIT:          0  MISS:          0
cpu0_DTLB WRITEBACK ACCESS:          0  HIT:          0  MISS:          0
cpu0_ITLB TOTAL     ACCESS:     227470  HIT:     227469  MISS:          1
cpu0_ITLB LOAD      ACCESS:     227470  HIT:     227469  MISS:          1
cpu0_ITLB RFO       ACCESS:          0  HIT:          0  MISS:          0
cpu0_ITLB PREFETCH  ACCESS:          0  HIT:          0  MISS:          0
cpu0_ITLB WRITEBACK ACCESS:          0  HIT:          0  MISS:          0
cpu0_L1I TOTAL     ACCESS:        575  HIT:        566  MISS:          9
cpu0_L1I LOAD      ACCESS:        575  HIT:        566  MISS:          9
cpu0_L1I RFO       ACCESS:          0  HIT:          0  MISS:          0
cpu0_L1I PREFETCH  ACCESS:          0  HIT:          0  MISS:          0
cpu0_L1I WRITEBACK ACCESS:          0  HIT:          0  MISS:          0
cpu0_STLB TOTAL     ACCESS:       5559  HIT:        102  MISS:       5457
cpu0_STLB LOAD      ACCESS:       3255  HIT:        102  MISS:       3153
cpu0_STLB RFO       ACCESS:       2304  HIT:          0  MISS:       2304
cpu0_STLB PREFETCH  ACCESS:          0  HIT:          0  MISS:          0
cpu0_STLB WRITEBACK ACCESS:          0  HIT:          0  MISS:          0
cpu0_L1D TOTAL     ACCESS:   10400448  HIT:   10058530  MISS:     341918
cpu0_L1D LOAD      ACCESS:   10218991  HIT:   10020433  MISS:     198558
cpu0_L1D RFO       ACCESS:     176003  HIT:      32647  MISS:     143356
cpu0_L1D PREFETCH  ACCESS:          0  HIT:          0  MISS:          0
cpu0_L1D WRITEBACK ACCESS:          0  HIT:          0  MISS:          0
cpu0_L2C TOTAL     ACCESS:     485409  HIT:     143587  MISS:     341822
cpu0_L2C LOAD      ACCESS:     198567  HIT:        105  MISS:     198462
cpu0_L2C RFO       ACCESS:     143356  HIT:          0  MISS:     143356
cpu0_L2C PREFETCH  ACCESS:          0  HIT:          0  MISS:          0
cpu0_L2C WRITEBACK ACCESS:     143482  HIT:     143482  MISS:          0
LLC TOTAL     ACCESS:     486820  HIT:     144127  MISS:     342693
LLC LOAD      ACCESS:     198462  HIT:          3  MISS:     198459
LLC RFO       ACCESS:     143356  HIT:          0  MISS:     143356
LLC PREFETCH  ACCESS:          0  HIT:          0  MISS:          0
LLC WRITEBACK ACCESS:     144998  HIT:     144124  MISS:        874
Heartbeat CPU 0 instructions: 98000002 cycles: 65917837 heartbeat IPC: 0.818691 cumulative IPC: 1.02859 (Simulation time: 1 hr 49 min 38 sec) 

Region of Interest Statistics
cpu0_DTLB TOTAL     ACCESS:    8701016  HIT:    8695083  MISS:       5933
cpu0_DTLB LOAD      ACCESS:    8356446  HIT:    8352942  MISS:       3504
cpu0_DTLB RFO       ACCESS:     344570  HIT:     342141  MISS:       2429
cpu0_DTLB PREFETCH  ACCESS:          0  HIT:          0  MISS:          0
cpu0_DTLB WRITEBACK ACCESS:          0  HIT:          0  MISS:          0
cpu0_ITLB TOTAL     ACCESS:     239456  HIT:     239455  MISS:          1
cpu0_ITLB LOAD      ACCESS:     239456  HIT:     239455  MISS:          1
cpu0_ITLB RFO       ACCESS:          0  HIT:          0  MISS:          0
cpu0_ITLB PREFETCH  ACCESS:          0  HIT:          0  MISS:          0
cpu0_ITLB WRITEBACK ACCESS:          0  HIT:          0  MISS:          0
cpu0_L1I TOTAL     ACCESS:        575  HIT:        566  MISS:          9
cpu0_L1I LOAD      ACCESS:        575  HIT:        566  MISS:          9
cpu0_L1I RFO       ACCESS:          0  HIT:          0  MISS:          0
cpu0_L1I PREFETCH  ACCESS:          0  HIT:          0  MISS:          0
cpu0_L1I WRITEBACK ACCESS:          0  HIT:          0  MISS:          0
cpu0_STLB TOTAL     ACCESS:       5934  HIT:        122  MISS:       5812
cpu0_STLB LOAD      ACCESS:       3505  HIT:        122  MISS:       3383
cpu0_STLB RFO       ACCESS:       2429  HIT:          0  MISS:       2429
cpu0_STLB PREFETCH  ACCESS:          0  HIT:          0  MISS:          0
cpu0_STLB WRITEBACK ACCESS:          0  HIT:          0  MISS:          0
cpu0_L1D TOTAL     ACCESS:   10782636  HIT:   10417652  MISS:     364984
cpu0_L1D LOAD      ACCESS:   10593135  HIT:   10379200  MISS:     213935
cpu0_L1D RFO       ACCESS:     183692  HIT:      32647  MISS:     151045
cpu0_L1D PREFETCH  ACCESS:          0  HIT:          0  MISS:          0
cpu0_L1D WRITEBACK ACCESS:          0  HIT:          0  MISS:          0
cpu0_L2C TOTAL     ACCESS:     516164  HIT:     151276  MISS:     364888
cpu0_L2C LOAD      ACCESS:     213944  HIT:        105  MISS:     213839
cpu0_L2C RFO       ACCESS:     151045  HIT:          0  MISS:     151045
cpu0_L2C PREFETCH  ACCESS:          0  HIT:          0  MISS:          0
cpu0_L2C WRITEBACK ACCESS:     151171  HIT:     151171  MISS:          0
LLC TOTAL     ACCESS:     517262  HIT:     151503  MISS:     365759
LLC LOAD      ACCESS:     213839  HIT:          3  MISS:     213836
LLC RFO       ACCESS:     151045  HIT:          0  MISS:     151045
LLC PREFETCH  ACCESS:          0  HIT:          0  MISS:          0
LLC WRITEBACK ACCESS:     152374  HIT:     151500  MISS:        874
Heartbeat CPU 0 instructions: 100000000 cycles: 68391650 heartbeat IPC: 0.808468 cumulative IPC: 1.01751 (Simulation time: 1 hr 52 min 59 sec) 

Region of Interest Statistics
cpu0_DTLB TOTAL     ACCESS:    9041424  HIT:    9035113  MISS:       6311
cpu0_DTLB LOAD      ACCESS:    8679260  HIT:    8675504  MISS:       3756
cpu0_DTLB RFO       ACCESS:     362164  HIT:     359609  MISS:       2555
cpu0_DTLB PREFETCH  ACCESS:          0  HIT:          0  MISS:          0
cpu0_DTLB WRITEBACK ACCESS:          0  HIT:          0  MISS:          0
cpu0_ITLB TOTAL     ACCESS:     251442  HIT:     251441  MISS:          1
cpu0_ITLB LOAD      ACCESS:     251442  HIT:     251441  MISS:          1
cpu0_ITLB RFO       ACCESS:          0  HIT:          0  MISS:          0
cpu0_ITLB PREFETCH  ACCESS:          0  HIT:          0  MISS:          0
cpu0_ITLB WRITEBACK ACCESS:          0  HIT:          0  MISS:          0
cpu0_L1I TOTAL     ACCESS:        582  HIT:        569  MISS:         13
cpu0_L1I LOAD      ACCESS:        582  HIT:        569  MISS:         13
cpu0_L1I RFO       ACCESS:          0  HIT:          0  MISS:          0
cpu0_L1I PREFETCH  ACCESS:          0  HIT:          0  MISS:          0
cpu0_L1I WRITEBACK ACCESS:          0  HIT:          0  MISS:          0
cpu0_STLB TOTAL     ACCESS:       6312  HIT:        131  MISS:       6181
cpu0_STLB LOAD      ACCESS:       3757  HIT:        131  MISS:       3626
cpu0_STLB RFO       ACCESS:       2555  HIT:          0  MISS:       2555
cpu0_STLB PREFETCH  ACCESS:          0  HIT:          0  MISS:          0
cpu0_STLB WRITEBACK ACCESS:          0  HIT:          0  MISS:          0
cpu0_L1D TOTAL     ACCESS:   11171645  HIT:   10783426  MISS:     388219
cpu0_L1D LOAD      ACCESS:   10974031  HIT:   10744605  MISS:     229426
cpu0_L1D RFO       ACCESS:     191436  HIT:      32647  MISS:     158789
cpu0_L1D PREFETCH  ACCESS:          0  HIT:          0  MISS:          0
cpu0_L1D WRITEBACK ACCESS:          0  HIT:          0  MISS:          0
cpu0_L2C TOTAL     ACCESS:     547149  HIT:     159022  MISS:     388127
cpu0_L2C LOAD      ACCESS:     229439  HIT:        105  MISS:     229334
cpu0_L2C RFO       ACCESS:     158789  HIT:          0  MISS:     158789
cpu0_L2C PREFETCH  ACCESS:          0  HIT:          0  MISS:          0
cpu0_L2C WRITEBACK ACCESS:     158917  HIT:     158917  MISS:          0
LLC TOTAL     ACCESS:     548487  HIT:     159488  MISS:     388999
LLC LOAD      ACCESS:     229334  HIT:          3  MISS:     229331
LLC RFO       ACCESS:     158790  HIT:          0  MISS:     158790
LLC PREFETCH  ACCESS:          0  HIT:          0  MISS:          0
LLC WRITEBACK ACCESS:     160359  HIT:     159485  MISS:        874
Heartbeat CPU 0 instructions: 102000002 cycles: 71177993 heartbeat IPC: 0.717787 cumulative IPC: 1.00143 (Simulation time: 1 hr 56 min 42 sec) 

Region of Interest Statistics
cpu0_DTLB TOTAL     ACCESS:    9383699  HIT:    9377000  MISS:       6699
cpu0_DTLB LOAD      ACCESS:    9001382  HIT:    8997368  MISS:       4014
cpu0_DTLB RFO       ACCESS:     382317  HIT:     379632  MISS:       2685
cpu0_DTLB PREFETCH  ACCESS:          0  HIT:          0  MISS:          0
cpu0_DTLB WRITEBACK ACCESS:          0  HIT:          0  MISS:          0
cpu0_ITLB TOTAL     ACCESS:     264310  HIT:     264309  MISS:          1
cpu0_ITLB LOAD      ACCESS:     264310  HIT:     264309  MISS:          1
cpu0_ITLB RFO       ACCESS:          0  HIT:          0  MISS:          0
cpu0_ITLB PREFETCH  ACCESS:          0  HIT:          0  MISS:          0
cpu0_ITLB WRITEBACK ACCESS:          0  HIT:          0  MISS:          0
cpu0_L1I TOTAL     ACCESS:        583  HIT:        570  MISS:         13
cpu0_L1I LOAD      ACCESS:        583  HIT:        570  MISS:         13
cpu0_L1I RFO       ACCESS:          0  HIT:          0  MISS:          0
cpu0_L1I PREFETCH  ACCESS:          0  HIT:          0  MISS:          0
cpu0_L1I WRITEBACK ACCESS:          0  HIT:          0  MISS:          0
cpu0_STLB TOTAL     ACCESS:       6700  HIT:        142  MISS:       6558
cpu0_STLB LOAD      ACCESS:       4015  HIT:        142  MISS:       3873
cpu0_STLB RFO       ACCESS:       2685  HIT:          0  MISS:       2685
cpu0_STLB PREFETCH  ACCESS:          0  HIT:          0  MISS:          0
cpu0_STLB WRITEBACK ACCESS:          0  HIT:          0  MISS:          0
cpu0_L1D TOTAL     ACCESS:   11584725  HIT:   11172716  MISS:     412009
cpu0_L1D LOAD      ACCESS:   11378800  HIT:   11133518  MISS:     245282
cpu0_L1D RFO       ACCESS:     199370  HIT:      32647  MISS:     166723
cpu0_L1D PREFETCH  ACCESS:          0  HIT:          0  MISS:          0
cpu0_L1D WRITEBACK ACCESS:          0  HIT:          0  MISS:          0
cpu0_L2C TOTAL     ACCESS:     578871  HIT:     166958  MISS:     411913
cpu0_L2C LOAD      ACCESS:     245295  HIT:        105  MISS:     245190
cpu0_L2C RFO       ACCESS:     166723  HIT:          4  MISS:     166719
cpu0_L2C PREFETCH  ACCESS:          0  HIT:          0  MISS:          0
cpu0_L2C WRITEBACK ACCESS:     166849  HIT:     166849  MISS:          0
LLC TOTAL     ACCESS:     579917  HIT:     167130  MISS:     412787
LLC LOAD      ACCESS:     245190  HIT:          3  MISS:     245187
LLC RFO       ACCESS:     166719  HIT:          0  MISS:     166719
LLC PREFETCH  ACCESS:          0  HIT:          0  MISS:          0
LLC WRITEBACK ACCESS:     168004  HIT:     167127  MISS:        877
Heartbeat CPU 0 instructions: 104000000 cycles: 73984074 heartbeat IPC: 0.712737 cumulative IPC: 0.986625 (Simulation time: 2 hr 0 min 20 sec) 

Region of Interest Statistics
cpu0_DTLB TOTAL     ACCESS:    9725884  HIT:    9718804  MISS:       7080
cpu0_DTLB LOAD      ACCESS:    9323456  HIT:    9319189  MISS:       4267
cpu0_DTLB RFO       ACCESS:     402428  HIT:     399615  MISS:       2813
cpu0_DTLB PREFETCH  ACCESS:          0  HIT:          0  MISS:          0
cpu0_DTLB WRITEBACK ACCESS:          0  HIT:          0  MISS:          0
cpu0_ITLB TOTAL     ACCESS:     277074  HIT:     277073  MISS:          1
cpu0_ITLB LOAD      ACCESS:     277074  HIT:     277073  MISS:          1
cpu0_ITLB RFO       ACCESS:          0  HIT:          0  MISS:          0
cpu0_ITLB PREFETCH  ACCESS:          0  HIT:          0  MISS:          0
cpu0_ITLB WRITEBACK ACCESS:          0  HIT:          0  MISS:          0
cpu0_L1I TOTAL     ACCESS:        583  HIT:        570  MISS:         13
cpu0_L1I LOAD      ACCESS:        583  HIT:        570  MISS:         13
cpu0_L1I RFO       ACCESS:          0  HIT:          0  MISS:          0
cpu0_L1I PREFETCH  ACCESS:          0  HIT:          0  MISS:          0
cpu0_L1I WRITEBACK ACCESS:          0  HIT:          0  MISS:          0
cpu0_STLB TOTAL     ACCESS:       7081  HIT:        157  MISS:       6924
cpu0_STLB LOAD      ACCESS:       4268  HIT:        157  MISS:       4111
cpu0_STLB RFO       ACCESS:       2813  HIT:          0  MISS:       2813
cpu0_STLB PREFETCH  ACCESS:          0  HIT:          0  MISS:          0
cpu0_STLB WRITEBACK ACCESS:          0  HIT:          0  MISS:          0
cpu0_L1D TOTAL     ACCESS:   11997663  HIT:   11561868  MISS:     435795
cpu0_L1D LOAD      ACCESS:   11783441  HIT:   11522304  MISS:     261137
cpu0_L1D RFO       ACCESS:     207301  HIT:      32647  MISS:     174654
cpu0_L1D PREFETCH  ACCESS:          0  HIT:          0  MISS:          0
cpu0_L1D WRITEBACK ACCESS:          0  HIT:          0  MISS:          0
cpu0_L2C TOTAL     ACCESS:     610588  HIT:     174893  MISS:     435695
cpu0_L2C LOAD      ACCESS:     261150  HIT:        105  MISS:     261045
cpu0_L2C RFO       ACCESS:     174654  HIT:          8  MISS:     174646
cpu0_L2C PREFETCH  ACCESS:          0  HIT:          0  MISS:          0
cpu0_L2C WRITEBACK ACCESS:     174780  HIT:     174780  MISS:          0
LLC TOTAL     ACCESS:     612065  HIT:     175442  MISS:     436623
LLC LOAD      ACCESS:     261045  HIT:          3  MISS:     261042
LLC RFO       ACCESS:     174646  HIT:          0  MISS:     174646
LLC PREFETCH  ACCESS:          0  HIT:          0  MISS:          0
LLC WRITEBACK ACCESS:     176370  HIT:     175439  MISS:        931
Heartbeat CPU 0 instructions: 106000004 cycles: 76813627 heartbeat IPC: 0.706827 cumulative IPC: 0.972871 (Simulation time: 2 hr 4 min 0 sec) 

Region of Interest Statistics
cpu0_DTLB TOTAL     ACCESS:   10067541  HIT:   10060078  MISS:       7463
cpu0_DTLB LOAD      ACCESS:    9645595  HIT:    9641074  MISS:       4521
cpu0_DTLB RFO       ACCESS:     421946  HIT:     419004  MISS:       2942
cpu0_DTLB PREFETCH  ACCESS:          0  HIT:          0  MISS:          0
cpu0_DTLB WRITEBACK ACCESS:          0  HIT:          0  MISS:          0
cpu0_ITLB TOTAL     ACCESS:     289419  HIT:     289418  MISS:          1
cpu0_ITLB LOAD      ACCESS:     289419  HIT:     289418  MISS:          1
cpu0_ITLB RFO       ACCESS:          0  HIT:          0  MISS:          0
cpu0_ITLB PREFETCH  ACCESS:          0  HIT:          0  MISS:          0
cpu0_ITLB WRITEBACK ACCESS:          0  HIT:          0  MISS:          0
cpu0_L1I TOTAL     ACCESS:        583  HIT:        570  MISS:         13
cpu0_L1I LOAD      ACCESS:        583  HIT:        570  MISS:         13
cpu0_L1I RFO       ACCESS:          0  HIT:          0  MISS:          0
cpu0_L1I PREFETCH  ACCESS:          0  HIT:          0  MISS:          0
cpu0_L1I WRITEBACK ACCESS:          0  HIT:          0  MISS:          0
cpu0_STLB TOTAL     ACCESS:       7464  HIT:        176  MISS:       7288
cpu0_STLB LOAD      ACCESS:       4522  HIT:        176  MISS:       4346
cpu0_STLB RFO       ACCESS:       2942  HIT:          0  MISS:       2942
cpu0_STLB PREFETCH  ACCESS:          0  HIT:          0  MISS:          0
cpu0_STLB WRITEBACK ACCESS:          0  HIT:          0  MISS:          0
cpu0_L1D TOTAL     ACCESS:   12410021  HIT:   11950438  MISS:     459583
cpu0_L1D LOAD      ACCESS:   12187503  HIT:   11910510  MISS:     276993
cpu0_L1D RFO       ACCESS:     215233  HIT:      32647  MISS:     182586
cpu0_L1D PREFETCH  ACCESS:          0  HIT:          0  MISS:          0
cpu0_L1D WRITEBACK ACCESS:          0  HIT:          0  MISS:          0
cpu0_L2C TOTAL     ACCESS:     642308  HIT:     182828  MISS:     459480
cpu0_L2C LOAD      ACCESS:     277006  HIT:        105  MISS:     276901
cpu0_L2C RFO       ACCESS:     182586  HIT:         11  MISS:     182575
cpu0_L2C PREFETCH  ACCESS:          0  HIT:          0  MISS:          0
cpu0_L2C WRITEBACK ACCESS:     182712  HIT:     182712  MISS:          0
[...]
cpu0_DTLB WRITEBACK ACCESS:          0  HIT:          0  MISS:          0
cpu0_DTLB TRANSLATION ACCESS:          0  HIT:          0  MISS:          0
cpu0_DTLB PREFETCH  REQUESTED:          0  ISSUED:          0  USEFUL:          0  USELESS:          0
cpu0_DTLB AVERAGE MISS LATENCY: 23.1768 cycles
cpu0_ITLB TOTAL     ACCESS:   17856490  HIT:   17856427  MISS:         63
cpu0_ITLB LOAD      ACCESS:   17856490  HIT:   17856427  MISS:         63
cpu0_ITLB RFO       ACCESS:          0  HIT:          0  MISS:          0
cpu0_ITLB PREFETCH  ACCESS:          0  HIT:          0  MISS:          0
cpu0_ITLB WRITEBACK ACCESS:          0  HIT:          0  MISS:          0
cpu0_ITLB TRANSLATION ACCESS:          0  HIT:          0  MISS:          0
cpu0_ITLB PREFETCH  REQUESTED:          0  ISSUED:          0  USEFUL:          0  USELESS:          0
cpu0_ITLB AVERAGE MISS LATENCY: 199.619 cycles
cpu0_L1I TOTAL     ACCESS:   33957997  HIT:   33956674  MISS:       1323
cpu0_L1I LOAD      ACCESS:   33957997  HIT:   33956674  MISS:       1323
cpu0_L1I RFO       ACCESS:          0  HIT:          0  MISS:          0
cpu0_L1I PREFETCH  ACCESS:          0  HIT:          0  MISS:          0
cpu0_L1I WRITEBACK ACCESS:          0  HIT:          0  MISS:          0
cpu0_L1I TRANSLATION ACCESS:          0  HIT:          0  MISS:          0
cpu0_L1I PREFETCH  REQUESTED:          0  ISSUED:          0  USEFUL:          0  USELESS:          0
cpu0_L1I AVERAGE MISS LATENCY: 297.197 cycles
cpu0_STLB TOTAL     ACCESS:     348928  HIT:     182769  MISS:     166159
cpu0_STLB LOAD      ACCESS:     280335  HIT:     160163  MISS:     120172
cpu0_STLB RFO       ACCESS:      68593  HIT:      22606  MISS:      45987
cpu0_STLB PREFETCH  ACCESS:          0  HIT:          0  MISS:          0
cpu0_STLB WRITEBACK ACCESS:          0  HIT:          0  MISS:          0
cpu0_STLB TRANSLATION ACCESS:          0  HIT:          0  MISS:          0
cpu0_STLB PREFETCH  REQUESTED:          0  ISSUED:          0  USEFUL:          0  USELESS:          0
cpu0_STLB AVERAGE MISS LATENCY: 29.7806 cycles
cpu0_L1D TOTAL     ACCESS:  396247823  HIT:  381327016  MISS:   14920807
cpu0_L1D LOAD      ACCESS:  359226763  HIT:  347800615  MISS:   11426148
cpu0_L1D RFO       ACCESS:   36865074  HIT:   33384080  MISS:    3480994
cpu0_L1D PREFETCH  ACCESS:          0  HIT:          0  MISS:          0
cpu0_L1D WRITEBACK ACCESS:          0  HIT:          0  MISS:          0
cpu0_L1D TRANSLATION ACCESS:     155986  HIT:     142321  MISS:      13665
cpu0_L1D PREFETCH  REQUESTED:          0  ISSUED:          0  USEFUL:          0  USELESS:          0
cpu0_L1D AVERAGE MISS LATENCY: 222.183 cycles
cpu0_L2C TOTAL     ACCESS:   19561437  HIT:    8091961  MISS:   11469476
cpu0_L2C LOAD      ACCESS:   11427248  HIT:    2603971  MISS:    8823277
cpu0_L2C RFO       ACCESS:    3480957  HIT:     842865  MISS:    2638092
cpu0_L2C PREFETCH  ACCESS:          0  HIT:          0  MISS:          0
cpu0_L2C WRITEBACK ACCESS:    4639567  HIT:    4632190  MISS:       7377
cpu0_L2C TRANSLATION ACCESS:      13665  HIT:      12935  MISS:        730
cpu0_L2C PREFETCH  REQUESTED:          0  ISSUED:          0  USEFUL:          0  USELESS:          0
cpu0_L2C AVERAGE MISS LATENCY: 274.749 cycles
LLC TOTAL     ACCESS:   14973218  HIT:    5104986  MISS:    9868232
LLC LOAD      ACCESS:    8823275  HIT:    1278404  MISS:    7544871
LLC RFO       ACCESS:    2638088  HIT:     336781  MISS:    2301307
LLC PREFETCH  ACCESS:          0  HIT:          0  MISS:          0
LLC WRITEBACK ACCESS:    3511125  HIT:    3489313  MISS:      21812
LLC TRANSLATION ACCESS:        730  HIT:        488  MISS:        242
LLC PREFETCH  REQUESTED:          0  ISSUED:          0  USEFUL:          0  USELESS:          0
LLC AVERAGE MISS LATENCY: 294.938 cycles
~~~~~~~~~~Reuse Distance Profiler output~~~~~~~~~~
0	12867680	8197328
1	16014288	12426896
2	22640560	18542768
3	24419424	22798048
4	28094848	27332480
5	24735584	24181776
6	25107504	24482768
7	22696768	22116864
8	17661840	16770464
9	14143296	13687264
10	12331616	11802704
11	10948320	10380320
12	9477856	8617232
13	7082640	6293472
14	7841936	7034128
15	8587664	7516736
16	8586832	7406544
17	6180592	5660176
18	5404656	4714496
19	5825648	5257664
20	5366784	4893184
21	4519536	4126544
22	4830496	4488896
23	4287424	4009296
24	4293264	4043616
25	3446784	3214320
26	3506528	3309888
27	3075584	2835856
28	2663760	2513392
29	3008832	2815024
30	2807968	2647600
31	3160608	2965616
32	1907504	1780288
33	2550256	2417552
34	2652800	2486128
35	2510624	2245040
36	3165856	2965008
37	3814400	3525984
38	2311504	2153376
39	1814560	1678960
40	1770720	1601024
41	1691152	1534496
42	1507792	1363840
43	1638352	1535152
44	1339472	1181152
45	1645040	1515520
46	1570208	1479712
47	1321248	1218496
48	995712	922208
49	1225488	1159408
50	868336	819120
51	816096	705952
52	756816	668336
53	899552	787200
54	706000	577984
55	852352	782800
56	645296	576240
57	620448	528096
58	397840	324320
59	489904	346704
60	641552	588976
61	490640	447136
62	579680	513024
63	370656	317600
64	846528	755920
66	887712	781456
68	814976	720272
70	810432	733792
72	867840	805392
74	679088	608416
76	525376	456096
78	410896	365888
80	304512	271168
82	444176	425104
84	304560	273808
86	390192	377712
88	305952	265424
90	287008	278096
92	308880	302496
94	161328	154624
96	101920	97232
98	196544	128112
100	186288	180576
102	141152	137216
104	122688	119584
106	74032	70896
108	46336	43776
110	222016	219904
112	81536	79616
114	79056	77120
116	120704	119296
118	48832	46960
120	31328	28736
122	33120	30976
124	31472	29472
126	55104	53648
128	40224	38432
132	33632	32160
136	24192	22672
140	18480	17136
144	15328	14800
148	18848	18544
152	20528	20256
156	46768	46720
160	47008	46912
164	32176	32144
168	43552	43536
172	19952	19952
176	11696	11696
180	5712	5616
184	7728	4976
188	9712	3232
192	14704	7936
196	13248	9392
200	7456	3472
204	10096	6144
208	4224	2544
212	3680	3568
216	2368	2368
220	1424	1424
224	576	576
228	1536	1536
232	1456	1456
236	1248	1248
240	1216	1216
244	656	656
248	1120	1120
252	1328	1328
256	2080	2080
264	5040	5040
272	3760	3760
280	5296	5280
288	6848	6832
296	10208	10208
304	11664	11664
312	14048	14000
320	16048	16000
328	20288	20256
336	18752	18624
344	17280	15632
352	22864	18416
360	22640	18928
368	18768	18080
376	19104	17888
384	18464	15232
392	23312	20336
400	17856	16432
408	15360	15152
416	19264	19264
424	22112	22112
432	24960	24960
440	31040	31040
448	28912	28912
456	31568	31568
464	36288	36288
472	38144	38144
480	43200	43200
488	49440	49440
496	55840	55840
504	52672	52656
512	110336	110272
528	108128	107776
544	114176	112112
560	110352	105824
576	93344	93056
592	81808	80896
608	74736	73152
624	99024	98432
640	114032	114032
656	94656	94656
672	82368	82352
688	37568	37472
704	17104	16992
720	18128	18080
736	29424	28176
752	39104	37712
768	43584	42912
784	36592	35456
800	42672	40768
816	39568	38832
832	35776	35776
848	33600	33600
864	29152	29136
880	24272	24272
896	19056	19056
912	18912	18896
928	11984	11808
944	9568	9296
960	10976	10560
976	9968	9456
992	9440	8848
1008	9120	8192
1024	21216	19216
1056	19984	16128
1088	11456	10400
1120	6112	6096
1152	3504	3504
1184	9312	9296
1216	193312	193264
1248	174832	174736
1280	166576	164240
1312	23600	22400
1344	26032	23632
1376	12240	11440
1408	35328	33328
1440	15616	13664
1472	15728	14976
1504	11184	10064
1536	7264	6560
1568	5776	4704
1600	8672	7072
1632	14016	9984
1664	8224	7712
1696	8096	6448
1728	6208	4416
1760	7072	7072
1792	4816	4816
1824	6384	6368
1856	4224	4016
1888	8064	5824
1920	40320	39088
1952	86736	86192
1984	58800	57296
2016	16176	13168
2048	33120	26080
2112	8288	5296
2176	13536	8736
2240	10128	9440
2304	13952	10752
2368	13056	12368
2432	11616	7424
2496	11920	11056
2560	13984	9728
2624	18752	17024
2688	31024	26272
2752	17968	17008
2816	12192	11728
2880	18848	15504
2944	13872	11552
3008	14416	12352
3072	20560	16640
3136	23952	9008
3200	31616	12256
3264	31376	11696
3328	44720	26912
3392	40288	21888
3456	35072	13376
3520	40976	19360
3584	25744	18832
3648	24784	24480
3712	24912	22848
3776	26384	21728
3840	12928	12928
3904	12368	12368
3968	22784	22672
4032	34064	27904
4096	56880	56448
4224	73520	71696
4352	101984	96752
4480	78512	75184
4608	78288	72032
4736	73072	73072
4864	74672	70080
4992	101840	91344
5120	98864	91744
5248	84896	82192
5376	77648	76288
5504	68640	67616
5632	61504	60256
5760	54368	53488
5888	31136	30224
6016	33104	32336
6144	27200	26032
6272	13424	11936
6400	21824	17888
6528	62320	40912
6656	42720	33360
6784	39344	25600
6912	47952	32880
7040	31376	16976
7168	21472	9648
7296	13808	3664
7424	21392	11264
7552	40832	30400
7680	67600	56848
7808	77040	65984
7936	67920	57808
8064	62496	52688
8192	128448	107520
8448	123056	104096
8704	128432	110688
8960	94816	83952
9216	43568	39344
9472	12880	12528
9728	22656	19024
9984	54224	33200
10240	120720	58400
10496	135408	68240
10752	135600	75936
11008	157488	98832
11264	149680	92608
11520	118352	80592
11776	88160	62976
12032	81792	58992
12288	71264	60592
12544	70352	67104
12800	59840	59152
13056	40464	39760
13312	44736	39760
13568	62080	40544
13824	128304	84560
14080	130416	77584
14336	133840	77296
14592	139104	79088
14848	134208	74064
15104	125792	70432
15360	89216	54624
15616	58560	41104
15872	54608	35312
16128	73072	30032
16384	159120	63376
16896	102448	68096
17408	81856	46640
17920	73280	34560
18432	55984	19136
18944	131392	74880
19456	293024	176640
19968	248576	159280
20480	44064	17808
20992	14368	5648
21504	5648	832
22016	5456	800
22528	6208	1456
23040	11040	6640
23552	205504	154992
24064	8400	3728
24576	5296	2640
25088	1664	448
25600	1392	800
26112	1488	768
26624	1584	880
27136	1424	816
27648	656	80
28160	3904	3168
28672	2128	1632
29184	1376	992
29696	18032	12160
30208	11808	8032
30720	3136	2224
31232	7280	4544
31744	5360	5360
32256	5472	5472
32768	9904	9904
33792	2880	2880
34816	0	0
35840	0	0
36864	32	32
37888	2416	1168
38912	5008	1808
39936	5456	2000
40960	3152	3152
41984	2448	2448
43008	800	800
44032	0	0
45056	16	16
46080	48	16
47104	54128	51888
48128	8288	5824
49152	4304	1632
50176	5344	1536
51200	2320	2240
52224	736	720
53248	112	64
54272	2720	0
55296	2880	0
56320	2016	320
57344	6912	1776
58368	5952	1392
59392	8704	3600
60416	7728	5840
61440	11392	3168
62464	7552	576
63488	4704	256
64512	2688	544
65536	10544	2848
67584	14800	6000
69632	6224	2752
71680	608	608
73728	96	0
75776	2528	896
77824	8352	3200
79872	3232	2864
81920	288	288
83968	112	80
86016	9472	5648
88064	8608	3696
90112	3776	1856
92160	16	16
94208	240	208
96256	6432	2848
98304	7312	3392
100352	1536	1504
102400	64	48
104448	4384	1552
106496	10384	5600
108544	6976	3344
110592	880	864
112640	32	32
114688	1488	992
116736	8944	3296
118784	4064	2688
120832	592	592
122880	128	48
124928	8432	5008
126976	7552	3168
129024	4800	2192
131072	608	576
135168	13072	5072
139264	2272	2224
143360	12496	6480
147456	8752	3920
151552	1696	1248
155648	16016	8368
159744	9008	8912
163840	294528	286928
167936	257728	255056
172032	5632	2080
176128	10464	5664
180224	2048	1312
184320	17072	8288
188416	2928	1648
192512	8480	2928
196608	7104	4288
200704	6032	3104
204800	15280	7360
208896	1536	1312
212992	11696	4928
217088	4048	2992
221184	10064	5408
225280	11680	5584
229376	1744	1008
233472	13600	6048
237568	2192	2000
241664	13872	7248
245760	7600	3856
249856	4320	1536
253952	11424	5664
258048	2064	1472
262144	26320	13008
270336	76208	32688
278528	29664	13856
286720	11952	5008
294912	14592	8224
303104	15920	10736
311296	8896	4736
319488	10240	5728
327680	4528	2624
335872	54128	53648
344064	467360	465312
352256	166928	166368
360448	2528	1024
368640	1696	992
376832	1232	608
385024	4080	1792
393216	2816	896
401408	6720	1920
409600	880	688
417792	2320	992
425984	2240	1392
434176	1040	784
442368	3584	1696
450560	384	384
458752	3888	1888
466944	992	896
475136	2560	1120
483328	2240	1536
491520	960	656
499712	3088	1392
507904	656	560
516096	3808	1568
524288	2992	1760
540672	3424	2048
557056	4016	2320
573440	4592	2624
589824	4448	2560
606208	5184	2912
622592	4608	2320
638976	3056	1760
655360	3104	2016
671744	3984	2256
688128	4576	2416
704512	4576	2496
720896	4960	2368
737280	4192	2544
753664	3504	1984
770048	3744	2064
786432	4480	2624
802816	4160	2304
819200	4496	2544
835584	4464	2320
851968	3872	2112
868352	5120	3328
884736	3424	2112
901120	4064	2400
917504	4672	2688
933888	4448	2320
950272	4192	2448
966656	4560	2176
983040	3424	1872
999424	3056	1600
1015808	3808	2256
1032192	3952	2080
1048576	9328	5152
1081344	8144	4704
1114112	7792	4176
1146880	9152	5152
1179648	7712	4560
1212416	7968	4720
1245184	8768	5280
1277952	9248	5216
1310720	7904	4608
1343488	7472	4336
1376256	9120	5200
1409024	21888	17408
1441792	43584	39504
1474560	31856	28512
1507328	13936	9888
1540096	14880	11344
1572864	14496	11024
1605632	14592	11296
1638400	14320	10864
1671168	26032	22752
1703936	99312	95632
1736704	39408	35264
1769472	19200	16112
1802240	9552	5648
1835008	78416	75280
1867776	8800	5776
1900544	9440	6176
1933312	9680	6016
1966080	8912	5984
1998848	9216	5776
2031616	9408	5168
2064384	8928	5632
2097152	18176	11664
2162688	17824	10496
2228224	19600	12192
2293760	17888	11584
2359296	17744	11040
2424832	15184	10080
2490368	12928	8512
2555904	10464	7104
2621440	7248	5216
2686976	15712	14800
2752512	590352	589712
2818048	286720	285904
2883584	16272	15536
2949120	5216	4480
3014656	5456	4848
3080192	4896	4160
3145728	5264	4256
3211264	4880	4112
3276800	5504	4720
3342336	5152	4432
3407872	4912	3760
3473408	5104	4240
3538944	14960	14064
3604480	15088	14528
3670016	6720	6160
3735552	5488	5136
3801088	5312	4928
3866624	4768	4144
3932160	5024	4672
3997696	5760	5168
4063232	4656	3888
4128768	5024	4672
4194304	46560	45408
4325376	37248	36544
4456448	9584	8688
4587520	9376	8512
4718592	10672	9824
4849664	9072	8144
4980736	11296	10432
5111808	10240	9280
5242880	10128	9584
5373952	12400	11408
5505024	11440	10096
5636096	12688	11504
5767168	12544	11488
5898240	12032	10768
6029312	13728	12400
6160384	12720	11248
6291456	13712	12384
6422528	13808	12656
6553600	13104	11424
6684672	14816	13584
6815744	13296	12128
6946816	12912	11408
7077888	17488	16144
7208960	21280	19520
7340032	20864	19552
7471104	22512	21408
7602176	19808	18480
7733248	22704	21424
7864320	22272	20928
7995392	23632	22192
8126464	30112	28224
8257536	29808	28176
8388608	63952	61008
8650752	70432	66848
8912896	70960	67200
9175040	75616	72128
9437184	78592	74560
9699328	75392	71664
9961472	61152	57264
10223616	52096	49280
10485760	53904	50768
10747904	53088	48928
11010048	55152	51008
11272192	51888	47360
11534336	55360	50752
11796480	72480	67888
12058624	74048	69728
12320768	60416	55424
12582912	46288	42416
12845056	103856	100592
13107200	50064	46112
13369344	44384	39728
13631488	43264	38400
13893632	42416	37968
14155776	36192	31312
14417920	35584	29968
14680064	37200	31152
14942208	36560	30992
15204352	35840	30544
15466496	27296	22720
15728640	29008	21984
15990784	33168	24896
16252928	30096	21120
16515072	27312	18688
16777216	55120	39568
17301504	59376	40672
17825792	52944	35952
18350080	50800	33536
18874368	43584	25664
19398656	44448	27472
19922944	42544	25024
20447232	43824	28800
20971520	42944	26784
21495808	43808	26560
22020096	41840	23952
22544384	43968	27424
23068672	39248	24032
23592960	43936	25744
24117248	41904	23600
24641536	42896	26368
25165824	38272	20704
25690112	38016	24080
26214400	36496	20784
26738688	42608	25408
27262976	37184	21104
27787264	39280	21728
28311552	36448	22656
28835840	40736	24224
29360128	37648	21056
29884416	37728	21808
30408704	38816	21760
30932992	39344	24256
31457280	38256	20992
31981568	41568	22128
32505856	41552	22000
33030144	43040	24096
33554432	81232	45152
34603008	85168	48240
35651584	79600	44272
36700160	89920	48000
37748736	88544	48688
38797312	83744	48480
39845888	75824	39760
40894464	70000	36464
41943040	62960	29824
42991616	64208	28320
44040192	59040	28976
45088768	57520	26752
46137344	51584	25904
47185920	51392	25312
48234496	48800	24464
49283072	44064	22960
50331648	46080	21472
51380224	41488	18592
52428800	40976	18352
53477376	38800	17136
54525952	35968	14992
55574528	35056	15328
56623104	33152	15600
57671680	29040	14128
58720256	35712	15984
59768832	46832	20416
60817408	34816	21488
61865984	42016	25344
62914560	47648	27136
63963136	53696	31760
65011712	49200	34304
66060288	46000	35296
67108864	359888	278944
69206016	397600	379440
71303168	428160	371056
73400320	322944	308256
75497472	78128	64096
77594624	49360	38816
79691776	22112	19440
81788928	19376	18240
83886080	18832	17648
85983232	16544	15760
88080384	14896	14448
90177536	130576	100592
92274688	11120	10736
94371840	10112	9728
96468992	8944	8752
98566144	7472	7248
100663296	4704	4496
102760448	5472	3728
104857600	7200	2448
106954752	4928	848
109051904	2512	800
111149056	1280	784
113246208	656	512
115343360	912	640
117440512	864	496
119537664	768	512
121634816	400	384
123731968	288	272
125829120	480	416
127926272	7888	144
130023424	112	80
132120576	496	112
134217728	4320	176
138412032	9600	1040
142606336	6832	1664
146800640	34688	0
150994944	16	0
155189248	9712	6288
159383552	27104	11280
163577856	64	32
167772160	0	0
171966464	384	384
176160768	2176	2176
180355072	2464	2464
184549376	2336	2336
188743680	2064	2064
192937984	2208	2208
197132288	1952	1952
201326592	2320	2304
205520896	2544	2528
209715200	2272	2256
213909504	1536	1536
218103808	4160	64
222298112	1424	32
226492416	7744	1280
230686720	249664	219536
234881024	5296	160
239075328	0	0
243269632	0	0
247463936	0	0
251658240	0	0
255852544	0	0
260046848	0	0
264241152	0	0
268435456	0	0
276824064	0	0
285212672	0	0
293601280	112	0
301989888	16608	1904
310378496	14288	880
318767104	0	0
327155712	0	0
335544320	0	0
343932928	0	0
352321536	0	0
360710144	0	0
369098752	4464	528
377487360	4112	432
385875968	1152	0
394264576	0	0
402653184	0	0
411041792	0	0
419430400	0	0
427819008	0	0
436207616	0	0
444596224	0	0
452984832	0	0
461373440	0	0
469762048	0	0
478150656	0	0
486539264	0	0
494927872	0	0
503316480	0	0
511705088	0	0
520093696	0	0
528482304	0	0
536870912	0	0
553648128	0	0
570425344	0	0
587202560	0	0
603979776	0	0
620756992	0	0
637534208	0	0
654311424	0	0
671088640	0	0
687865856	0	0
704643072	0	0
721420288	0	0
738197504	0	0
754974720	0	0
771751936	0	0
788529152	0	0
805306368	0	0
822083584	0	0
838860800	0	0
855638016	0	0
872415232	0	0
889192448	0	0
905969664	0	0
922746880	0	0
939524096	0	0
956301312	0	0
973078528	0	0
989855744	0	0
1006632960	0	0
1023410176	0	0
1040187392	0	0
1056964608	0	0
1073741824	0	0
1107296256	0	0
1140850688	0	0
1174405120	0	0
1207959552	0	0
1241513984	0	0
1275068416	0	0
1308622848	0	0
1342177280	0	0
1375731712	0	0
1409286144	0	0
1442840576	0	0
1476395008	0	0
1509949440	0	0
1543503872	0	0
1577058304	0	0
1610612736	0	0
1644167168	0	0
1677721600	0	0
1711276032	0	0
1744830464	0	0
1778384896	0	0
1811939328	0	0
1845493760	0	0
1879048192	0	0
1912602624	0	0
1946157056	0	0
1979711488	0	0
2013265920	0	0
2046820352	0	0
2080374784	0	0
2113929216	0	0
2147483648	0	0
2214592512	0	0
2281701376	0	0
2348810240	0	0
2415919104	0	0
2483027968	0	0
2550136832	0	0
2617245696	0	0
2684354560	0	0
2751463424	0	0
2818572288	0	0
2885681152	0	0
2952790016	0	0
3019898880	0	0
3087007744	0	0
3154116608	0	0
3221225472	0	0
3288334336	0	0
3355443200	0	0
3422552064	0	0
3489660928	0	0
3556769792	0	0
3623878656	0	0
3690987520	0	0
3758096384	0	0
3825205248	0	0
3892314112	0	0
3959422976	0	0
4026531840	0	0
4093640704	0	0
4160749568	0	0
4227858432	0	0
~~~~~~~~~~Reuse Distance Profiler output end~~~~~~~~~~

Sampler size:76351

DRAM Statistics
 CHANNEL 0
 RQ ROW_BUFFER_HIT:     449872  ROW_BUFFER_MISS:    9396429
 DBUS AVG_CONGESTED_CYCLE:    3.95111
 WQ ROW_BUFFER_HIT:     270085  ROW_BUFFER_MISS:    2846822  FULL:          0


CPU 0 Branch Prediction Accuracy: 98.2816% MPKI: 0.437764 Average ROB Occupancy at Mispredict: 311.664
Branch type MPKI
BRANCH_DIRECT_JUMP: 8.2e-05
BRANCH_INDIRECT: 1.66667e-05
BRANCH_CONDITIONAL: 0.437447
BRANCH_DIRECT_CALL: 0.000110667
BRANCH_INDIRECT_CALL: 4.66667e-06
BRANCH_RETURN: 0.000102667

