
*** ChampSim Multicore Out-of-Order Simulator ***

Warmup Instructions: 50000000
Simulation Instructions: 1500000000
Number of CPUs: 1
Off-chip DRAM Size: 4 GiB Channels: 1 Width: 64-bit Data Rate: 3200 MT/s

VirtualMemory physical capacity: 8588881920 num_ppages: 2096895
VirtualMemory page size: 4096 log2_page_size: 12

CPU 0 runs /s/traces/champsim_traces/437.leslie3d-271B.champsimtrace.xz
CPU 0 Bimodal branch predictor
Basic BTB sets: 1024 ways: 8 indirect buffer size: 4096 RAS size: 64
Initializing LRU.
Initializing LRU.
Initializing LRU.
Initializing LRU.
Initializing rdLRU.
Initializing LRU.
Heartbeat CPU 0 instructions: 2000001 cycles: 716727 heartbeat IPC: 2.79046 cumulative IPC: 2.79046 (Simulation time: 0 hr 1 min 32 sec) 
Heartbeat CPU 0 instructions: 4000001 cycles: 1433321 heartbeat IPC: 2.79098 cumulative IPC: 2.79072 (Simulation time: 0 hr 3 min 2 sec) 
Heartbeat CPU 0 instructions: 6000001 cycles: 2149921 heartbeat IPC: 2.79096 cumulative IPC: 2.7908 (Simulation time: 0 hr 4 min 36 sec) 
Heartbeat CPU 0 instructions: 8000000 cycles: 2866521 heartbeat IPC: 2.79096 cumulative IPC: 2.79084 (Simulation time: 0 hr 6 min 5 sec) 
Heartbeat CPU 0 instructions: 10000004 cycles: 3583116 heartbeat IPC: 2.79098 cumulative IPC: 2.79087 (Simulation time: 0 hr 7 min 36 sec) 
Heartbeat CPU 0 instructions: 12000001 cycles: 4299716 heartbeat IPC: 2.79095 cumulative IPC: 2.79088 (Simulation time: 0 hr 9 min 8 sec) 
Heartbeat CPU 0 instructions: 14000000 cycles: 5016309 heartbeat IPC: 2.79098 cumulative IPC: 2.7909 (Simulation time: 0 hr 10 min 40 sec) 
Heartbeat CPU 0 instructions: 16000000 cycles: 5732909 heartbeat IPC: 2.79096 cumulative IPC: 2.7909 (Simulation time: 0 hr 12 min 11 sec) 
Heartbeat CPU 0 instructions: 18000001 cycles: 6449510 heartbeat IPC: 2.79095 cumulative IPC: 2.79091 (Simulation time: 0 hr 13 min 38 sec) 
Heartbeat CPU 0 instructions: 20000002 cycles: 7166110 heartbeat IPC: 2.79096 cumulative IPC: 2.79091 (Simulation time: 0 hr 15 min 9 sec) 
Heartbeat CPU 0 instructions: 22000003 cycles: 7882705 heartbeat IPC: 2.79098 cumulative IPC: 2.79092 (Simulation time: 0 hr 16 min 37 sec) 
Heartbeat CPU 0 instructions: 24000002 cycles: 8599304 heartbeat IPC: 2.79096 cumulative IPC: 2.79092 (Simulation time: 0 hr 18 min 11 sec) 
Heartbeat CPU 0 instructions: 26000000 cycles: 9315898 heartbeat IPC: 2.79098 cumulative IPC: 2.79093 (Simulation time: 0 hr 19 min 46 sec) 
Heartbeat CPU 0 instructions: 28000000 cycles: 10032498 heartbeat IPC: 2.79096 cumulative IPC: 2.79093 (Simulation time: 0 hr 21 min 17 sec) 
Heartbeat CPU 0 instructions: 30000004 cycles: 10749100 heartbeat IPC: 2.79096 cumulative IPC: 2.79093 (Simulation time: 0 hr 22 min 42 sec) 
Heartbeat CPU 0 instructions: 32000003 cycles: 11465695 heartbeat IPC: 2.79098 cumulative IPC: 2.79093 (Simulation time: 0 hr 24 min 9 sec) 
Heartbeat CPU 0 instructions: 34000004 cycles: 12182294 heartbeat IPC: 2.79096 cumulative IPC: 2.79094 (Simulation time: 0 hr 25 min 38 sec) 
Heartbeat CPU 0 instructions: 36000000 cycles: 12898887 heartbeat IPC: 2.79098 cumulative IPC: 2.79094 (Simulation time: 0 hr 27 min 9 sec) 
Heartbeat CPU 0 instructions: 38000003 cycles: 13615488 heartbeat IPC: 2.79096 cumulative IPC: 2.79094 (Simulation time: 0 hr 28 min 33 sec) 
Heartbeat CPU 0 instructions: 40000001 cycles: 14332087 heartbeat IPC: 2.79096 cumulative IPC: 2.79094 (Simulation time: 0 hr 30 min 1 sec) 
Heartbeat CPU 0 instructions: 42000000 cycles: 15048681 heartbeat IPC: 2.79098 cumulative IPC: 2.79094 (Simulation time: 0 hr 31 min 31 sec) 
Heartbeat CPU 0 instructions: 44000000 cycles: 15765281 heartbeat IPC: 2.79096 cumulative IPC: 2.79094 (Simulation time: 0 hr 32 min 59 sec) 
Heartbeat CPU 0 instructions: 46000002 cycles: 16481876 heartbeat IPC: 2.79098 cumulative IPC: 2.79094 (Simulation time: 0 hr 34 min 25 sec) 
Heartbeat CPU 0 instructions: 48000001 cycles: 17198476 heartbeat IPC: 2.79096 cumulative IPC: 2.79095 (Simulation time: 0 hr 35 min 53 sec) 
Heartbeat CPU 0 instructions: 50000002 cycles: 17915076 heartbeat IPC: 2.79096 cumulative IPC: 2.79095 (Simulation time: 0 hr 37 min 27 sec) 

Warmup complete CPU 0 instructions: 50000002 cycles: 17915076 (Simulation time: 0 hr 37 min 27 sec) 

Heartbeat CPU 0 instructions: 52000001 cycles: 19469604 heartbeat IPC: 1.28656 cumulative IPC: 1.28656 (Simulation time: 0 hr 39 min 50 sec) 

Region of Interest Statistics
cpu0_DTLB TOTAL     ACCESS:     337373  HIT:     337215  MISS:        158
cpu0_DTLB LOAD      ACCESS:     304784  HIT:     304705  MISS:         79
cpu0_DTLB RFO       ACCESS:      32589  HIT:      32510  MISS:         79
cpu0_DTLB PREFETCH  ACCESS:          0  HIT:          0  MISS:          0
cpu0_DTLB WRITEBACK ACCESS:          0  HIT:          0  MISS:          0
cpu0_ITLB TOTAL     ACCESS:       7659  HIT:       7659  MISS:          0
cpu0_ITLB LOAD      ACCESS:       7659  HIT:       7659  MISS:          0
cpu0_ITLB RFO       ACCESS:          0  HIT:          0  MISS:          0
cpu0_ITLB PREFETCH  ACCESS:          0  HIT:          0  MISS:          0
cpu0_ITLB WRITEBACK ACCESS:          0  HIT:          0  MISS:          0
cpu0_STLB TOTAL     ACCESS:        158  HIT:          0  MISS:        158
cpu0_STLB LOAD      ACCESS:         79  HIT:          0  MISS:         79
cpu0_STLB RFO       ACCESS:         79  HIT:          0  MISS:         79
cpu0_STLB PREFETCH  ACCESS:          0  HIT:          0  MISS:          0
cpu0_STLB WRITEBACK ACCESS:          0  HIT:          0  MISS:          0
cpu0_L1D TOTAL     ACCESS:     441962  HIT:     432150  MISS:       9812
cpu0_L1D LOAD      ACCESS:     432380  HIT:     427473  MISS:       4907
cpu0_L1D RFO       ACCESS:       9424  HIT:       4519  MISS:       4905
cpu0_L1D PREFETCH  ACCESS:          0  HIT:          0  MISS:          0
cpu0_L1D WRITEBACK ACCESS:          0  HIT:          0  MISS:          0
cpu0_L2C TOTAL     ACCESS:      14707  HIT:       4895  MISS:       9812
cpu0_L2C LOAD      ACCESS:       4907  HIT:          0  MISS:       4907
cpu0_L2C RFO       ACCESS:       4905  HIT:          0  MISS:       4905
cpu0_L2C PREFETCH  ACCESS:          0  HIT:          0  MISS:          0
cpu0_L2C WRITEBACK ACCESS:       4895  HIT:       4895  MISS:          0
LLC TOTAL     ACCESS:      14761  HIT:       4852  MISS:       9909
LLC LOAD      ACCESS:       4907  HIT:          0  MISS:       4907
LLC RFO       ACCESS:       4905  HIT:          0  MISS:       4905
LLC PREFETCH  ACCESS:          0  HIT:          0  MISS:          0
LLC WRITEBACK ACCESS:       4949  HIT:       4852  MISS:         97
Heartbeat CPU 0 instructions: 54000002 cycles: 21036251 heartbeat IPC: 1.27661 cumulative IPC: 1.28157 (Simulation time: 0 hr 42 min 19 sec) 

Region of Interest Statistics
cpu0_DTLB TOTAL     ACCESS:     674829  HIT:     674511  MISS:        318
cpu0_DTLB LOAD      ACCESS:     609631  HIT:     609472  MISS:        159
cpu0_DTLB RFO       ACCESS:      65198  HIT:      65039  MISS:        159
cpu0_DTLB PREFETCH  ACCESS:          0  HIT:          0  MISS:          0
cpu0_DTLB WRITEBACK ACCESS:          0  HIT:          0  MISS:          0
cpu0_ITLB TOTAL     ACCESS:      15292  HIT:      15292  MISS:          0
cpu0_ITLB LOAD      ACCESS:      15292  HIT:      15292  MISS:          0
cpu0_ITLB RFO       ACCESS:          0  HIT:          0  MISS:          0
cpu0_ITLB PREFETCH  ACCESS:          0  HIT:          0  MISS:          0
cpu0_ITLB WRITEBACK ACCESS:          0  HIT:          0  MISS:          0
cpu0_STLB TOTAL     ACCESS:        318  HIT:          0  MISS:        318
cpu0_STLB LOAD      ACCESS:        159  HIT:          0  MISS:        159
cpu0_STLB RFO       ACCESS:        159  HIT:          0  MISS:        159
cpu0_STLB PREFETCH  ACCESS:          0  HIT:          0  MISS:          0
cpu0_STLB WRITEBACK ACCESS:          0  HIT:          0  MISS:          0
cpu0_L1D TOTAL     ACCESS:     884008  HIT:     864386  MISS:      19622
cpu0_L1D LOAD      ACCESS:     864846  HIT:     855033  MISS:       9813
cpu0_L1D RFO       ACCESS:      18844  HIT:       9035  MISS:       9809
cpu0_L1D PREFETCH  ACCESS:          0  HIT:          0  MISS:          0
cpu0_L1D WRITEBACK ACCESS:          0  HIT:          0  MISS:          0
cpu0_L2C TOTAL     ACCESS:      29421  HIT:       9799  MISS:      19622
cpu0_L2C LOAD      ACCESS:       9813  HIT:          0  MISS:       9813
cpu0_L2C RFO       ACCESS:       9809  HIT:          0  MISS:       9809
cpu0_L2C PREFETCH  ACCESS:          0  HIT:          0  MISS:          0
cpu0_L2C WRITEBACK ACCESS:       9799  HIT:       9799  MISS:          0
LLC TOTAL     ACCESS:      29722  HIT:       9843  MISS:      19879
LLC LOAD      ACCESS:       9813  HIT:          0  MISS:       9813
LLC RFO       ACCESS:       9809  HIT:          0  MISS:       9809
LLC PREFETCH  ACCESS:          0  HIT:          0  MISS:          0
LLC WRITEBACK ACCESS:      10100  HIT:       9843  MISS:        257
Heartbeat CPU 0 instructions: 56000003 cycles: 22605613 heartbeat IPC: 1.2744 cumulative IPC: 1.27917 (Simulation time: 0 hr 44 min 50 sec) 

Region of Interest Statistics
cpu0_DTLB TOTAL     ACCESS:    1012328  HIT:    1011854  MISS:        474
cpu0_DTLB LOAD      ACCESS:     914492  HIT:     914255  MISS:        237
cpu0_DTLB RFO       ACCESS:      97836  HIT:      97599  MISS:        237
cpu0_DTLB PREFETCH  ACCESS:          0  HIT:          0  MISS:          0
cpu0_DTLB WRITEBACK ACCESS:          0  HIT:          0  MISS:          0
cpu0_ITLB TOTAL     ACCESS:      22947  HIT:      22947  MISS:          0
cpu0_ITLB LOAD      ACCESS:      22947  HIT:      22947  MISS:          0
cpu0_ITLB RFO       ACCESS:          0  HIT:          0  MISS:          0
cpu0_ITLB PREFETCH  ACCESS:          0  HIT:          0  MISS:          0
cpu0_ITLB WRITEBACK ACCESS:          0  HIT:          0  MISS:          0
cpu0_STLB TOTAL     ACCESS:        474  HIT:          0  MISS:        474
cpu0_STLB LOAD      ACCESS:        237  HIT:          0  MISS:        237
cpu0_STLB RFO       ACCESS:        237  HIT:          0  MISS:        237
cpu0_STLB PREFETCH  ACCESS:          0  HIT:          0  MISS:          0
cpu0_STLB WRITEBACK ACCESS:          0  HIT:          0  MISS:          0
cpu0_L1D TOTAL     ACCESS:    1326102  HIT:    1296667  MISS:      29435
cpu0_L1D LOAD      ACCESS:    1297362  HIT:    1282642  MISS:      14720
cpu0_L1D RFO       ACCESS:      28266  HIT:      13551  MISS:      14715
cpu0_L1D PREFETCH  ACCESS:          0  HIT:          0  MISS:          0
cpu0_L1D WRITEBACK ACCESS:          0  HIT:          0  MISS:          0
cpu0_L2C TOTAL     ACCESS:      44141  HIT:      14706  MISS:      29435
cpu0_L2C LOAD      ACCESS:      14720  HIT:          0  MISS:      14720
cpu0_L2C RFO       ACCESS:      14715  HIT:          0  MISS:      14715
cpu0_L2C PREFETCH  ACCESS:          0  HIT:          0  MISS:          0
cpu0_L2C WRITEBACK ACCESS:      14706  HIT:      14706  MISS:          0
LLC TOTAL     ACCESS:      44708  HIT:      14839  MISS:      29869
LLC LOAD      ACCESS:      14720  HIT:          0  MISS:      14720
LLC RFO       ACCESS:      14715  HIT:          0  MISS:      14715
LLC PREFETCH  ACCESS:          0  HIT:          0  MISS:          0
LLC WRITEBACK ACCESS:      15273  HIT:      14839  MISS:        434
Heartbeat CPU 0 instructions: 58000003 cycles: 25223078 heartbeat IPC: 0.764098 cumulative IPC: 1.09469 (Simulation time: 0 hr 48 min 23 sec) 

Region of Interest Statistics
cpu0_DTLB TOTAL     ACCESS:    1366560  HIT:    1365712  MISS:        848
cpu0_DTLB LOAD      ACCESS:    1247402  HIT:    1246918  MISS:        484
cpu0_DTLB RFO       ACCESS:     119158  HIT:     118794  MISS:        364
cpu0_DTLB PREFETCH  ACCESS:          0  HIT:          0  MISS:          0
cpu0_DTLB WRITEBACK ACCESS:          0  HIT:          0  MISS:          0
cpu0_ITLB TOTAL     ACCESS:      36673  HIT:      36673  MISS:          0
cpu0_ITLB LOAD      ACCESS:      36673  HIT:      36673  MISS:          0
cpu0_ITLB RFO       ACCESS:          0  HIT:          0  MISS:          0
cpu0_ITLB PREFETCH  ACCESS:          0  HIT:          0  MISS:          0
cpu0_ITLB WRITEBACK ACCESS:          0  HIT:          0  MISS:          0
cpu0_L1I TOTAL     ACCESS:         11  HIT:          6  MISS:          5
cpu0_L1I LOAD      ACCESS:         11  HIT:          6  MISS:          5
cpu0_L1I RFO       ACCESS:          0  HIT:          0  MISS:          0
cpu0_L1I PREFETCH  ACCESS:          0  HIT:          0  MISS:          0
cpu0_L1I WRITEBACK ACCESS:          0  HIT:          0  MISS:          0
cpu0_STLB TOTAL     ACCESS:        848  HIT:          0  MISS:        848
cpu0_STLB LOAD      ACCESS:        484  HIT:          0  MISS:        484
cpu0_STLB RFO       ACCESS:        364  HIT:          0  MISS:        364
cpu0_STLB PREFETCH  ACCESS:          0  HIT:          0  MISS:          0
cpu0_STLB WRITEBACK ACCESS:          0  HIT:          0  MISS:          0
cpu0_L1D TOTAL     ACCESS:    1761068  HIT:    1708536  MISS:      52532
cpu0_L1D LOAD      ACCESS:    1723725  HIT:    1693747  MISS:      29978
cpu0_L1D RFO       ACCESS:      36495  HIT:      13942  MISS:      22553
cpu0_L1D PREFETCH  ACCESS:          0  HIT:          0  MISS:          0
cpu0_L1D WRITEBACK ACCESS:          0  HIT:          0  MISS:          0
cpu0_L2C TOTAL     ACCESS:      75208  HIT:      22671  MISS:      52537
cpu0_L2C LOAD      ACCESS:      29983  HIT:          0  MISS:      29983
cpu0_L2C RFO       ACCESS:      22553  HIT:          0  MISS:      22553
cpu0_L2C PREFETCH  ACCESS:          0  HIT:          0  MISS:          0
cpu0_L2C WRITEBACK ACCESS:      22671  HIT:      22671  MISS:          0
LLC TOTAL     ACCESS:      76654  HIT:      23635  MISS:      53019
LLC LOAD      ACCESS:      29983  HIT:          0  MISS:      29983
LLC RFO       ACCESS:      22553  HIT:          0  MISS:      22553
LLC PREFETCH  ACCESS:          0  HIT:          0  MISS:          0
LLC WRITEBACK ACCESS:      24117  HIT:      23635  MISS:        482
Heartbeat CPU 0 instructions: 60000004 cycles: 27889794 heartbeat IPC: 0.749987 cumulative IPC: 1.00253 (Simulation time: 0 hr 51 min 55 sec) 

Region of Interest Statistics
cpu0_DTLB TOTAL     ACCESS:    1722089  HIT:    1720845  MISS:       1244
cpu0_DTLB LOAD      ACCESS:    1582911  HIT:    1582163  MISS:        748
cpu0_DTLB RFO       ACCESS:     139178  HIT:     138682  MISS:        496
cpu0_DTLB PREFETCH  ACCESS:          0  HIT:          0  MISS:          0
cpu0_DTLB WRITEBACK ACCESS:          0  HIT:          0  MISS:          0
cpu0_ITLB TOTAL     ACCESS:      50798  HIT:      50798  MISS:          0
cpu0_ITLB LOAD      ACCESS:      50798  HIT:      50798  MISS:          0
cpu0_ITLB RFO       ACCESS:          0  HIT:          0  MISS:          0
cpu0_ITLB PREFETCH  ACCESS:          0  HIT:          0  MISS:          0
cpu0_ITLB WRITEBACK ACCESS:          0  HIT:          0  MISS:          0
cpu0_L1I TOTAL     ACCESS:         11  HIT:          6  MISS:          5
cpu0_L1I LOAD      ACCESS:         11  HIT:          6  MISS:          5
cpu0_L1I RFO       ACCESS:          0  HIT:          0  MISS:          0
cpu0_L1I PREFETCH  ACCESS:          0  HIT:          0  MISS:          0
cpu0_L1I WRITEBACK ACCESS:          0  HIT:          0  MISS:          0
cpu0_STLB TOTAL     ACCESS:       1244  HIT:          0  MISS:       1244
cpu0_STLB LOAD      ACCESS:        748  HIT:          0  MISS:        748
cpu0_STLB RFO       ACCESS:        496  HIT:          0  MISS:        496
cpu0_STLB PREFETCH  ACCESS:          0  HIT:          0  MISS:          0
cpu0_STLB WRITEBACK ACCESS:          0  HIT:          0  MISS:          0
cpu0_L1D TOTAL     ACCESS:    2195461  HIT:    2118579  MISS:      76882
cpu0_L1D LOAD      ACCESS:    2149605  HIT:    2103394  MISS:      46211
cpu0_L1D RFO       ACCESS:      44612  HIT:      13942  MISS:      30670
cpu0_L1D PREFETCH  ACCESS:          0  HIT:          0  MISS:          0
cpu0_L1D WRITEBACK ACCESS:          0  HIT:          0  MISS:          0
cpu0_L2C TOTAL     ACCESS:     107674  HIT:      30787  MISS:      76887
cpu0_L2C LOAD      ACCESS:      46216  HIT:          0  MISS:      46216
cpu0_L2C RFO       ACCESS:      30670  HIT:          0  MISS:      30670
cpu0_L2C PREFETCH  ACCESS:          0  HIT:          0  MISS:          0
cpu0_L2C WRITEBACK ACCESS:      30787  HIT:      30787  MISS:          0
LLC TOTAL     ACCESS:     109540  HIT:      32171  MISS:      77369
LLC LOAD      ACCESS:      46216  HIT:          0  MISS:      46216
LLC RFO       ACCESS:      30670  HIT:          0  MISS:      30670
LLC PREFETCH  ACCESS:          0  HIT:          0  MISS:          0
LLC WRITEBACK ACCESS:      32653  HIT:      32171  MISS:        482
Heartbeat CPU 0 instructions: 62000003 cycles: 30494313 heartbeat IPC: 0.767896 cumulative IPC: 0.953953 (Simulation time: 0 hr 55 min 19 sec) 

Region of Interest Statistics
cpu0_DTLB TOTAL     ACCESS:    2077623  HIT:    2075989  MISS:       1634
cpu0_DTLB LOAD      ACCESS:    1918637  HIT:    1917629  MISS:       1008
cpu0_DTLB RFO       ACCESS:     158986  HIT:     158360  MISS:        626
cpu0_DTLB PREFETCH  ACCESS:          0  HIT:          0  MISS:          0
cpu0_DTLB WRITEBACK ACCESS:          0  HIT:          0  MISS:          0
cpu0_ITLB TOTAL     ACCESS:      64544  HIT:      64544  MISS:          0
cpu0_ITLB LOAD      ACCESS:      64544  HIT:      64544  MISS:          0
cpu0_ITLB RFO       ACCESS:          0  HIT:          0  MISS:          0
cpu0_ITLB PREFETCH  ACCESS:          0  HIT:          0  MISS:          0
cpu0_ITLB WRITEBACK ACCESS:          0  HIT:          0  MISS:          0
cpu0_L1I TOTAL     ACCESS:         11  HIT:          6  MISS:          5
cpu0_L1I LOAD      ACCESS:         11  HIT:          6  MISS:          5
cpu0_L1I RFO       ACCESS:          0  HIT:          0  MISS:          0
cpu0_L1I PREFETCH  ACCESS:          0  HIT:          0  MISS:          0
cpu0_L1I WRITEBACK ACCESS:          0  HIT:          0  MISS:          0
cpu0_STLB TOTAL     ACCESS:       1634  HIT:          0  MISS:       1634
cpu0_STLB LOAD      ACCESS:       1008  HIT:          0  MISS:       1008
cpu0_STLB RFO       ACCESS:        626  HIT:          0  MISS:        626
cpu0_STLB PREFETCH  ACCESS:          0  HIT:          0  MISS:          0
cpu0_STLB WRITEBACK ACCESS:          0  HIT:          0  MISS:          0
cpu0_L1D TOTAL     ACCESS:    2630496  HIT:    2529266  MISS:     101230
cpu0_L1D LOAD      ACCESS:    2576134  HIT:    2513691  MISS:      62443
cpu0_L1D RFO       ACCESS:      52728  HIT:      13942  MISS:      38786
cpu0_L1D PREFETCH  ACCESS:          0  HIT:          0  MISS:          0
cpu0_L1D WRITEBACK ACCESS:          0  HIT:          0  MISS:          0
cpu0_L2C TOTAL     ACCESS:     140139  HIT:      38904  MISS:     101235
cpu0_L2C LOAD      ACCESS:      62448  HIT:          0  MISS:      62448
cpu0_L2C RFO       ACCESS:      38786  HIT:          0  MISS:      38786
cpu0_L2C PREFETCH  ACCESS:          0  HIT:          0  MISS:          0
cpu0_L2C WRITEBACK ACCESS:      38904  HIT:      38904  MISS:          0
LLC TOTAL     ACCESS:     141852  HIT:      40135  MISS:     101717
LLC LOAD      ACCESS:      62448  HIT:          0  MISS:      62448
LLC RFO       ACCESS:      38786  HIT:          0  MISS:      38786
LLC PREFETCH  ACCESS:          0  HIT:          0  MISS:          0
LLC WRITEBACK ACCESS:      40617  HIT:      40135  MISS:        482
Heartbeat CPU 0 instructions: 64000002 cycles: 33073407 heartbeat IPC: 0.775466 cumulative IPC: 0.923585 (Simulation time: 0 hr 58 min 43 sec) 

Region of Interest Statistics
cpu0_DTLB TOTAL     ACCESS:    2432716  HIT:    2430689  MISS:       2027
cpu0_DTLB LOAD      ACCESS:    2254097  HIT:    2252827  MISS:       1270
cpu0_DTLB RFO       ACCESS:     178619  HIT:     177862  MISS:        757
cpu0_DTLB PREFETCH  ACCESS:          0  HIT:          0  MISS:          0
cpu0_DTLB WRITEBACK ACCESS:          0  HIT:          0  MISS:          0
cpu0_ITLB TOTAL     ACCESS:      78366  HIT:      78366  MISS:          0
cpu0_ITLB LOAD      ACCESS:      78366  HIT:      78366  MISS:          0
cpu0_ITLB RFO       ACCESS:          0  HIT:          0  MISS:          0
cpu0_ITLB PREFETCH  ACCESS:          0  HIT:          0  MISS:          0
cpu0_ITLB WRITEBACK ACCESS:          0  HIT:          0  MISS:          0
cpu0_L1I TOTAL     ACCESS:         11  HIT:          6  MISS:          5
cpu0_L1I LOAD      ACCESS:         11  HIT:          6  MISS:          5
cpu0_L1I RFO       ACCESS:          0  HIT:          0  MISS:          0
cpu0_L1I PREFETCH  ACCESS:          0  HIT:          0  MISS:          0
cpu0_L1I WRITEBACK ACCESS:          0  HIT:          0  MISS:          0
cpu0_STLB TOTAL     ACCESS:       2027  HIT:          0  MISS:       2027
cpu0_STLB LOAD      ACCESS:       1270  HIT:          0  MISS:       1270
cpu0_STLB RFO       ACCESS:        757  HIT:          0  MISS:        757
cpu0_STLB PREFETCH  ACCESS:          0  HIT:          0  MISS:          0
cpu0_STLB WRITEBACK ACCESS:          0  HIT:          0  MISS:          0
cpu0_L1D TOTAL     ACCESS:    3065225  HIT:    2939647  MISS:     125578
cpu0_L1D LOAD      ACCESS:    3002354  HIT:    2923679  MISS:      78675
cpu0_L1D RFO       ACCESS:      60844  HIT:      13942  MISS:      46902
cpu0_L1D PREFETCH  ACCESS:          0  HIT:          0  MISS:          0
cpu0_L1D WRITEBACK ACCESS:          0  HIT:          0  MISS:          0
cpu0_L2C TOTAL     ACCESS:     172603  HIT:      47020  MISS:     125583
cpu0_L2C LOAD      ACCESS:      78680  HIT:          0  MISS:      78680
cpu0_L2C RFO       ACCESS:      46902  HIT:          0  MISS:      46902
cpu0_L2C PREFETCH  ACCESS:          0  HIT:          0  MISS:          0
cpu0_L2C WRITEBACK ACCESS:      47020  HIT:      47020  MISS:          0
LLC TOTAL     ACCESS:     174057  HIT:      47992  MISS:     126065
LLC LOAD      ACCESS:      78680  HIT:          0  MISS:      78680
LLC RFO       ACCESS:      46902  HIT:          0  MISS:      46902
LLC PREFETCH  ACCESS:          0  HIT:          0  MISS:          0
LLC WRITEBACK ACCESS:      48474  HIT:      47992  MISS:        482
Heartbeat CPU 0 instructions: 66000002 cycles: 35550715 heartbeat IPC: 0.807328 cumulative IPC: 0.907254 (Simulation time: 1 hr 2 min 0 sec) 

Region of Interest Statistics
cpu0_DTLB TOTAL     ACCESS:    2781456  HIT:    2779044  MISS:       2412
cpu0_DTLB LOAD      ACCESS:    2584317  HIT:    2582790  MISS:       1527
cpu0_DTLB RFO       ACCESS:     197139  HIT:     196254  MISS:        885
cpu0_DTLB PREFETCH  ACCESS:          0  HIT:          0  MISS:          0
cpu0_DTLB WRITEBACK ACCESS:          0  HIT:          0  MISS:          0
cpu0_ITLB TOTAL     ACCESS:      91900  HIT:      91900  MISS:          0
cpu0_ITLB LOAD      ACCESS:      91900  HIT:      91900  MISS:          0
cpu0_ITLB RFO       ACCESS:          0  HIT:          0  MISS:          0
cpu0_ITLB PREFETCH  ACCESS:          0  HIT:          0  MISS:          0
cpu0_ITLB WRITEBACK ACCESS:          0  HIT:          0  MISS:          0
cpu0_L1I TOTAL     ACCESS:         20  HIT:         11  MISS:          9
cpu0_L1I LOAD      ACCESS:         20  HIT:         11  MISS:          9
cpu0_L1I RFO       ACCESS:          0  HIT:          0  MISS:          0
cpu0_L1I PREFETCH  ACCESS:          0  HIT:          0  MISS:          0
cpu0_L1I WRITEBACK ACCESS:          0  HIT:          0  MISS:          0
cpu0_STLB TOTAL     ACCESS:       2412  HIT:         18  MISS:       2394
cpu0_STLB LOAD      ACCESS:       1527  HIT:         18  MISS:       1509
cpu0_STLB RFO       ACCESS:        885  HIT:          0  MISS:        885
cpu0_STLB PREFETCH  ACCESS:          0  HIT:          0  MISS:          0
cpu0_STLB WRITEBACK ACCESS:          0  HIT:          0  MISS:          0
cpu0_L1D TOTAL     ACCESS:    3491529  HIT:    3342082  MISS:     149447
cpu0_L1D LOAD      ACCESS:    3420335  HIT:    3325747  MISS:      94588
cpu0_L1D RFO       ACCESS:      68800  HIT:      13942  MISS:      54858
cpu0_L1D PREFETCH  ACCESS:          0  HIT:          0  MISS:          0
cpu0_L1D WRITEBACK ACCESS:          0  HIT:          0  MISS:          0
cpu0_L2C TOTAL     ACCESS:     204432  HIT:      54976  MISS:     149456
cpu0_L2C LOAD      ACCESS:      94597  HIT:          0  MISS:      94597
cpu0_L2C RFO       ACCESS:      54858  HIT:          0  MISS:      54858
cpu0_L2C PREFETCH  ACCESS:          0  HIT:          0  MISS:          0
cpu0_L2C WRITEBACK ACCESS:      54976  HIT:      54976  MISS:          0
LLC TOTAL     ACCESS:     205865  HIT:      55927  MISS:     149938
LLC LOAD      ACCESS:      94597  HIT:          0  MISS:      94597
LLC RFO       ACCESS:      54858  HIT:          0  MISS:      54858
LLC PREFETCH  ACCESS:          0  HIT:          0  MISS:          0
LLC WRITEBACK ACCESS:      56409  HIT:      55927  MISS:        482
Heartbeat CPU 0 instructions: 68000004 cycles: 37996548 heartbeat IPC: 0.817718 cumulative IPC: 0.896349 (Simulation time: 1 hr 5 min 38 sec) 

Region of Interest Statistics
cpu0_DTLB TOTAL     ACCESS:    3126378  HIT:    3123586  MISS:       2792
cpu0_DTLB LOAD      ACCESS:    2911447  HIT:    2909667  MISS:       1780
cpu0_DTLB RFO       ACCESS:     214931  HIT:     213919  MISS:       1012
cpu0_DTLB PREFETCH  ACCESS:          0  HIT:          0  MISS:          0
cpu0_DTLB WRITEBACK ACCESS:          0  HIT:          0  MISS:          0
cpu0_ITLB TOTAL     ACCESS:     105155  HIT:     105155  MISS:          0
cpu0_ITLB LOAD      ACCESS:     105155  HIT:     105155  MISS:          0
cpu0_ITLB RFO       ACCESS:          0  HIT:          0  MISS:          0
cpu0_ITLB PREFETCH  ACCESS:          0  HIT:          0  MISS:          0
cpu0_ITLB WRITEBACK ACCESS:          0  HIT:          0  MISS:          0
cpu0_L1I TOTAL     ACCESS:         20  HIT:         11  MISS:          9
cpu0_L1I LOAD      ACCESS:         20  HIT:         11  MISS:          9
cpu0_L1I RFO       ACCESS:          0  HIT:          0  MISS:          0
cpu0_L1I PREFETCH  ACCESS:          0  HIT:          0  MISS:          0
cpu0_L1I WRITEBACK ACCESS:          0  HIT:          0  MISS:          0
cpu0_STLB TOTAL     ACCESS:       2792  HIT:         40  MISS:       2752
cpu0_STLB LOAD      ACCESS:       1780  HIT:         40  MISS:       1740
cpu0_STLB RFO       ACCESS:       1012  HIT:          0  MISS:       1012
cpu0_STLB PREFETCH  ACCESS:          0  HIT:          0  MISS:          0
cpu0_STLB WRITEBACK ACCESS:          0  HIT:          0  MISS:          0
cpu0_L1D TOTAL     ACCESS:    3913358  HIT:    3740297  MISS:     173061
cpu0_L1D LOAD      ACCESS:    3833935  HIT:    3723604  MISS:     110331
cpu0_L1D RFO       ACCESS:      76671  HIT:      13942  MISS:      62729
cpu0_L1D PREFETCH  ACCESS:          0  HIT:          0  MISS:          0
cpu0_L1D WRITEBACK ACCESS:          0  HIT:          0  MISS:          0
cpu0_L2C TOTAL     ACCESS:     235917  HIT:      62847  MISS:     173070
cpu0_L2C LOAD      ACCESS:     110340  HIT:          0  MISS:     110340
cpu0_L2C RFO       ACCESS:      62729  HIT:          0  MISS:      62729
cpu0_L2C PREFETCH  ACCESS:          0  HIT:          0  MISS:          0
cpu0_L2C WRITEBACK ACCESS:      62847  HIT:      62847  MISS:          0
LLC TOTAL     ACCESS:     237436  HIT:      63883  MISS:     173553
LLC LOAD      ACCESS:     110341  HIT:          0  MISS:     110341
LLC RFO       ACCESS:      62729  HIT:          0  MISS:      62729
LLC PREFETCH  ACCESS:          0  HIT:          0  MISS:          0
LLC WRITEBACK ACCESS:      64365  HIT:      63883  MISS:        482
Heartbeat CPU 0 instructions: 70000000 cycles: 40470543 heartbeat IPC: 0.808407 cumulative IPC: 0.886703 (Simulation time: 1 hr 9 min 6 sec) 

Region of Interest Statistics
cpu0_DTLB TOTAL     ACCESS:    3471854  HIT:    3468681  MISS:       3173
cpu0_DTLB LOAD      ACCESS:    3239529  HIT:    3237495  MISS:       2034
cpu0_DTLB RFO       ACCESS:     232325  HIT:     231186  MISS:       1139
cpu0_DTLB PREFETCH  ACCESS:          0  HIT:          0  MISS:          0
cpu0_DTLB WRITEBACK ACCESS:          0  HIT:          0  MISS:          0
cpu0_ITLB TOTAL     ACCESS:     118239  HIT:     118239  MISS:          0
cpu0_ITLB LOAD      ACCESS:     118239  HIT:     118239  MISS:          0
cpu0_ITLB RFO       ACCESS:          0  HIT:          0  MISS:          0
cpu0_ITLB PREFETCH  ACCESS:          0  HIT:          0  MISS:          0
cpu0_ITLB WRITEBACK ACCESS:          0  HIT:          0  MISS:          0
cpu0_L1I TOTAL     ACCESS:         20  HIT:         11  MISS:          9
cpu0_L1I LOAD      ACCESS:         20  HIT:         11  MISS:          9
cpu0_L1I RFO       ACCESS:          0  HIT:          0  MISS:          0
cpu0_L1I PREFETCH  ACCESS:          0  HIT:          0  MISS:          0
cpu0_L1I WRITEBACK ACCESS:          0  HIT:          0  MISS:          0
cpu0_STLB TOTAL     ACCESS:       3173  HIT:         62  MISS:       3111
cpu0_STLB LOAD      ACCESS:       2034  HIT:         62  MISS:       1972
cpu0_STLB RFO       ACCESS:       1139  HIT:          0  MISS:       1139
cpu0_STLB PREFETCH  ACCESS:          0  HIT:          0  MISS:          0
cpu0_STLB WRITEBACK ACCESS:          0  HIT:          0  MISS:          0
cpu0_L1D TOTAL     ACCESS:    4335416  HIT:    4138739  MISS:     196677
cpu0_L1D LOAD      ACCESS:    4247762  HIT:    4121687  MISS:     126075
cpu0_L1D RFO       ACCESS:      84543  HIT:      13942  MISS:      70601
cpu0_L1D PREFETCH  ACCESS:          0  HIT:          0  MISS:          0
cpu0_L1D WRITEBACK ACCESS:          0  HIT:          0  MISS:          0
cpu0_L2C TOTAL     ACCESS:     267405  HIT:      70719  MISS:     196686
cpu0_L2C LOAD      ACCESS:     126084  HIT:          0  MISS:     126084
cpu0_L2C RFO       ACCESS:      70601  HIT:          0  MISS:      70601
cpu0_L2C PREFETCH  ACCESS:          0  HIT:          0  MISS:          0
cpu0_L2C WRITEBACK ACCESS:      70719  HIT:      70719  MISS:          0
LLC TOTAL     ACCESS:     268714  HIT:      71466  MISS:     197248
LLC LOAD      ACCESS:     126084  HIT:          0  MISS:     126084
LLC RFO       ACCESS:      70601  HIT:          0  MISS:      70601
LLC PREFETCH  ACCESS:          0  HIT:          0  MISS:          0
LLC WRITEBACK ACCESS:      72028  HIT:      71466  MISS:        562
Heartbeat CPU 0 instructions: 72000002 cycles: 42915330 heartbeat IPC: 0.818068 cumulative IPC: 0.879991 (Simulation time: 1 hr 13 min 3 sec) 

Region of Interest Statistics
cpu0_DTLB TOTAL     ACCESS:    3816706  HIT:    3813152  MISS:       3554
cpu0_DTLB LOAD      ACCESS:    3566868  HIT:    3564580  MISS:       2288
cpu0_DTLB RFO       ACCESS:     249838  HIT:     248572  MISS:       1266
cpu0_DTLB PREFETCH  ACCESS:          0  HIT:          0  MISS:          0
cpu0_DTLB WRITEBACK ACCESS:          0  HIT:          0  MISS:          0
cpu0_ITLB TOTAL     ACCESS:     131284  HIT:     131284  MISS:          0
cpu0_ITLB LOAD      ACCESS:     131284  HIT:     131284  MISS:          0
cpu0_ITLB RFO       ACCESS:          0  HIT:          0  MISS:          0
cpu0_ITLB PREFETCH  ACCESS:          0  HIT:          0  MISS:          0
cpu0_ITLB WRITEBACK ACCESS:          0  HIT:          0  MISS:          0
cpu0_L1I TOTAL     ACCESS:         20  HIT:         11  MISS:          9
cpu0_L1I LOAD      ACCESS:         20  HIT:         11  MISS:          9
cpu0_L1I RFO       ACCESS:          0  HIT:          0  MISS:          0
cpu0_L1I PREFETCH  ACCESS:          0  HIT:          0  MISS:          0
cpu0_L1I WRITEBACK ACCESS:          0  HIT:          0  MISS:          0
cpu0_STLB TOTAL     ACCESS:       3554  HIT:         84  MISS:       3470
cpu0_STLB LOAD      ACCESS:       2288  HIT:         84  MISS:       2204
cpu0_STLB RFO       ACCESS:       1266  HIT:          0  MISS:       1266
cpu0_STLB PREFETCH  ACCESS:          0  HIT:          0  MISS:          0
cpu0_STLB WRITEBACK ACCESS:          0  HIT:          0  MISS:          0
cpu0_L1D TOTAL     ACCESS:    4756854  HIT:    4536566  MISS:     220288
cpu0_L1D LOAD      ACCESS:    4660971  HIT:    4519155  MISS:     141816
cpu0_L1D RFO       ACCESS:      92413  HIT:      13942  MISS:      78471
cpu0_L1D PREFETCH  ACCESS:          0  HIT:          0  MISS:          0
cpu0_L1D WRITEBACK ACCESS:          0  HIT:          0  MISS:          0
cpu0_L2C TOTAL     ACCESS:     298886  HIT:      78589  MISS:     220297
cpu0_L2C LOAD      ACCESS:     141825  HIT:          0  MISS:     141825
cpu0_L2C RFO       ACCESS:      78471  HIT:          0  MISS:      78471
cpu0_L2C PREFETCH  ACCESS:          0  HIT:          0  MISS:          0
cpu0_L2C WRITEBACK ACCESS:      78589  HIT:      78589  MISS:          0
LLC TOTAL     ACCESS:     300351  HIT:      79492  MISS:     220859
LLC LOAD      ACCESS:     141825  HIT:          0  MISS:     141825
LLC RFO       ACCESS:      78471  HIT:          0  MISS:      78471
LLC PREFETCH  ACCESS:          0  HIT:          0  MISS:          0
LLC WRITEBACK ACCESS:      80054  HIT:      79492  MISS:        562
Heartbeat CPU 0 instructions: 74000001 cycles: 45481604 heartbeat IPC: 0.77934 cumulative IPC: 0.870621 (Simulation time: 1 hr 16 min 29 sec) 

Region of Interest Statistics
cpu0_DTLB TOTAL     ACCESS:    4161113  HIT:    4157175  MISS:       3938
cpu0_DTLB LOAD      ACCESS:    3894056  HIT:    3891512  MISS:       2544
cpu0_DTLB RFO       ACCESS:     267057  HIT:     265663  MISS:       1394
cpu0_DTLB PREFETCH  ACCESS:          0  HIT:          0  MISS:          0
cpu0_DTLB WRITEBACK ACCESS:          0  HIT:          0  MISS:          0
cpu0_ITLB TOTAL     ACCESS:     144204  HIT:     144204  MISS:          0
cpu0_ITLB LOAD      ACCESS:     144204  HIT:     144204  MISS:          0
cpu0_ITLB RFO       ACCESS:          0  HIT:          0  MISS:          0
cpu0_ITLB PREFETCH  ACCESS:          0  HIT:          0  MISS:          0
cpu0_ITLB WRITEBACK ACCESS:          0  HIT:          0  MISS:          0
cpu0_L1I TOTAL     ACCESS:         29  HIT:         16  MISS:         13
cpu0_L1I LOAD      ACCESS:         29  HIT:         16  MISS:         13
cpu0_L1I RFO       ACCESS:          0  HIT:          0  MISS:          0
cpu0_L1I PREFETCH  ACCESS:          0  HIT:          0  MISS:          0
cpu0_L1I WRITEBACK ACCESS:          0  HIT:          0  MISS:          0
cpu0_STLB TOTAL     ACCESS:       3938  HIT:         92  MISS:       3846
cpu0_STLB LOAD      ACCESS:       2544  HIT:         92  MISS:       2452
cpu0_STLB RFO       ACCESS:       1394  HIT:          0  MISS:       1394
cpu0_STLB PREFETCH  ACCESS:          0  HIT:          0  MISS:          0
cpu0_STLB WRITEBACK ACCESS:          0  HIT:          0  MISS:          0
cpu0_L1D TOTAL     ACCESS:    5178989  HIT:    4935089  MISS:     243900
cpu0_L1D LOAD      ACCESS:    5074860  HIT:    4917302  MISS:     157558
cpu0_L1D RFO       ACCESS:     100283  HIT:      13942  MISS:      86341
cpu0_L1D PREFETCH  ACCESS:          0  HIT:          0  MISS:          0
cpu0_L1D WRITEBACK ACCESS:          0  HIT:          0  MISS:          0
cpu0_L2C TOTAL     ACCESS:     330373  HIT:      86460  MISS:     243913
cpu0_L2C LOAD      ACCESS:     157571  HIT:          0  MISS:     157571
cpu0_L2C RFO       ACCESS:      86341  HIT:          0  MISS:      86341
cpu0_L2C PREFETCH  ACCESS:          0  HIT:          0  MISS:          0
cpu0_L2C WRITEBACK ACCESS:      86460  HIT:      86460  MISS:          0
LLC TOTAL     ACCESS:     331530  HIT:      87055  MISS:     244475
LLC LOAD      ACCESS:     157571  HIT:          0  MISS:     157571
LLC RFO       ACCESS:      86341  HIT:          0  MISS:      86341
LLC PREFETCH  ACCESS:          0  HIT:          0  MISS:          0
LLC WRITEBACK ACCESS:      87617  HIT:      87055  MISS:        562
Heartbeat CPU 0 instructions: 76000001 cycles: 48192655 heartbeat IPC: 0.737721 cumulative IPC: 0.858721 (Simulation time: 1 hr 20 min 5 sec) 

Region of Interest Statistics
cpu0_DTLB TOTAL     ACCESS:    4502601  HIT:    4498282  MISS:       4319
cpu0_DTLB LOAD      ACCESS:    4219806  HIT:    4217008  MISS:       2798
cpu0_DTLB RFO       ACCESS:     282795  HIT:     281274  MISS:       1521
cpu0_DTLB PREFETCH  ACCESS:          0  HIT:          0  MISS:          0
cpu0_DTLB WRITEBACK ACCESS:          0  HIT:          0  MISS:          0
cpu0_ITLB TOTAL     ACCESS:     156552  HIT:     156552  MISS:          0
cpu0_ITLB LOAD      ACCESS:     156552  HIT:     156552  MISS:          0
cpu0_ITLB RFO       ACCESS:          0  HIT:          0  MISS:          0
cpu0_ITLB PREFETCH  ACCESS:          0  HIT:          0  MISS:          0
cpu0_ITLB WRITEBACK ACCESS:          0  HIT:          0  MISS:          0
cpu0_L1I TOTAL     ACCESS:         29  HIT:         16  MISS:         13
cpu0_L1I LOAD      ACCESS:         29  HIT:         16  MISS:         13
cpu0_L1I RFO       ACCESS:          0  HIT:          0  MISS:          0
cpu0_L1I PREFETCH  ACCESS:          0  HIT:          0  MISS:          0
cpu0_L1I WRITEBACK ACCESS:          0  HIT:          0  MISS:          0
cpu0_STLB TOTAL     ACCESS:       4319  HIT:        103  MISS:       4216
cpu0_STLB LOAD      ACCESS:       2798  HIT:        103  MISS:       2695
cpu0_STLB RFO       ACCESS:       1521  HIT:          0  MISS:       1521
cpu0_STLB PREFETCH  ACCESS:          0  HIT:          0  MISS:          0
cpu0_STLB WRITEBACK ACCESS:          0  HIT:          0  MISS:          0
cpu0_L1D TOTAL     ACCESS:    5601825  HIT:    5334310  MISS:     267515
cpu0_L1D LOAD      ACCESS:    5489454  HIT:    5316153  MISS:     173301
cpu0_L1D RFO       ACCESS:     108155  HIT:      13942  MISS:      94213
cpu0_L1D PREFETCH  ACCESS:          0  HIT:          0  MISS:          0
cpu0_L1D WRITEBACK ACCESS:          0  HIT:          0  MISS:          0
cpu0_L2C TOTAL     ACCESS:     361859  HIT:      94331  MISS:     267528
cpu0_L2C LOAD      ACCESS:     173314  HIT:          0  MISS:     173314
cpu0_L2C RFO       ACCESS:      94213  HIT:          0  MISS:      94213
cpu0_L2C PREFETCH  ACCESS:          0  HIT:          0  MISS:          0
cpu0_L2C WRITEBACK ACCESS:      94331  HIT:      94331  MISS:          0
LLC TOTAL     ACCESS:     363265  HIT:      95175  MISS:     268090
LLC LOAD      ACCESS:     173314  HIT:          0  MISS:     173314
LLC RFO       ACCESS:      94213  HIT:          0  MISS:      94213
LLC PREFETCH  ACCESS:          0  HIT:          0  MISS:          0
LLC WRITEBACK ACCESS:      95737  HIT:      95175  MISS:        562
Heartbeat CPU 0 instructions: 78000003 cycles: 50978673 heartbeat IPC: 0.717871 cumulative IPC: 0.846853 (Simulation time: 1 hr 23 min 49 sec) 

Region of Interest Statistics
cpu0_DTLB TOTAL     ACCESS:    4843979  HIT:    4839279  MISS:       4700
cpu0_DTLB LOAD      ACCESS:    4545515  HIT:    4542463  MISS:       3052
cpu0_DTLB RFO       ACCESS:     298464  HIT:     296816  MISS:       1648
cpu0_DTLB PREFETCH  ACCESS:          0  HIT:          0  MISS:          0
cpu0_DTLB WRITEBACK ACCESS:          0  HIT:          0  MISS:          0
cpu0_ITLB TOTAL     ACCESS:     168870  HIT:     168870  MISS:          0
cpu0_ITLB LOAD      ACCESS:     168870  HIT:     168870  MISS:          0
cpu0_ITLB RFO       ACCESS:          0  HIT:          0  MISS:          0
cpu0_ITLB PREFETCH  ACCESS:          0  HIT:          0  MISS:          0
cpu0_ITLB WRITEBACK ACCESS:          0  HIT:          0  MISS:          0
cpu0_L1I TOTAL     ACCESS:         29  HIT:         16  MISS:         13
cpu0_L1I LOAD      ACCESS:         29  HIT:         16  MISS:         13
cpu0_L1I RFO       ACCESS:          0  HIT:          0  MISS:          0
cpu0_L1I PREFETCH  ACCESS:          0  HIT:          0  MISS:          0
cpu0_L1I WRITEBACK ACCESS:          0  HIT:          0  MISS:          0
cpu0_STLB TOTAL     ACCESS:       4700  HIT:        114  MISS:       4586
cpu0_STLB LOAD      ACCESS:       3052  HIT:        114  MISS:       2938
cpu0_STLB RFO       ACCESS:       1648  HIT:          0  MISS:       1648
cpu0_STLB PREFETCH  ACCESS:          0  HIT:          0  MISS:          0
cpu0_STLB WRITEBACK ACCESS:          0  HIT:          0  MISS:          0
cpu0_L1D TOTAL     ACCESS:    6024588  HIT:    5733461  MISS:     291127
cpu0_L1D LOAD      ACCESS:    5903976  HIT:    5714934  MISS:     189042
cpu0_L1D RFO       ACCESS:     116026  HIT:      13942  MISS:     102084
cpu0_L1D PREFETCH  ACCESS:          0  HIT:          0  MISS:          0
cpu0_L1D WRITEBACK ACCESS:          0  HIT:          0  MISS:          0
cpu0_L2C TOTAL     ACCESS:     393342  HIT:     102202  MISS:     291140
cpu0_L2C LOAD      ACCESS:     189055  HIT:          0  MISS:     189055
cpu0_L2C RFO       ACCESS:     102084  HIT:          0  MISS:     102084
cpu0_L2C PREFETCH  ACCESS:          0  HIT:          0  MISS:          0
cpu0_L2C WRITEBACK ACCESS:     102202  HIT:     102202  MISS:          0
LLC TOTAL     ACCESS:     394906  HIT:     103204  MISS:     291702
LLC LOAD      ACCESS:     189055  HIT:          0  MISS:     189055
LLC RFO       ACCESS:     102084  HIT:          0  MISS:     102084
LLC PREFETCH  ACCESS:          0  HIT:          0  MISS:          0
LLC WRITEBACK ACCESS:     103766  HIT:     103204  MISS:        562
Heartbeat CPU 0 instructions: 80000000 cycles: 53801164 heartbeat IPC: 0.708593 cumulative IPC: 0.835979 (Simulation time: 1 hr 27 min 36 sec) 

Region of Interest Statistics
cpu0_DTLB TOTAL     ACCESS:    5185251  HIT:    5180172  MISS:       5079
cpu0_DTLB LOAD      ACCESS:    4871254  HIT:    4867949  MISS:       3305
cpu0_DTLB RFO       ACCESS:     313997  HIT:     312223  MISS:       1774
cpu0_DTLB PREFETCH  ACCESS:          0  HIT:          0  MISS:          0
cpu0_DTLB WRITEBACK ACCESS:          0  HIT:          0  MISS:          0
cpu0_ITLB TOTAL     ACCESS:     181041  HIT:     181041  MISS:          0
cpu0_ITLB LOAD      ACCESS:     181041  HIT:     181041  MISS:          0
cpu0_ITLB RFO       ACCESS:          0  HIT:          0  MISS:          0
cpu0_ITLB PREFETCH  ACCESS:          0  HIT:          0  MISS:          0
cpu0_ITLB WRITEBACK ACCESS:          0  HIT:          0  MISS:          0
cpu0_L1I TOTAL     ACCESS:         29  HIT:         16  MISS:         13
cpu0_L1I LOAD      ACCESS:         29  HIT:         16  MISS:         13
cpu0_L1I RFO       ACCESS:          0  HIT:          0  MISS:          0
cpu0_L1I PREFETCH  ACCESS:          0  HIT:          0  MISS:          0
cpu0_L1I WRITEBACK ACCESS:          0  HIT:          0  MISS:          0
cpu0_STLB TOTAL     ACCESS:       5079  HIT:        125  MISS:       4954
cpu0_STLB LOAD      ACCESS:       3305  HIT:        125  MISS:       3180
cpu0_STLB RFO       ACCESS:       1774  HIT:          0  MISS:       1774
cpu0_STLB PREFETCH  ACCESS:          0  HIT:          0  MISS:          0
cpu0_STLB WRITEBACK ACCESS:          0  HIT:          0  MISS:          0
cpu0_L1D TOTAL     ACCESS:    6447154  HIT:    6132413  MISS:     314741
cpu0_L1D LOAD      ACCESS:    6318303  HIT:    6113518  MISS:     204785
cpu0_L1D RFO       ACCESS:     123897  HIT:      13942  MISS:     109955
cpu0_L1D PREFETCH  ACCESS:          0  HIT:          0  MISS:          0
cpu0_L1D WRITEBACK ACCESS:          0  HIT:          0  MISS:          0
cpu0_L2C TOTAL     ACCESS:     424828  HIT:     110074  MISS:     314754
cpu0_L2C LOAD      ACCESS:     204798  HIT:          0  MISS:     204798
cpu0_L2C RFO       ACCESS:     109955  HIT:          0  MISS:     109955
cpu0_L2C PREFETCH  ACCESS:          0  HIT:          0  MISS:          0
cpu0_L2C WRITEBACK ACCESS:     110074  HIT:     110074  MISS:          0
LLC TOTAL     ACCESS:     426453  HIT:     111137  MISS:     315316
LLC LOAD      ACCESS:     204798  HIT:          0  MISS:     204798
LLC RFO       ACCESS:     109955  HIT:          0  MISS:     109955
LLC PREFETCH  ACCESS:          0  HIT:          0  MISS:          0
LLC WRITEBACK ACCESS:     111699  HIT:     111137  MISS:        562
Heartbeat CPU 0 instructions: 82000003 cycles: 56550671 heartbeat IPC: 0.727404 cumulative IPC: 0.828252 (Simulation time: 1 hr 31 min 9 sec) 

Region of Interest Statistics
cpu0_DTLB TOTAL     ACCESS:    5526778  HIT:    5521318  MISS:       5460
cpu0_DTLB LOAD      ACCESS:    5197081  HIT:    5193522  MISS:       3559
cpu0_DTLB RFO       ACCESS:     329697  HIT:     327796  MISS:       1901
cpu0_DTLB PREFETCH  ACCESS:          0  HIT:          0  MISS:          0
cpu0_DTLB WRITEBACK ACCESS:          0  HIT:          0  MISS:          0
cpu0_ITLB TOTAL     ACCESS:     193392  HIT:     193392  MISS:          0
cpu0_ITLB LOAD      ACCESS:     193392  HIT:     193392  MISS:          0
cpu0_ITLB RFO       ACCESS:          0  HIT:          0  MISS:          0
cpu0_ITLB PREFETCH  ACCESS:          0  HIT:          0  MISS:          0
cpu0_ITLB WRITEBACK ACCESS:          0  HIT:          0  MISS:          0
cpu0_L1I TOTAL     ACCESS:         29  HIT:         16  MISS:         13
cpu0_L1I LOAD      ACCESS:         29  HIT:         16  MISS:         13
cpu0_L1I RFO       ACCESS:          0  HIT:          0  MISS:          0
cpu0_L1I PREFETCH  ACCESS:          0  HIT:          0  MISS:          0
cpu0_L1I WRITEBACK ACCESS:          0  HIT:          0  MISS:          0
cpu0_STLB TOTAL     ACCESS:       5460  HIT:        136  MISS:       5324
cpu0_STLB LOAD      ACCESS:       3559  HIT:        136  MISS:       3423
cpu0_STLB RFO       ACCESS:       1901  HIT:          0  MISS:       1901
cpu0_STLB PREFETCH  ACCESS:          0  HIT:          0  MISS:          0
cpu0_STLB WRITEBACK ACCESS:          0  HIT:          0  MISS:          0
cpu0_L1D TOTAL     ACCESS:    6869953  HIT:    6531600  MISS:     338353
cpu0_L1D LOAD      ACCESS:    6732861  HIT:    6512335  MISS:     220526
cpu0_L1D RFO       ACCESS:     131768  HIT:      13942  MISS:     117826
cpu0_L1D PREFETCH  ACCESS:          0  HIT:          0  MISS:          0
cpu0_L1D WRITEBACK ACCESS:          0  HIT:          0  MISS:          0
cpu0_L2C TOTAL     ACCESS:     456310  HIT:     117944  MISS:     338366
cpu0_L2C LOAD      ACCESS:     220539  HIT:          0  MISS:     220539
cpu0_L2C RFO       ACCESS:     117826  HIT:          0  MISS:     117826
cpu0_L2C PREFETCH  ACCESS:          0  HIT:          0  MISS:          0
cpu0_L2C WRITEBACK ACCESS:     117944  HIT:     117944  MISS:          0
LLC TOTAL     ACCESS:     457738  HIT:     118799  MISS:     338939
LLC LOAD      ACCESS:     220539  HIT:          0  MISS:     220539
LLC RFO       ACCESS:     117826  HIT:          0  MISS:     117826
LLC PREFETCH  ACCESS:          0  HIT:          0  MISS:          0
LLC WRITEBACK ACCESS:     119372  HIT:     118799  MISS:        573
Heartbeat CPU 0 instructions: 84000001 cycles: 59761355 heartbeat IPC: 0.62292 cumulative IPC: 0.812498 (Simulation time: 1 hr 35 min 27 sec) 

Region of Interest Statistics
cpu0_DTLB TOTAL     ACCESS:    5954106  HIT:    5948335  MISS:       5771
cpu0_DTLB LOAD      ACCESS:    5586089  HIT:    5582288  MISS:       3801
cpu0_DTLB RFO       ACCESS:     368017  HIT:     366047  MISS:       1970
cpu0_DTLB PREFETCH  ACCESS:          0  HIT:          0  MISS:          0
cpu0_DTLB WRITEBACK ACCESS:          0  HIT:          0  MISS:          0
cpu0_ITLB TOTAL     ACCESS:     198290  HIT:     198290  MISS:          0
cpu0_ITLB LOAD      ACCESS:     198290  HIT:     198290  MISS:          0
cpu0_ITLB RFO       ACCESS:          0  HIT:          0  MISS:          0
cpu0_ITLB PREFETCH  ACCESS:          0  HIT:          0  MISS:          0
cpu0_ITLB WRITEBACK ACCESS:          0  HIT:          0  MISS:          0
cpu0_L1I TOTAL     ACCESS:         49  HIT:         23  MISS:         26
cpu0_L1I LOAD      ACCESS:         49  HIT:         23  MISS:         26
cpu0_L1I RFO       ACCESS:          0  HIT:          0  MISS:          0
cpu0_L1I PREFETCH  ACCESS:          0  HIT:          0  MISS:          0
cpu0_L1I WRITEBACK ACCESS:          0  HIT:          0  MISS:          0
cpu0_STLB TOTAL     ACCESS:       5771  HIT:        136  MISS:       5635
cpu0_STLB LOAD      ACCESS:       3801  HIT:        136  MISS:       3665
cpu0_STLB RFO       ACCESS:       1970  HIT:          0  MISS:       1970
cpu0_STLB PREFETCH  ACCESS:          0  HIT:          0  MISS:          0
cpu0_STLB WRITEBACK ACCESS:          0  HIT:          0  MISS:          0
cpu0_L1D TOTAL     ACCESS:    7540442  HIT:    7183139  MISS:     357303
cpu0_L1D LOAD      ACCESS:    7374973  HIT:    7139716  MISS:     235257
cpu0_L1D RFO       ACCESS:     159859  HIT:      37816  MISS:     122043
cpu0_L1D PREFETCH  ACCESS:          0  HIT:          0  MISS:          0
cpu0_L1D WRITEBACK ACCESS:          0  HIT:          0  MISS:          0
cpu0_L2C TOTAL     ACCESS:     479527  HIT:     122198  MISS:     357329
cpu0_L2C LOAD      ACCESS:     235283  HIT:          0  MISS:     235283
cpu0_L2C RFO       ACCESS:     122043  HIT:          0  MISS:     122043
cpu0_L2C PREFETCH  ACCESS:          0  HIT:          0  MISS:          0
cpu0_L2C WRITEBACK ACCESS:     122198  HIT:     122198  MISS:          0
LLC TOTAL     ACCESS:     482206  HIT:     125224  MISS:     356982
LLC LOAD      ACCESS:     235283  HIT:        981  MISS:     234302
LLC RFO       ACCESS:     122043  HIT:          0  MISS:     122043
LLC PREFETCH  ACCESS:          0  HIT:          0  MISS:          0
LLC WRITEBACK ACCESS:     124877  HIT:     124243  MISS:        634
Heartbeat CPU 0 instructions: 86000000 cycles: 63058365 heartbeat IPC: 0.60661 cumulative IPC: 0.797461 (Simulation time: 1 hr 39 min 51 sec) 

Region of Interest Statistics
cpu0_DTLB TOTAL     ACCESS:    6395023  HIT:    6388961  MISS:       6062
cpu0_DTLB LOAD      ACCESS:    5985130  HIT:    5981096  MISS:       4034
cpu0_DTLB RFO       ACCESS:     409893  HIT:     407865  MISS:       2028
cpu0_DTLB PREFETCH  ACCESS:          0  HIT:          0  MISS:          0
cpu0_DTLB WRITEBACK ACCESS:          0  HIT:          0  MISS:          0
cpu0_ITLB TOTAL     ACCESS:     202057  HIT:     202057  MISS:          0
cpu0_ITLB LOAD      ACCESS:     202057  HIT:     202057  MISS:          0
cpu0_ITLB RFO       ACCESS:          0  HIT:          0  MISS:          0
cpu0_ITLB PREFETCH  ACCESS:          0  HIT:          0  MISS:          0
cpu0_ITLB WRITEBACK ACCESS:          0  HIT:          0  MISS:          0
cpu0_L1I TOTAL     ACCESS:         51  HIT:         24  MISS:         27
cpu0_L1I LOAD      ACCESS:         51  HIT:         24  MISS:         27
cpu0_L1I RFO       ACCESS:          0  HIT:          0  MISS:          0
cpu0_L1I PREFETCH  ACCESS:          0  HIT:          0  MISS:          0
cpu0_L1I WRITEBACK ACCESS:          0  HIT:          0  MISS:          0
cpu0_STLB TOTAL     ACCESS:       6062  HIT:        136  MISS:       5926
cpu0_STLB LOAD      ACCESS:       4034  HIT:        136  MISS:       3898
cpu0_STLB RFO       ACCESS:       2028  HIT:          0  MISS:       2028
cpu0_STLB PREFETCH  ACCESS:          0  HIT:          0  MISS:          0
cpu0_STLB WRITEBACK ACCESS:          0  HIT:          0  MISS:          0
cpu0_L1D TOTAL     ACCESS:    8249573  HIT:    7874070  MISS:     375503
cpu0_L1D LOAD      ACCESS:    8052547  HIT:    7802730  MISS:     249817
cpu0_L1D RFO       ACCESS:     191152  HIT:      65469  MISS:     125683
cpu0_L1D PREFETCH  ACCESS:          0  HIT:          0  MISS:          0
cpu0_L1D WRITEBACK ACCESS:          0  HIT:          0  MISS:          0
cpu0_L2C TOTAL     ACCESS:     501306  HIT:     125776  MISS:     375530
cpu0_L2C LOAD      ACCESS:     249844  HIT:          0  MISS:     249844
cpu0_L2C RFO       ACCESS:     125683  HIT:          0  MISS:     125683
cpu0_L2C PREFETCH  ACCESS:          0  HIT:          0  MISS:          0
cpu0_L2C WRITEBACK ACCESS:     125776  HIT:     125776  MISS:          0
LLC TOTAL     ACCESS:     503665  HIT:     129386  MISS:     374279
LLC LOAD      ACCESS:     249844  HIT:       1885  MISS:     247959
LLC RFO       ACCESS:     125683  HIT:          0  MISS:     125683
LLC PREFETCH  ACCESS:          0  HIT:          0  MISS:          0
LLC WRITEBACK ACCESS:     128135  HIT:     127501  MISS:        634
Heartbeat CPU 0 instructions: 88000002 cycles: 66400964 heartbeat IPC: 0.598337 cumulative IPC: 0.783733 (Simulation time: 1 hr 44 min 16 sec) 

Region of Interest Statistics
cpu0_DTLB TOTAL     ACCESS:    6835927  HIT:    6829573  MISS:       6354
cpu0_DTLB LOAD      ACCESS:    6384156  HIT:    6379888  MISS:       4268
cpu0_DTLB RFO       ACCESS:     451771  HIT:     449685  MISS:       2086
cpu0_DTLB PREFETCH  ACCESS:          0  HIT:          0  MISS:          0
cpu0_DTLB WRITEBACK ACCESS:          0  HIT:          0  MISS:          0
cpu0_ITLB TOTAL     ACCESS:     205808  HIT:     205808  MISS:          0
cpu0_ITLB LOAD      ACCESS:     205808  HIT:     205808  MISS:          0
cpu0_ITLB RFO       ACCESS:          0  HIT:          0  MISS:          0
cpu0_ITLB PREFETCH  ACCESS:          0  HIT:          0  MISS:          0
cpu0_ITLB WRITEBACK ACCESS:          0  HIT:          0  MISS:          0
cpu0_L1I TOTAL     ACCESS:         51  HIT:         24  MISS:         27
cpu0_L1I LOAD      ACCESS:         51  HIT:         24  MISS:         27
cpu0_L1I RFO       ACCESS:          0  HIT:          0  MISS:          0
cpu0_L1I PREFETCH  ACCESS:          0  HIT:          0  MISS:          0
cpu0_L1I WRITEBACK ACCESS:          0  HIT:          0  MISS:          0
cpu0_STLB TOTAL     ACCESS:       6354  HIT:        136  MISS:       6218
cpu0_STLB LOAD      ACCESS:       4268  HIT:        136  MISS:       4132
cpu0_STLB RFO       ACCESS:       2086  HIT:          0  MISS:       2086
cpu0_STLB PREFETCH  ACCESS:          0  HIT:          0  MISS:          0
cpu0_STLB WRITEBACK ACCESS:          0  HIT:          0  MISS:          0
cpu0_L1D TOTAL     ACCESS:    8957734  HIT:    8564041  MISS:     393693
cpu0_L1D LOAD      ACCESS:    8729151  HIT:    8464782  MISS:     264369
cpu0_L1D RFO       ACCESS:     222447  HIT:      93126  MISS:     129321
cpu0_L1D PREFETCH  ACCESS:          0  HIT:          0  MISS:          0
cpu0_L1D WRITEBACK ACCESS:          0  HIT:          0  MISS:          0
cpu0_L2C TOTAL     ACCESS:     523084  HIT:     129364  MISS:     393720
cpu0_L2C LOAD      ACCESS:     264396  HIT:          0  MISS:     264396
cpu0_L2C RFO       ACCESS:     129321  HIT:          0  MISS:     129321
cpu0_L2C PREFETCH  ACCESS:          0  HIT:          0  MISS:          0
cpu0_L2C WRITEBACK ACCESS:     129364  HIT:     129364  MISS:          0
LLC TOTAL     ACCESS:     525493  HIT:     133461  MISS:     392032
LLC LOAD      ACCESS:     264396  HIT:       2322  MISS:     262074
LLC RFO       ACCESS:     129321  HIT:          0  MISS:     129321
LLC PREFETCH  ACCESS:          0  HIT:          0  MISS:          0
LLC WRITEBACK ACCESS:     131773  HIT:     131139  MISS:        634
Heartbeat CPU 0 instructions: 90000001 cycles: 69753414 heartbeat IPC: 0.596578 cumulative IPC: 0.77163 (Simulation time: 1 hr 48 min 38 sec) 

Region of Interest Statistics
cpu0_DTLB TOTAL     ACCESS:    7276885  HIT:    7270234  MISS:       6651
cpu0_DTLB LOAD      ACCESS:    6783237  HIT:    6778732  MISS:       4505
cpu0_DTLB RFO       ACCESS:     493648  HIT:     491502  MISS:       2146
cpu0_DTLB PREFETCH  ACCESS:          0  HIT:          0  MISS:          0
cpu0_DTLB WRITEBACK ACCESS:          0  HIT:          0  MISS:          0
cpu0_ITLB TOTAL     ACCESS:     209566  HIT:     209566  MISS:          0
cpu0_ITLB LOAD      ACCESS:     209566  HIT:     209566  MISS:          0
cpu0_ITLB RFO       ACCESS:          0  HIT:          0  MISS:          0
cpu0_ITLB PREFETCH  ACCESS:          0  HIT:          0  MISS:          0
cpu0_ITLB WRITEBACK ACCESS:          0  HIT:          0  MISS:          0
cpu0_L1I TOTAL     ACCESS:         51  HIT:         24  MISS:         27
cpu0_L1I LOAD      ACCESS:         51  HIT:         24  MISS:         27
cpu0_L1I RFO       ACCESS:          0  HIT:          0  MISS:          0
cpu0_L1I PREFETCH  ACCESS:          0  HIT:          0  MISS:          0
cpu0_L1I WRITEBACK ACCESS:          0  HIT:          0  MISS:          0
cpu0_STLB TOTAL     ACCESS:       6651  HIT:        136  MISS:       6515
cpu0_STLB LOAD      ACCESS:       4505  HIT:        136  MISS:       4369
cpu0_STLB RFO       ACCESS:       2146  HIT:          0  MISS:       2146
cpu0_STLB PREFETCH  ACCESS:          0  HIT:          0  MISS:          0
cpu0_STLB WRITEBACK ACCESS:          0  HIT:          0  MISS:          0
cpu0_L1D TOTAL     ACCESS:    9665688  HIT:    9253795  MISS:     411893
cpu0_L1D LOAD      ACCESS:    9405530  HIT:    9126601  MISS:     278929
cpu0_L1D RFO       ACCESS:     253753  HIT:     120792  MISS:     132961
cpu0_L1D PREFETCH  ACCESS:          0  HIT:          0  MISS:          0
cpu0_L1D WRITEBACK ACCESS:          0  HIT:          0  MISS:          0
cpu0_L2C TOTAL     ACCESS:     544863  HIT:     132943  MISS:     411920
cpu0_L2C LOAD      ACCESS:     278956  HIT:          0  MISS:     278956
cpu0_L2C RFO       ACCESS:     132961  HIT:          0  MISS:     132961
cpu0_L2C PREFETCH  ACCESS:          0  HIT:          0  MISS:          0
cpu0_L2C WRITEBACK ACCESS:     132943  HIT:     132943  MISS:          0
LLC TOTAL     ACCESS:     547211  HIT:     137289  MISS:     409922
LLC LOAD      ACCESS:     278956  HIT:       2632  MISS:     276324
LLC RFO       ACCESS:     132961  HIT:          0  MISS:     132961
LLC PREFETCH  ACCESS:          0  HIT:          0  MISS:          0
LLC WRITEBACK ACCESS:     135291  HIT:     134657  MISS:        634
Heartbeat CPU 0 instructions: 92000001 cycles: 73182568 heartbeat IPC: 0.583234 cumulative IPC: 0.75994 (Simulation time: 1 hr 53 min 7 sec) 

Region of Interest Statistics
cpu0_DTLB TOTAL     ACCESS:    7717814  HIT:    7710870  MISS:       6944
cpu0_DTLB LOAD      ACCESS:    7182289  HIT:    7177549  MISS:       4740
cpu0_DTLB RFO       ACCESS:     535525  HIT:     533321  MISS:       2204
cpu0_DTLB PREFETCH  ACCESS:          0  HIT:          0  MISS:          0
cpu0_DTLB WRITEBACK ACCESS:          0  HIT:          0  MISS:          0
cpu0_ITLB TOTAL     ACCESS:     213315  HIT:     213315  MISS:          0
cpu0_ITLB LOAD      ACCESS:     213315  HIT:     213315  MISS:          0
cpu0_ITLB RFO       ACCESS:          0  HIT:          0  MISS:          0
cpu0_ITLB PREFETCH  ACCESS:          0  HIT:          0  MISS:          0
cpu0_ITLB WRITEBACK ACCESS:          0  HIT:          0  MISS:          0
cpu0_L1I TOTAL     ACCESS:         51  HIT:         24  MISS:         27
cpu0_L1I LOAD      ACCESS:         51  HIT:         24  MISS:         27
cpu0_L1I RFO       ACCESS:          0  HIT:          0  MISS:          0
cpu0_L1I PREFETCH  ACCESS:          0  HIT:          0  MISS:          0
cpu0_L1I WRITEBACK ACCESS:          0  HIT:          0  MISS:          0
cpu0_STLB TOTAL     ACCESS:       6944  HIT:        136  MISS:       6808
cpu0_STLB LOAD      ACCESS:       4740  HIT:        136  MISS:       4604
cpu0_STLB RFO       ACCESS:       2204  HIT:          0  MISS:       2204
cpu0_STLB PREFETCH  ACCESS:          0  HIT:          0  MISS:          0
cpu0_STLB WRITEBACK ACCESS:          0  HIT:          0  MISS:          0
cpu0_L1D TOTAL     ACCESS:   10373128  HIT:    9943044  MISS:     430084
cpu0_L1D LOAD      ACCESS:   10081418  HIT:    9787937  MISS:     293481
cpu0_L1D RFO       ACCESS:     285042  HIT:     148442  MISS:     136600
cpu0_L1D PREFETCH  ACCESS:          0  HIT:          0  MISS:          0
cpu0_L1D WRITEBACK ACCESS:          0  HIT:          0  MISS:          0
cpu0_L2C TOTAL     ACCESS:     566634  HIT:     136523  MISS:     430111
cpu0_L2C LOAD      ACCESS:     293508  HIT:          0  MISS:     293508
cpu0_L2C RFO       ACCESS:     136600  HIT:          0  MISS:     136600
cpu0_L2C PREFETCH  ACCESS:          0  HIT:          0  MISS:          0
cpu0_L2C WRITEBACK ACCESS:     136523  HIT:     136523  MISS:          0
LLC TOTAL     ACCESS:     568820  HIT:     140750  MISS:     428070
LLC LOAD      ACCESS:     293508  HIT:       2675  MISS:     290833
LLC RFO       ACCESS:     136600  HIT:          0  MISS:     136600
LLC PREFETCH  ACCESS:          0  HIT:          0  MISS:          0
LLC WRITEBACK ACCESS:     138709  HIT:     138075  MISS:        634
Heartbeat CPU 0 instructions: 94000002 cycles: 76595540 heartbeat IPC: 0.586 cumulative IPC: 0.749824 (Simulation time: 1 hr 57 min 36 sec) 

Region of Interest Statistics
cpu0_DTLB TOTAL     ACCESS:    8158766  HIT:    8151525  MISS:       7241
cpu0_DTLB LOAD      ACCESS:    7581364  HIT:    7576387  MISS:       4977
cpu0_DTLB RFO       ACCESS:     577402  HIT:     575138  MISS:       2264
cpu0_DTLB PREFETCH  ACCESS:          0  HIT:          0  MISS:          0
cpu0_DTLB WRITEBACK ACCESS:          0  HIT:          0  MISS:          0
cpu0_ITLB TOTAL     ACCESS:     217077  HIT:     217077  MISS:          0
cpu0_ITLB LOAD      ACCESS:     217077  HIT:     217077  MISS:          0
cpu0_ITLB RFO       ACCESS:          0  HIT:          0  MISS:          0
cpu0_ITLB PREFETCH  ACCESS:          0  HIT:          0  MISS:          0
cpu0_ITLB WRITEBACK ACCESS:          0  HIT:          0  MISS:          0
cpu0_L1I TOTAL     ACCESS:         51  HIT:         24  MISS:         27
cpu0_L1I LOAD      ACCESS:         51  HIT:         24  MISS:         27
cpu0_L1I RFO       ACCESS:          0  HIT:          0  MISS:          0
cpu0_L1I PREFETCH  ACCESS:          0  HIT:          0  MISS:          0
cpu0_L1I WRITEBACK ACCESS:          0  HIT:          0  MISS:          0
cpu0_STLB TOTAL     ACCESS:       7241  HIT:        136  MISS:       7105
cpu0_STLB LOAD      ACCESS:       4977  HIT:        136  MISS:       4841
cpu0_STLB RFO       ACCESS:       2264  HIT:          0  MISS:       2264
cpu0_STLB PREFETCH  ACCESS:          0  HIT:          0  MISS:          0
cpu0_STLB WRITEBACK ACCESS:          0  HIT:          0  MISS:          0
cpu0_L1D TOTAL     ACCESS:   11080554  HIT:   10632271  MISS:     448283
cpu0_L1D LOAD      ACCESS:   10757285  HIT:   10449244  MISS:     308041
cpu0_L1D RFO       ACCESS:     316334  HIT:     176095  MISS:     140239
cpu0_L1D PREFETCH  ACCESS:          0  HIT:          0  MISS:          0
cpu0_L1D WRITEBACK ACCESS:          0  HIT:          0  MISS:          0
cpu0_L2C TOTAL     ACCESS:     588420  HIT:     140110  MISS:     448310
cpu0_L2C LOAD      ACCESS:     308068  HIT:          0  MISS:     308068
cpu0_L2C RFO       ACCESS:     140239  HIT:          0  MISS:     140239
cpu0_L2C PREFETCH  ACCESS:          0  HIT:          0  MISS:          0
cpu0_L2C WRITEBACK ACCESS:     140110  HIT:     140110  MISS:          0
LLC TOTAL     ACCESS:     591064  HIT:     144859  MISS:     446205
LLC LOAD      ACCESS:     308068  HIT:       2739  MISS:     305329
LLC RFO       ACCESS:     140239  HIT:          0  MISS:     140239
LLC PREFETCH  ACCESS:          0  HIT:          0  MISS:          0
LLC WRITEBACK ACCESS:     142754  HIT:     142120  MISS:        634
Heartbeat CPU 0 instructions: 96000003 cycles: 80023419 heartbeat IPC: 0.583451 cumulative IPC: 0.740641 (Simulation time: 2 hr 2 min 4 sec) 

Region of Interest Statistics
cpu0_DTLB TOTAL     ACCESS:    8599704  HIT:    8592171  MISS:       7533
cpu0_DTLB LOAD      ACCESS:    7980424  HIT:    7975213  MISS:       5211
cpu0_DTLB RFO       ACCESS:     619280  HIT:     616958  MISS:       2322
cpu0_DTLB PREFETCH  ACCESS:          0  HIT:          0  MISS:          0
cpu0_DTLB WRITEBACK ACCESS:          0  HIT:          0  MISS:          0
cpu0_ITLB TOTAL     ACCESS:     220813  HIT:     220813  MISS:          0
cpu0_ITLB LOAD      ACCESS:     220813  HIT:     220813  MISS:          0
cpu0_ITLB RFO       ACCESS:          0  HIT:          0  MISS:          0
cpu0_ITLB PREFETCH  ACCESS:          0  HIT:          0  MISS:          0
cpu0_ITLB WRITEBACK ACCESS:          0  HIT:          0  MISS:          0
cpu0_L1I TOTAL     ACCESS:         51  HIT:         24  MISS:         27
cpu0_L1I LOAD      ACCESS:         51  HIT:         24  MISS:         27
cpu0_L1I RFO       ACCESS:          0  HIT:          0  MISS:          0
cpu0_L1I PREFETCH  ACCESS:          0  HIT:          0  MISS:          0
cpu0_L1I WRITEBACK ACCESS:          0  HIT:          0  MISS:          0
cpu0_STLB TOTAL     ACCESS:       7533  HIT:        136  MISS:       7397
cpu0_STLB LOAD      ACCESS:       5211  HIT:        136  MISS:       5075
cpu0_STLB RFO       ACCESS:       2322  HIT:          0  MISS:       2322
cpu0_STLB PREFETCH  ACCESS:          0  HIT:          0  MISS:          0
cpu0_STLB WRITEBACK ACCESS:          0  HIT:          0  MISS:          0
cpu0_L1D TOTAL     ACCESS:   11788011  HIT:   11321537  MISS:     466474
cpu0_L1D LOAD      ACCESS:   11433183  HIT:   11110590  MISS:     322593
cpu0_L1D RFO       ACCESS:     347629  HIT:     203751  MISS:     143878
cpu0_L1D PREFETCH  ACCESS:          0  HIT:          0  MISS:          0
cpu0_L1D WRITEBACK ACCESS:          0  HIT:          0  MISS:          0
cpu0_L2C TOTAL     ACCESS:     610184  HIT:     143683  MISS:     466501
cpu0_L2C LOAD      ACCESS:     322620  HIT:          0  MISS:     322620
cpu0_L2C RFO       ACCESS:     143878  HIT:          0  MISS:     143878
cpu0_L2C PREFETCH  ACCESS:          0  HIT:          0  MISS:          0
cpu0_L2C WRITEBACK ACCESS:     143683  HIT:     143683  MISS:          0
LLC TOTAL     ACCESS:     612695  HIT:     148363  MISS:     464332
LLC LOAD      ACCESS:     322620  HIT:       2803  MISS:     319817
LLC RFO       ACCESS:     143878  HIT:          0  MISS:     143878
LLC PREFETCH  ACCESS:          0  HIT:          0  MISS:          0
LLC WRITEBACK ACCESS:     146194  HIT:     145560  MISS:        634
Heartbeat CPU 0 instructions: 98000001 cycles: 83364989 heartbeat IPC: 0.59852 cumulative IPC: 0.733385 (Simulation time: 2 hr 6 min 29 sec) 

Region of Interest Statistics
cpu0_DTLB TOTAL     ACCESS:    9040676  HIT:    9032852  MISS:       7824
cpu0_DTLB LOAD      ACCESS:    8379517  HIT:    8374073  MISS:       5444
cpu0_DTLB RFO       ACCESS:     661159  HIT:     658779  MISS:       2380
cpu0_DTLB PREFETCH  ACCESS:          0  HIT:          0  MISS:          0
cpu0_DTLB WRITEBACK ACCESS:          0  HIT:          0  MISS:          0
cpu0_ITLB TOTAL     ACCESS:     224575  HIT:     224575  MISS:          0
cpu0_ITLB LOAD      ACCESS:     224575  HIT:     224575  MISS:          0
cpu0_ITLB RFO       ACCESS:          0  HIT:          0  MISS:          0
cpu0_ITLB PREFETCH  ACCESS:          0  HIT:          0  MISS:          0
cpu0_ITLB WRITEBACK ACCESS:          0  HIT:          0  MISS:          0
cpu0_L1I TOTAL     ACCESS:         51  HIT:         24  MISS:         27
cpu0_L1I LOAD      ACCESS:         51  HIT:         24  MISS:         27
cpu0_L1I RFO       ACCESS:          0  HIT:          0  MISS:          0
cpu0_L1I PREFETCH  ACCESS:          0  HIT:          0  MISS:          0
cpu0_L1I WRITEBACK ACCESS:          0  HIT:          0  MISS:          0
cpu0_STLB TOTAL     ACCESS:       7824  HIT:        136  MISS:       7688
cpu0_STLB LOAD      ACCESS:       5444  HIT:        136  MISS:       5308
cpu0_STLB RFO       ACCESS:       2380  HIT:          0  MISS:       2380
cpu0_STLB PREFETCH  ACCESS:          0  HIT:          0  MISS:          0
cpu0_STLB WRITEBACK ACCESS:          0  HIT:          0  MISS:          0
cpu0_L1D TOTAL     ACCESS:   12495327  HIT:   12010654  MISS:     484673
cpu0_L1D LOAD      ACCESS:   12108942  HIT:   11771789  MISS:     337153
cpu0_L1D RFO       ACCESS:     378924  HIT:     231407  MISS:     147517
cpu0_L1D PREFETCH  ACCESS:          0  HIT:          0  MISS:          0
cpu0_L1D WRITEBACK ACCESS:          0  HIT:          0  MISS:          0
cpu0_L2C TOTAL     ACCESS:     631974  HIT:     147274  MISS:     484700
cpu0_L2C LOAD      ACCESS:     337180  HIT:          0  MISS:     337180
cpu0_L2C RFO       ACCESS:     147517  HIT:          0  MISS:     147517
cpu0_L2C PREFETCH  ACCESS:          0  HIT:          0  MISS:          0
cpu0_L2C WRITEBACK ACCESS:     147274  HIT:     147274  MISS:          0
LLC TOTAL     ACCESS:     634440  HIT:     151909  MISS:     482531
LLC LOAD      ACCESS:     337180  HIT:       2803  MISS:     334377
LLC RFO       ACCESS:     147517  HIT:          0  MISS:     147517
LLC PREFETCH  ACCESS:          0  HIT:          0  MISS:          0
LLC WRITEBACK ACCESS:     149740  HIT:     149106  MISS:        634
Heartbeat CPU 0 instructions: 100000000 cycles: 86702037 heartbeat IPC: 0.599332 cumulative IPC: 0.726882 (Simulation time: 2 hr 10 min 53 sec) 

Region of Interest Statistics
cpu0_DTLB TOTAL     ACCESS:    9481642  HIT:    9473521  MISS:       8121
cpu0_DTLB LOAD      ACCESS:    8778609  HIT:    8772928  MISS:       5681
cpu0_DTLB RFO       ACCESS:     703033  HIT:     700593  MISS:       2440
cpu0_DTLB PREFETCH  ACCESS:          0  HIT:          0  MISS:          0
cpu0_DTLB WRITEBACK ACCESS:          0  HIT:          0  MISS:          0
cpu0_ITLB TOTAL     ACCESS:     228323  HIT:     228323  MISS:          0
cpu0_ITLB LOAD      ACCESS:     228323  HIT:     228323  MISS:          0
cpu0_ITLB RFO       ACCESS:          0  HIT:          0  MISS:          0
cpu0_ITLB PREFETCH  ACCESS:          0  HIT:          0  MISS:          0
cpu0_ITLB WRITEBACK ACCESS:          0  HIT:          0  MISS:          0
cpu0_L1I TOTAL     ACCESS:         51  HIT:         24  MISS:         27
cpu0_L1I LOAD      ACCESS:         51  HIT:         24  MISS:         27
cpu0_L1I RFO       ACCESS:          0  HIT:          0  MISS:          0
cpu0_L1I PREFETCH  ACCESS:          0  HIT:          0  MISS:          0
cpu0_L1I WRITEBACK ACCESS:          0  HIT:          0  MISS:          0
cpu0_STLB TOTAL     ACCESS:       8121  HIT:        136  MISS:       7985
cpu0_STLB LOAD      ACCESS:       5681  HIT:        136  MISS:       5545
cpu0_STLB RFO       ACCESS:       2440  HIT:          0  MISS:       2440
cpu0_STLB PREFETCH  ACCESS:          0  HIT:          0  MISS:          0
cpu0_STLB WRITEBACK ACCESS:          0  HIT:          0  MISS:          0
cpu0_L1D TOTAL     ACCESS:   13202665  HIT:   12699801  MISS:     502864
cpu0_L1D LOAD      ACCESS:   12784701  HIT:   12432996  MISS:     351705
cpu0_L1D RFO       ACCESS:     410235  HIT:     259079  MISS:     151156
cpu0_L1D PREFETCH  ACCESS:          0  HIT:          0  MISS:          0
cpu0_L1D WRITEBACK ACCESS:          0  HIT:          0  MISS:          0
cpu0_L2C TOTAL     ACCESS:     653744  HIT:     150853  MISS:     502891
cpu0_L2C LOAD      ACCESS:     351732  HIT:          0  MISS:     351732
cpu0_L2C RFO       ACCESS:     151156  HIT:          0  MISS:     151156
cpu0_L2C PREFETCH  ACCESS:          0  HIT:          0  MISS:          0
cpu0_L2C WRITEBACK ACCESS:     150853  HIT:     150853  MISS:          0
LLC TOTAL     ACCESS:     656352  HIT:     155630  MISS:     500722
LLC LOAD      ACCESS:     351732  HIT:       2803  MISS:     348929
LLC RFO       ACCESS:     151156  HIT:          0  MISS:     151156
LLC PREFETCH  ACCESS:          0  HIT:          0  MISS:          0
LLC WRITEBACK ACCESS:     153461  HIT:     152827  MISS:        634
Heartbeat CPU 0 instructions: 102000002 cycles: 90025293 heartbeat IPC: 0.60182 cumulative IPC: 0.721118 (Simulation time: 2 hr 15 min 11 sec) 

Region of Interest Statistics
cpu0_DTLB TOTAL     ACCESS:    9922622  HIT:    9914208  MISS:       8414
cpu0_DTLB LOAD      ACCESS:    9177710  HIT:    9171794  MISS:       5916
cpu0_DTLB RFO       ACCESS:     744912  HIT:     742414  MISS:       2498
cpu0_DTLB PREFETCH  ACCESS:          0  HIT:          0  MISS:          0
cpu0_DTLB WRITEBACK ACCESS:          0  HIT:          0  MISS:          0
cpu0_ITLB TOTAL     ACCESS:     232064  HIT:     232064  MISS:          0
cpu0_ITLB LOAD      ACCESS:     232064  HIT:     232064  MISS:          0
cpu0_ITLB RFO       ACCESS:          0  HIT:          0  MISS:          0
cpu0_ITLB PREFETCH  ACCESS:          0  HIT:          0  MISS:          0
cpu0_ITLB WRITEBACK ACCESS:          0  HIT:          0  MISS:          0
cpu0_L1I TOTAL     ACCESS:         51  HIT:         24  MISS:         27
cpu0_L1I LOAD      ACCESS:         51  HIT:         24  MISS:         27
cpu0_L1I RFO       ACCESS:          0  HIT:          0  MISS:          0
cpu0_L1I PREFETCH  ACCESS:          0  HIT:          0  MISS:          0
cpu0_L1I WRITEBACK ACCESS:          0  HIT:          0  MISS:          0
cpu0_STLB TOTAL     ACCESS:       8414  HIT:        136  MISS:       8278
cpu0_STLB LOAD      ACCESS:       5916  HIT:        136  MISS:       5780
cpu0_STLB RFO       ACCESS:       2498  HIT:          0  MISS:       2498
cpu0_STLB PREFETCH  ACCESS:          0  HIT:          0  MISS:          0
cpu0_STLB WRITEBACK ACCESS:          0  HIT:          0  MISS:          0
cpu0_L1D TOTAL     ACCESS:   13910013  HIT:   13388950  MISS:     521063
cpu0_L1D LOAD      ACCESS:   13460475  HIT:   13094210  MISS:     366265
cpu0_L1D RFO       ACCESS:     441545  HIT:     286750  MISS:     154795
cpu0_L1D PREFETCH  ACCESS:          0  HIT:          0  MISS:          0
cpu0_L1D WRITEBACK ACCESS:          0  HIT:          0  MISS:          0
cpu0_L2C TOTAL     ACCESS:     675527  HIT:     154437  MISS:     521090
cpu0_L2C LOAD      ACCESS:     366292  HIT:          0  MISS:     366292
cpu0_L2C RFO       ACCESS:     154795  HIT:          0  MISS:     154795
cpu0_L2C PREFETCH  ACCESS:          0  HIT:          0  MISS:          0
cpu0_L2C WRITEBACK ACCESS:     154437  HIT:     154437  MISS:          0
LLC TOTAL     ACCESS:     677982  HIT:     159061  MISS:     518921
LLC LOAD      ACCESS:     366292  HIT:       2803  MISS:     363489
LLC RFO       ACCESS:     154795  HIT:          0  MISS:     154795
LLC PREFETCH  ACCESS:          0  HIT:          0  MISS:          0
LLC WRITEBACK ACCESS:     156892  HIT:     156258  MISS:        634
Heartbeat CPU 0 instructions: 104000001 cycles: 93342190 heartbeat IPC: 0.602973 cumulative IPC: 0.715923 (Simulation time: 2 hr 19 min 32 sec) 

Region of Interest Statistics
cpu0_DTLB TOTAL     ACCESS:   10363593  HIT:   10354882  MISS:       8711
cpu0_DTLB LOAD      ACCESS:    9576804  HIT:    9570651  MISS:       6153
cpu0_DTLB RFO       ACCESS:     786789  HIT:     784231  MISS:       2558
cpu0_DTLB PREFETCH  ACCESS:          0  HIT:          0  MISS:          0
cpu0_DTLB WRITEBACK ACCESS:          0  HIT:          0  MISS:          0
cpu0_ITLB TOTAL     ACCESS:     235837  HIT:     235837  MISS:          0
cpu0_ITLB LOAD      ACCESS:     235837  HIT:     235837  MISS:          0
cpu0_ITLB RFO       ACCESS:          0  HIT:          0  MISS:          0
cpu0_ITLB PREFETCH  ACCESS:          0  HIT:          0  MISS:          0
cpu0_ITLB WRITEBACK ACCESS:          0  HIT:          0  MISS:          0
cpu0_L1I TOTAL     ACCESS:         51  HIT:         24  MISS:         27
cpu0_L1I LOAD      ACCESS:         51  HIT:         24  MISS:         27
cpu0_L1I RFO       ACCESS:          0  HIT:          0  MISS:          0
cpu0_L1I PREFETCH  ACCESS:          0  HIT:          0  MISS:          0
cpu0_L1I WRITEBACK ACCESS:          0  HIT:          0  MISS:          0
cpu0_STLB TOTAL     ACCESS:       8711  HIT:        136  MISS:       8575
cpu0_STLB LOAD      ACCESS:       6153  HIT:        136  MISS:       6017
cpu0_STLB RFO       ACCESS:       2558  HIT:          0  MISS:       2558
cpu0_STLB PREFETCH  ACCESS:          0  HIT:          0  MISS:          0
cpu0_STLB WRITEBACK ACCESS:          0  HIT:          0  MISS:          0
cpu0_L1D TOTAL     ACCESS:   14617365  HIT:   14078102  MISS:     539263
cpu0_L1D LOAD      ACCESS:   14136256  HIT:   13755431  MISS:     380825
cpu0_L1D RFO       ACCESS:     472848  HIT:     314413  MISS:     158435
cpu0_L1D PREFETCH  ACCESS:          0  HIT:          0  MISS:          0
cpu0_L1D WRITEBACK ACCESS:          0  HIT:          0  MISS:          0
cpu0_L2C TOTAL     ACCESS:     697313  HIT:     158023  MISS:     539290
cpu0_L2C LOAD      ACCESS:     380852  HIT:          0  MISS:     380852
cpu0_L2C RFO       ACCESS:     158435  HIT:          0  MISS:     158435
cpu0_L2C PREFETCH  ACCESS:          0  HIT:          0  MISS:          0
cpu0_L2C WRITEBACK ACCESS:     158023  HIT:     158023  MISS:          0
LLC TOTAL     ACCESS:     699736  HIT:     162615  MISS:     537121
LLC LOAD      ACCESS:     380852  HIT:       2803  MISS:     378049
LLC RFO       ACCESS:     158435  HIT:          0  MISS:     158435
LLC PREFETCH  ACCESS:          0  HIT:          0  MISS:          0
LLC WRITEBACK ACCESS:     160446  HIT:     159812  MISS:        634
Heartbeat CPU 0 instructions: 106000003 cycles: 96616800 heartbeat IPC: 0.61076 cumulative IPC: 0.711547 (Simulation time: 2 hr 23 min 54 sec) 

Region of Interest Statistics
cpu0_DTLB TOTAL     ACCESS:   10804560  HIT:   10795557  MISS:       9003
cpu0_DTLB LOAD      ACCESS:    9975894  HIT:    9969507  MISS:       6387
cpu0_DTLB RFO       ACCESS:     828666  HIT:     826050  MISS:       2616
cpu0_DTLB PREFETCH  ACCESS:          0  HIT:          0  MISS:          0
cpu0_DTLB WRITEBACK ACCESS:          0  HIT:          0  MISS:          0
cpu0_ITLB TOTAL     ACCESS:     239565  HIT:     239565  MISS:          0
cpu0_ITLB LOAD      ACCESS:     239565  HIT:     239565  MISS:          0
cpu0_ITLB RFO       ACCESS:          0  HIT:          0  MISS:          0
cpu0_ITLB PREFETCH  ACCESS:          0  HIT:          0  MISS:          0
cpu0_ITLB WRITEBACK ACCESS:          0  HIT:          0  MISS:          0
cpu0_L1I TOTAL     ACCESS:         51  HIT:         24  MISS:         27
cpu0_L1I LOAD      ACCESS:         51  HIT:         24  MISS:         27
cpu0_L1I RFO       ACCESS:          0  HIT:          0  MISS:          0
cpu0_L1I PREFETCH  ACCESS:          0  HIT:          0  MISS:          0
cpu0_L1I WRITEBACK ACCESS:          0  HIT:          0  MISS:          0
cpu0_STLB TOTAL     ACCESS:       9003  HIT:        136  MISS:       8867
cpu0_STLB LOAD      ACCESS:       6387  HIT:        136  MISS:       6251
cpu0_STLB RFO       ACCESS:       2616  HIT:          0  MISS:       2616
cpu0_STLB PREFETCH  ACCESS:          0  HIT:          0  MISS:          0
cpu0_STLB WRITEBACK ACCESS:          0  HIT:          0  MISS:          0
cpu0_L1D TOTAL     ACCESS:   15324679  HIT:   14767226  MISS:     557453
cpu0_L1D LOAD      ACCESS:   14811992  HIT:   14416615  MISS:     395377
cpu0_L1D RFO       ACCESS:     504163  HIT:     342090  MISS:     162073
cpu0_L1D PREFETCH  ACCESS:          0  HIT:          0  MISS:          0
cpu0_L1D WRITEBACK ACCESS:          0  HIT:          0  MISS:          0
cpu0_L2C TOTAL     ACCESS:     719080  HIT:     161600  MISS:     557480
cpu0_L2C LOAD      ACCESS:     395404  HIT:          0  MISS:     395404
cpu0_L2C RFO       ACCESS:     162073  HIT:          0  MISS:     162073
cpu0_L2C PREFETCH  ACCESS:          0  HIT:          0  MISS:          0
cpu0_L2C WRITEBACK ACCESS:     161600  HIT:     161600  MISS:          0
LLC TOTAL     ACCESS:     721604  HIT:     166300  MISS:     555304
LLC LOAD      ACCESS:     395404  HIT:       2810  MISS:     392594
LLC RFO       ACCESS:     162073  HIT:          0  MISS:     162073
LLC PREFETCH  ACCESS:          0  HIT:          0  MISS:          0
LLC WRITEBACK ACCESS:     164124  HIT:     163490  MISS:        634
Heartbeat CPU 0 instructions: 108000002 cycles: 99878126 heartbeat IPC: 0.613247 cumulative IPC: 0.707636 (Simulation time: 2 hr 28 min 12 sec) 

Region of Interest Statistics
cpu0_DTLB TOTAL     ACCESS:   11245553  HIT:   11236252  MISS:       9301
cpu0_DTLB LOAD      ACCESS:   10375010  HIT:   10368385  MISS:       6625
cpu0_DTLB RFO       ACCESS:     870543  HIT:     867867  MISS:       2676
cpu0_DTLB PREFETCH  ACCESS:          0  HIT:          0  MISS:          0
cpu0_DTLB WRITEBACK ACCESS:          0  HIT:          0  MISS:          0
cpu0_ITLB TOTAL     ACCESS:     243338  HIT:     243338  MISS:          0
cpu0_ITLB LOAD      ACCESS:     243338  HIT:     243338  MISS:          0
[...]
cpu0_DTLB LOAD      ACCESS:  308870847  HIT:  308620856  MISS:     249991
cpu0_DTLB RFO       ACCESS:   28303590  HIT:   28237981  MISS:      65609
cpu0_DTLB PREFETCH  ACCESS:          0  HIT:          0  MISS:          0
cpu0_DTLB WRITEBACK ACCESS:          0  HIT:          0  MISS:          0
cpu0_DTLB TRANSLATION ACCESS:          0  HIT:          0  MISS:          0
cpu0_DTLB PREFETCH  REQUESTED:          0  ISSUED:          0  USEFUL:          0  USELESS:          0
cpu0_DTLB AVERAGE MISS LATENCY: 23.7699 cycles
cpu0_ITLB TOTAL     ACCESS:   16502163  HIT:   16502146  MISS:         17
cpu0_ITLB LOAD      ACCESS:   16502163  HIT:   16502146  MISS:         17
cpu0_ITLB RFO       ACCESS:          0  HIT:          0  MISS:          0
cpu0_ITLB PREFETCH  ACCESS:          0  HIT:          0  MISS:          0
cpu0_ITLB WRITEBACK ACCESS:          0  HIT:          0  MISS:          0
cpu0_ITLB TRANSLATION ACCESS:          0  HIT:          0  MISS:          0
cpu0_ITLB PREFETCH  REQUESTED:          0  ISSUED:          0  USEFUL:          0  USELESS:          0
cpu0_ITLB AVERAGE MISS LATENCY: 295.588 cycles
cpu0_L1I TOTAL     ACCESS:   31169800  HIT:   31168874  MISS:        926
cpu0_L1I LOAD      ACCESS:   31169800  HIT:   31168874  MISS:        926
cpu0_L1I RFO       ACCESS:          0  HIT:          0  MISS:          0
cpu0_L1I PREFETCH  ACCESS:          0  HIT:          0  MISS:          0
cpu0_L1I WRITEBACK ACCESS:          0  HIT:          0  MISS:          0
cpu0_L1I TRANSLATION ACCESS:          0  HIT:          0  MISS:          0
cpu0_L1I PREFETCH  REQUESTED:          0  ISSUED:          0  USEFUL:          0  USELESS:          0
cpu0_L1I AVERAGE MISS LATENCY: 320.485 cycles
cpu0_STLB TOTAL     ACCESS:     315617  HIT:     162282  MISS:     153335
cpu0_STLB LOAD      ACCESS:     250008  HIT:     138905  MISS:     111103
cpu0_STLB RFO       ACCESS:      65609  HIT:      23377  MISS:      42232
cpu0_STLB PREFETCH  ACCESS:          0  HIT:          0  MISS:          0
cpu0_STLB WRITEBACK ACCESS:          0  HIT:          0  MISS:          0
cpu0_STLB TRANSLATION ACCESS:          0  HIT:          0  MISS:          0
cpu0_STLB PREFETCH  REQUESTED:          0  ISSUED:          0  USEFUL:          0  USELESS:          0
cpu0_STLB AVERAGE MISS LATENCY: 30.391 cycles
cpu0_L1D TOTAL     ACCESS:  400960058  HIT:  386529048  MISS:   14431010
cpu0_L1D LOAD      ACCESS:  365830784  HIT:  354819384  MISS:   11011400
cpu0_L1D RFO       ACCESS:   34984538  HIT:   31578437  MISS:    3406101
cpu0_L1D PREFETCH  ACCESS:          0  HIT:          0  MISS:          0
cpu0_L1D WRITEBACK ACCESS:          0  HIT:          0  MISS:          0
cpu0_L1D TRANSLATION ACCESS:     144736  HIT:     131227  MISS:      13509
cpu0_L1D PREFETCH  REQUESTED:          0  ISSUED:          0  USEFUL:          0  USELESS:          0
cpu0_L1D AVERAGE MISS LATENCY: 220.937 cycles
cpu0_L2C TOTAL     ACCESS:   18785887  HIT:    7469234  MISS:   11316653
cpu0_L2C LOAD      ACCESS:   11012208  HIT:    2337953  MISS:    8674255
cpu0_L2C RFO       ACCESS:    3406046  HIT:     766414  MISS:    2639632
cpu0_L2C PREFETCH  ACCESS:          0  HIT:          0  MISS:          0
cpu0_L2C WRITEBACK ACCESS:    4354124  HIT:    4351883  MISS:       2241
cpu0_L2C TRANSLATION ACCESS:      13509  HIT:      12984  MISS:        525
cpu0_L2C PREFETCH  REQUESTED:          0  ISSUED:          0  USEFUL:          0  USELESS:          0
cpu0_L2C AVERAGE MISS LATENCY: 267.722 cycles
LLC TOTAL     ACCESS:   14558846  HIT:    4681089  MISS:    9877757
LLC LOAD      ACCESS:    8674251  HIT:    1156851  MISS:    7517400
LLC RFO       ACCESS:    2639631  HIT:     296511  MISS:    2343120
LLC PREFETCH  ACCESS:          0  HIT:          0  MISS:          0
LLC WRITEBACK ACCESS:    3244439  HIT:    3227463  MISS:      16976
LLC TRANSLATION ACCESS:        525  HIT:        264  MISS:        261
LLC PREFETCH  REQUESTED:          0  ISSUED:          0  USEFUL:          0  USELESS:          0
LLC AVERAGE MISS LATENCY: 282.666 cycles
~~~~~~~~~~Reuse Distance Profiler output~~~~~~~~~~
0	10214352	6920784
1	13914992	10960912
2	21465024	17427168
3	26166080	24760384
4	28700560	28075696
5	24571264	23985968
6	25377008	24709648
7	23148576	22487712
8	17815248	17297520
9	15253184	14815856
10	14276800	13659008
11	10971856	10278928
12	10141952	9318144
13	9790432	8662096
14	8690832	7734752
15	8282768	7276096
16	6519392	5641488
17	5977504	5410864
18	5442144	4734864
19	5933856	5393296
20	5178816	4760272
21	4751600	4339248
22	4969088	4581824
23	3892176	3605776
24	4498336	4252272
25	3416640	3218928
26	3359776	3168816
27	3181888	2991424
28	2613200	2472480
29	3066320	2876112
30	2598128	2430928
31	2848080	2701248
32	1933232	1778384
33	2524080	2392768
34	2340128	2204400
35	2223152	2062896
36	2543536	2408496
37	2905152	2656032
38	2245712	2051392
39	1902864	1798768
40	2051488	1906160
41	1855232	1700224
42	1609424	1455168
43	1635344	1515680
44	1441808	1174624
45	1642144	1505152
46	1729488	1651152
47	1378352	1262784
48	1189312	1139504
49	1172368	1099088
50	928960	855040
51	990176	801328
52	774480	692512
53	1004624	926544
54	841136	682272
55	912896	848672
56	609040	548384
57	619888	553264
58	426080	368864
59	592560	394608
60	595696	558896
61	552176	512560
62	648992	582336
63	510016	441536
64	880208	768512
66	915344	771968
68	818160	718368
70	903296	830896
72	896944	828864
74	619024	555744
76	608528	546816
78	425696	382880
80	330896	289408
82	439680	413968
84	277808	247536
86	470944	455088
88	300896	230688
90	306512	300560
92	295920	291296
94	166912	161792
96	110352	107952
98	210048	144448
100	196736	193680
102	143328	140912
104	161344	158720
106	97120	95680
108	79904	78656
110	248640	247584
112	78256	77552
114	44000	43088
116	178208	177216
118	93328	92464
120	25360	24176
122	24512	23376
124	24208	23184
126	21328	20384
128	92576	91712
132	22672	21728
136	22784	21584
140	17488	16880
144	9712	9376
148	9824	9520
152	10272	10160
156	25504	25472
160	23232	23216
164	17072	17072
168	20960	20960
172	9840	9840
176	5248	5248
180	1984	1904
184	4160	2240
188	5056	1664
192	8224	4000
196	6976	4256
200	3856	1552
204	5296	2704
208	2320	1152
212	1584	1504
216	1024	1024
220	800	784
224	368	368
228	832	832
232	784	784
236	752	752
240	944	944
244	576	576
248	736	736
252	624	624
256	1120	1120
264	3296	3296
272	2816	2816
280	3216	3216
288	4800	4800
296	8288	8288
304	10720	10720
312	14736	14736
320	16496	16448
328	19680	19648
336	18912	18864
344	18240	17600
352	18592	17056
360	16256	15392
368	14352	14208
376	14608	14160
384	13296	12064
392	16112	15168
400	14528	13920
408	12608	12576
416	16848	16848
424	20560	20560
432	24848	24848
440	30304	30304
448	33456	33456
456	36672	36672
464	40000	40000
472	43120	43120
480	49808	49808
488	55408	55408
496	65024	65024
504	61104	61104
512	112784	112768
528	95184	95120
544	72864	71952
560	62496	60112
576	55792	55584
592	65104	63840
608	76000	73408
624	88928	87840
640	89968	89968
656	74640	74640
672	56448	56448
688	30352	30320
704	17040	16992
720	19552	19472
736	30992	30240
752	36688	35936
768	41280	40976
784	30976	30608
800	35472	34560
816	39296	38928
832	42528	42512
848	32464	32464
864	24448	24448
880	18256	18256
896	14256	14256
912	13392	13344
928	7808	7696
944	6992	6800
960	7840	7440
976	7568	7120
992	5808	4960
1008	6384	5488
1024	17664	16288
1056	16432	14848
1088	9632	8960
1120	7584	7536
1152	7024	7024
1184	6400	6400
1216	171072	171040
1248	244848	244752
1280	299056	298176
1312	28720	28016
1344	49376	48112
1376	29056	28800
1408	14912	13968
1440	13072	12192
1472	13456	12592
1504	8336	7360
1536	8544	7568
1568	4560	3728
1600	4544	3632
1632	6256	4528
1664	5296	4944
1696	5712	4528
1728	4688	3584
1760	11264	11264
1792	2624	2624
1824	2160	2032
1856	5696	5040
1888	7232	3712
1920	11120	10288
1952	15184	14816
1984	18176	16976
2016	17744	15792
2048	21872	20832
2112	5568	4336
2176	9104	6784
2240	5232	4656
2304	10288	8624
2368	13136	12720
2432	9184	6480
2496	9408	8592
2560	8912	6720
2624	13328	11952
2688	23936	21216
2752	14944	14448
2816	11808	11536
2880	13392	11728
2944	9392	7936
3008	13344	10976
3072	26896	18560
3136	40720	13584
3200	48960	11184
3264	46672	9840
3328	52096	18288
3392	55824	19680
3456	57360	17984
3520	60336	22784
3584	27952	15392
3648	14480	14208
3712	22048	21136
3776	22848	20880
3840	15584	15584
3904	12944	12944
3968	14736	14656
4032	22656	19488
4096	55088	54944
4224	54992	54256
4352	71024	68592
4480	67936	66176
4608	54048	50512
4736	66224	66208
4864	54112	52176
4992	70144	66816
5120	76304	74544
5248	65568	65552
5376	63600	63600
5504	69168	69168
5632	48672	48672
5760	59344	59344
5888	34192	34192
6016	20320	19840
6144	40608	38720
6272	24384	19872
6400	17504	14080
6528	44704	34352
6656	37392	27792
6784	38048	25248
6912	42000	30560
7040	33792	20992
7168	17984	8800
7296	11872	3920
7424	22544	13936
7552	49872	41088
7680	70448	63200
7808	72336	63456
7936	61776	53760
8064	58624	49648
8192	118304	102144
8448	117840	100960
8704	115280	100608
8960	108160	98688
9216	53712	50640
9472	21984	21712
9728	25472	21136
9984	63232	43344
10240	116528	52560
10496	127872	57920
10752	130464	71312
11008	166896	106208
11264	161184	101264
11520	156656	99600
11776	115232	79584
12032	103904	75344
12288	95824	73632
12544	80112	72624
12800	85584	83136
13056	62688	62064
13312	49664	44480
13568	59952	35952
13824	95088	58960
14080	104976	61584
14336	104304	58400
14592	106592	59552
14848	107056	57040
15104	102544	54144
15360	81424	46320
15616	57424	38784
15872	52720	34656
16128	52624	29888
16384	156720	67168
16896	98224	62016
17408	85488	41520
17920	81664	32640
18432	58352	10432
18944	79920	29904
19456	298464	180752
19968	226448	159440
20480	107152	49568
20992	24000	11680
21504	14544	4528
22016	10320	240
22528	9584	688
23040	11488	6976
23552	362752	278912
24064	62272	47328
24576	0	0
25088	0	0
25600	0	0
26112	0	0
26624	288	288
27136	1168	1168
27648	32	32
28160	1600	1600
28672	1152	1152
29184	128	128
29696	1936	320
30208	992	240
30720	416	352
31232	9088	6896
31744	10032	10032
32256	9504	9504
32768	19040	19040
33792	7168	7168
34816	0	0
35840	0	0
36864	64	64
37888	1328	592
38912	2432	720
39936	3168	1072
40960	1088	1088
41984	704	704
43008	48	48
44032	0	0
45056	16	0
46080	32	16
47104	69104	67632
48128	42032	40272
49152	2464	960
50176	2720	976
51200	1792	1456
52224	352	336
53248	224	80
54272	1408	0
55296	1968	0
56320	1328	176
57344	4176	1184
58368	3872	880
59392	4016	1008
60416	2832	1392
61440	6432	1584
62464	4272	416
63488	2416	160
64512	2272	432
65536	5520	1136
67584	9232	4048
69632	3776	1936
71680	416	416
73728	64	16
75776	1264	464
77824	5232	2048
79872	2352	1792
81920	368	368
83968	16	16
86016	5312	3248
88064	4288	1728
90112	2992	1328
92160	16	16
94208	48	16
96256	3440	1296
98304	4512	1936
100352	1360	1344
102400	32	32
104448	1264	336
106496	6640	3456
108544	3904	1824
110592	608	608
112640	64	64
114688	720	656
116736	4256	1632
118784	3584	1952
120832	512	512
122880	96	80
124928	4896	2656
126976	4448	2608
129024	3936	1808
131072	320	320
135168	7120	2640
139264	1440	1440
143360	6384	3552
147456	6336	2816
151552	624	576
155648	9600	4896
159744	8576	8544
163840	284560	280480
167936	252608	250560
172032	2896	1328
176128	7776	3696
180224	352	320
184320	9216	4960
188416	2816	1440
192512	5152	1872
196608	5792	3440
200704	1664	704
204800	10784	5344
208896	1088	976
212992	6336	2688
217088	3888	2432
221184	4768	2288
225280	8064	4064
229376	864	592
233472	8464	3312
237568	1824	1664
241664	6848	3680
245760	6160	2816
249856	1888	656
253952	7824	3888
258048	976	880
262144	16176	8016
270336	40352	17552
278528	16320	7968
286720	7968	3152
294912	9056	5760
303104	11696	7184
311296	7568	3504
319488	6144	3584
327680	4704	2768
335872	26736	26352
344064	250464	248432
352256	132880	132528
360448	1584	800
368640	2864	1280
376832	832	256
385024	4272	2048
393216	2400	720
401408	5936	1360
409600	2128	1392
417792	768	320
425984	3408	1728
434176	176	144
442368	3760	1680
450560	432	400
458752	3056	1344
466944	1360	1072
475136	1088	624
483328	3136	1648
491520	352	336
499712	3248	1376
507904	528	496
516096	2240	992
524288	2832	1728
540672	3888	2288
557056	4288	1840
573440	4272	2432
589824	3904	2208
606208	3936	1632
622592	2288	1536
638976	3584	2144
655360	3584	2048
671744	4224	2240
688128	4576	2416
704512	3648	1968
720896	3744	1824
737280	2576	1616
753664	3520	1952
770048	3392	2032
786432	4032	1872
802816	4352	2160
819200	3872	1984
835584	3216	1968
851968	3120	1424
868352	3552	2096
884736	4064	2160
901120	3920	1920
917504	3936	2000
933888	3664	1792
950272	3120	1888
966656	3584	1680
983040	3504	1856
999424	4000	2256
1015808	3568	1920
1032192	4400	2352
1048576	6416	3472
1081344	7264	4080
1114112	7616	3728
1146880	6240	3712
1179648	6736	3296
1212416	7776	4448
1245184	8320	3936
1277952	7648	4224
1310720	7008	3904
1343488	7328	3776
1376256	6784	3600
1409024	21744	18000
1441792	41664	38112
1474560	30720	27360
1507328	14048	10160
1540096	14416	10784
1572864	13568	10256
1605632	13728	10096
1638400	14928	11024
1671168	37712	34464
1703936	92144	88864
1736704	34816	30848
1769472	16800	13920
1802240	7776	4928
1835008	145472	141264
1867776	8416	5216
1900544	7408	4304
1933312	9248	5456
1966080	9584	5776
1998848	7648	4416
2031616	8176	5008
2064384	9920	5296
2097152	15312	9360
2162688	18528	10784
2228224	15728	9376
2293760	17232	10720
2359296	17792	10480
2424832	13152	8064
2490368	11776	7040
2555904	8352	6096
2621440	7296	5232
2686976	5344	4608
2752512	600400	600048
2818048	300272	299824
2883584	296880	296384
2949120	4336	3760
3014656	5648	5104
3080192	4272	3728
3145728	4192	3760
3211264	4496	3792
3276800	4752	4288
3342336	4928	4384
3407872	4624	3872
3473408	4304	3808
3538944	4672	4080
3604480	4560	4112
3670016	6080	5744
3735552	4880	4448
3801088	4416	4160
3866624	4720	4368
3932160	4848	4560
3997696	4976	4736
4063232	4752	4096
4128768	4352	4192
4194304	27392	26624
4325376	23520	22752
4456448	9072	8320
4587520	9568	8992
4718592	10656	9856
4849664	9840	8944
4980736	11536	10848
5111808	10368	9888
5242880	10512	10080
5373952	12864	12144
5505024	12032	11104
5636096	13360	12176
5767168	14496	13488
5898240	12400	11072
6029312	14320	13312
6160384	11920	10864
6291456	12016	10864
6422528	13776	12656
6553600	12928	11648
6684672	13984	12928
6815744	12384	11200
6946816	11632	10448
7077888	16992	16016
7208960	20512	19344
7340032	21632	20640
7471104	22080	20944
7602176	20496	19440
7733248	21984	21296
7864320	20512	19744
7995392	22816	21776
8126464	32064	30656
8257536	28832	27296
8388608	64432	61600
8650752	71440	68144
8912896	70624	67088
9175040	77200	73936
9437184	82528	79152
9699328	80864	77536
9961472	66704	63520
10223616	58480	55824
10485760	62944	60160
10747904	61616	58416
11010048	61376	57856
11272192	62992	59184
11534336	65136	60592
11796480	75280	70912
12058624	74032	70160
12320768	58864	55008
12582912	49040	46048
12845056	74272	71104
13107200	51760	47888
13369344	49664	45184
13631488	50768	46448
13893632	54960	50496
14155776	53536	48880
14417920	50048	44960
14680064	47376	41536
14942208	42048	35536
15204352	28256	23136
15466496	22480	17936
15728640	24208	17840
15990784	27520	18944
16252928	26720	17152
16515072	24976	16160
16777216	50512	34112
17301504	51904	32336
17825792	50848	30592
18350080	48240	28384
18874368	44592	25328
19398656	43216	22528
19922944	42208	22560
20447232	42416	26240
20971520	42144	25856
21495808	40352	22448
22020096	38736	21920
22544384	38304	23312
23068672	35872	22544
23592960	36080	22752
24117248	37376	21904
24641536	38144	23360
25165824	36288	21088
25690112	35744	22000
26214400	34208	20480
26738688	40480	24512
27262976	35760	20544
27787264	39408	21216
28311552	33856	19712
28835840	38320	22928
29360128	37408	20368
29884416	37968	22176
30408704	35680	19056
30932992	38816	23984
31457280	35152	19632
31981568	40384	21776
32505856	42272	19600
33030144	45744	24128
33554432	82688	41856
34603008	83024	44320
35651584	75328	42896
36700160	82464	45792
37748736	84544	47104
38797312	79712	43776
39845888	73104	36992
40894464	62992	30000
41943040	56544	23568
42991616	58192	20592
44040192	52176	21280
45088768	50480	21296
46137344	45664	20496
47185920	44512	19152
48234496	42112	18496
49283072	38912	17888
50331648	45104	18704
51380224	40112	16400
52428800	40240	16144
53477376	37808	13968
54525952	36064	14416
55574528	37248	13632
56623104	27760	12336
57671680	25344	11296
58720256	28272	10800
59768832	31104	13152
60817408	31760	13760
61865984	33936	15008
62914560	42880	16800
63963136	46832	17008
65011712	42192	20304
66060288	30272	20480
67108864	294960	215136
69206016	390976	373968
71303168	651600	582208
73400320	508512	463664
75497472	104528	91040
77594624	28016	19328
79691776	13312	11568
81788928	10608	9488
83886080	9152	8368
85983232	9344	8752
88080384	8224	7872
90177536	123296	92640
92274688	7104	6928
94371840	6320	6208
96468992	4720	4640
98566144	4160	3872
100663296	3296	3104
102760448	4384	2416
104857600	6144	1664
106954752	5296	912
109051904	2480	896
111149056	800	704
113246208	736	592
115343360	912	592
117440512	816	528
119537664	688	448
121634816	688	480
123731968	416	288
125829120	336	240
127926272	4304	144
130023424	304	208
132120576	736	112
134217728	2944	128
138412032	11232	1712
142606336	5520	2400
146800640	18016	336
150994944	32	0
155189248	9280	5600
159383552	26816	10880
163577856	64	32
167772160	0	0
171966464	368	368
176160768	2080	2080
180355072	1856	1856
184549376	160	160
188743680	0	0
192937984	0	0
197132288	32	0
201326592	16	0
205520896	0	0
209715200	48	0
213909504	80	0
218103808	80	0
222298112	208	0
226492416	64	0
230686720	8320	2464
234881024	0	0
239075328	0	0
243269632	0	0
247463936	0	0
251658240	0	0
255852544	0	0
260046848	0	0
264241152	0	0
268435456	0	0
276824064	0	0
285212672	0	0
293601280	0	0
301989888	0	0
310378496	0	0
318767104	0	0
327155712	0	0
335544320	0	0
343932928	0	0
352321536	0	0
360710144	0	0
369098752	0	0
377487360	0	0
385875968	0	0
394264576	0	0
402653184	0	0
411041792	0	0
419430400	0	0
427819008	0	0
436207616	0	0
444596224	0	0
452984832	0	0
461373440	0	0
469762048	0	0
478150656	0	0
486539264	0	0
494927872	0	0
503316480	0	0
511705088	0	0
520093696	0	0
528482304	0	0
536870912	0	0
553648128	0	0
570425344	0	0
587202560	0	0
603979776	0	0
620756992	0	0
637534208	0	0
654311424	0	0
671088640	0	0
687865856	0	0
704643072	0	0
721420288	0	0
738197504	0	0
754974720	0	0
771751936	0	0
788529152	0	0
805306368	0	0
822083584	0	0
838860800	0	0
855638016	0	0
872415232	0	0
889192448	0	0
905969664	0	0
922746880	0	0
939524096	0	0
956301312	0	0
973078528	0	0
989855744	0	0
1006632960	0	0
1023410176	0	0
1040187392	0	0
1056964608	0	0
1073741824	0	0
1107296256	0	0
1140850688	0	0
1174405120	0	0
1207959552	0	0
1241513984	0	0
1275068416	0	0
1308622848	0	0
1342177280	0	0
1375731712	0	0
1409286144	0	0
1442840576	0	0
1476395008	0	0
1509949440	0	0
1543503872	0	0
1577058304	0	0
1610612736	0	0
1644167168	0	0
1677721600	0	0
1711276032	0	0
1744830464	0	0
1778384896	0	0
1811939328	0	0
1845493760	0	0
1879048192	0	0
1912602624	0	0
1946157056	0	0
1979711488	0	0
2013265920	0	0
2046820352	0	0
2080374784	0	0
2113929216	0	0
2147483648	0	0
2214592512	0	0
2281701376	0	0
2348810240	0	0
2415919104	0	0
2483027968	0	0
2550136832	0	0
2617245696	0	0
2684354560	0	0
2751463424	0	0
2818572288	0	0
2885681152	0	0
2952790016	0	0
3019898880	0	0
3087007744	0	0
3154116608	0	0
3221225472	0	0
3288334336	0	0
3355443200	0	0
3422552064	0	0
3489660928	0	0
3556769792	0	0
3623878656	0	0
3690987520	0	0
3758096384	0	0
3825205248	0	0
3892314112	0	0
3959422976	0	0
4026531840	0	0
4093640704	0	0
4160749568	0	0
4227858432	0	0
~~~~~~~~~~Reuse Distance Profiler output end~~~~~~~~~~

Sampler size:76642

DRAM Statistics
 CHANNEL 0
 RQ ROW_BUFFER_HIT:     449326  ROW_BUFFER_MISS:    9411363
 DBUS AVG_CONGESTED_CYCLE:    3.95931
 WQ ROW_BUFFER_HIT:     265364  ROW_BUFFER_MISS:    2662276  FULL:          0


CPU 0 Branch Prediction Accuracy: 98.2871% MPKI: 0.417234 Average ROB Occupancy at Mispredict: 314.001
Branch type MPKI
BRANCH_DIRECT_JUMP: 3.73333e-05
BRANCH_INDIRECT: 0
BRANCH_CONDITIONAL: 0.417039
BRANCH_DIRECT_CALL: 8e-05
BRANCH_INDIRECT_CALL: 0
BRANCH_RETURN: 7.73333e-05

