
*** ChampSim Multicore Out-of-Order Simulator ***

Warmup Instructions: 50000000
Simulation Instructions: 1500000000
Number of CPUs: 1
Off-chip DRAM Size: 4 GiB Channels: 1 Width: 64-bit Data Rate: 3200 MT/s

VirtualMemory physical capacity: 8588881920 num_ppages: 2096895
VirtualMemory page size: 4096 log2_page_size: 12

CPU 0 runs /s/traces/champsim_traces/437.leslie3d-265B.champsimtrace.xz
CPU 0 Bimodal branch predictor
Basic BTB sets: 1024 ways: 8 indirect buffer size: 4096 RAS size: 64
Initializing LRU.
Initializing LRU.
Initializing LRU.
Initializing LRU.
Initializing rdLRU.
Initializing LRU.
Heartbeat CPU 0 instructions: 2000000 cycles: 758067 heartbeat IPC: 2.63829 cumulative IPC: 2.63829 (Simulation time: 0 hr 1 min 11 sec) 
Heartbeat CPU 0 instructions: 4000000 cycles: 1516086 heartbeat IPC: 2.63846 cumulative IPC: 2.63837 (Simulation time: 0 hr 2 min 20 sec) 
Heartbeat CPU 0 instructions: 6000002 cycles: 2274111 heartbeat IPC: 2.63844 cumulative IPC: 2.63839 (Simulation time: 0 hr 3 min 30 sec) 
Heartbeat CPU 0 instructions: 8000002 cycles: 3031905 heartbeat IPC: 2.63924 cumulative IPC: 2.63861 (Simulation time: 0 hr 4 min 39 sec) 
Heartbeat CPU 0 instructions: 10000003 cycles: 3789767 heartbeat IPC: 2.639 cumulative IPC: 2.63869 (Simulation time: 0 hr 5 min 47 sec) 
Heartbeat CPU 0 instructions: 12000003 cycles: 4547581 heartbeat IPC: 2.63917 cumulative IPC: 2.63877 (Simulation time: 0 hr 6 min 57 sec) 
Heartbeat CPU 0 instructions: 14000001 cycles: 5304856 heartbeat IPC: 2.64105 cumulative IPC: 2.63909 (Simulation time: 0 hr 8 min 6 sec) 
Heartbeat CPU 0 instructions: 16000001 cycles: 6062107 heartbeat IPC: 2.64113 cumulative IPC: 2.63935 (Simulation time: 0 hr 9 min 15 sec) 
Heartbeat CPU 0 instructions: 18000002 cycles: 6819503 heartbeat IPC: 2.64063 cumulative IPC: 2.63949 (Simulation time: 0 hr 10 min 24 sec) 
Heartbeat CPU 0 instructions: 20000002 cycles: 7576969 heartbeat IPC: 2.64038 cumulative IPC: 2.63958 (Simulation time: 0 hr 11 min 33 sec) 
Heartbeat CPU 0 instructions: 22000001 cycles: 8334441 heartbeat IPC: 2.64036 cumulative IPC: 2.63965 (Simulation time: 0 hr 12 min 44 sec) 
Heartbeat CPU 0 instructions: 24000002 cycles: 9092432 heartbeat IPC: 2.63856 cumulative IPC: 2.63956 (Simulation time: 0 hr 13 min 53 sec) 
Heartbeat CPU 0 instructions: 26000003 cycles: 9849930 heartbeat IPC: 2.64027 cumulative IPC: 2.63961 (Simulation time: 0 hr 15 min 1 sec) 
Heartbeat CPU 0 instructions: 28000002 cycles: 10607563 heartbeat IPC: 2.6398 cumulative IPC: 2.63963 (Simulation time: 0 hr 16 min 10 sec) 
Heartbeat CPU 0 instructions: 30000001 cycles: 11365454 heartbeat IPC: 2.6389 cumulative IPC: 2.63958 (Simulation time: 0 hr 17 min 19 sec) 
Heartbeat CPU 0 instructions: 32000002 cycles: 12123402 heartbeat IPC: 2.6387 cumulative IPC: 2.63952 (Simulation time: 0 hr 18 min 29 sec) 
Heartbeat CPU 0 instructions: 34000004 cycles: 12881422 heartbeat IPC: 2.63846 cumulative IPC: 2.63946 (Simulation time: 0 hr 19 min 38 sec) 
Heartbeat CPU 0 instructions: 36000004 cycles: 13639442 heartbeat IPC: 2.63845 cumulative IPC: 2.6394 (Simulation time: 0 hr 20 min 53 sec) 
Heartbeat CPU 0 instructions: 38000003 cycles: 14397232 heartbeat IPC: 2.63925 cumulative IPC: 2.6394 (Simulation time: 0 hr 22 min 4 sec) 
Heartbeat CPU 0 instructions: 40000004 cycles: 15155090 heartbeat IPC: 2.63902 cumulative IPC: 2.63938 (Simulation time: 0 hr 23 min 16 sec) 
Heartbeat CPU 0 instructions: 42000000 cycles: 15912897 heartbeat IPC: 2.63919 cumulative IPC: 2.63937 (Simulation time: 0 hr 24 min 21 sec) 
Heartbeat CPU 0 instructions: 44000000 cycles: 16670151 heartbeat IPC: 2.64112 cumulative IPC: 2.63945 (Simulation time: 0 hr 25 min 30 sec) 
Heartbeat CPU 0 instructions: 46000000 cycles: 17427402 heartbeat IPC: 2.64113 cumulative IPC: 2.63952 (Simulation time: 0 hr 26 min 42 sec) 
Heartbeat CPU 0 instructions: 48000002 cycles: 18184810 heartbeat IPC: 2.64059 cumulative IPC: 2.63957 (Simulation time: 0 hr 27 min 53 sec) 
Heartbeat CPU 0 instructions: 50000001 cycles: 18942280 heartbeat IPC: 2.64037 cumulative IPC: 2.6396 (Simulation time: 0 hr 29 min 4 sec) 

Warmup complete CPU 0 instructions: 50000001 cycles: 18942280 (Simulation time: 0 hr 29 min 4 sec) 

Heartbeat CPU 0 instructions: 52000001 cycles: 20263131 heartbeat IPC: 1.51418 cumulative IPC: 1.51418 (Simulation time: 0 hr 30 min 39 sec) 

Region of Interest Statistics
cpu0_DTLB TOTAL     ACCESS:     514663  HIT:     514245  MISS:        418
cpu0_DTLB LOAD      ACCESS:     465653  HIT:     465335  MISS:        318
cpu0_DTLB RFO       ACCESS:      49010  HIT:      48910  MISS:        100
cpu0_DTLB PREFETCH  ACCESS:          0  HIT:          0  MISS:          0
cpu0_DTLB WRITEBACK ACCESS:          0  HIT:          0  MISS:          0
cpu0_ITLB TOTAL     ACCESS:      20832  HIT:      20832  MISS:          0
cpu0_ITLB LOAD      ACCESS:      20832  HIT:      20832  MISS:          0
cpu0_ITLB RFO       ACCESS:          0  HIT:          0  MISS:          0
cpu0_ITLB PREFETCH  ACCESS:          0  HIT:          0  MISS:          0
cpu0_ITLB WRITEBACK ACCESS:          0  HIT:          0  MISS:          0
cpu0_L1I TOTAL     ACCESS:       7107  HIT:       7107  MISS:          0
cpu0_L1I LOAD      ACCESS:       7107  HIT:       7107  MISS:          0
cpu0_L1I RFO       ACCESS:          0  HIT:          0  MISS:          0
cpu0_L1I PREFETCH  ACCESS:          0  HIT:          0  MISS:          0
cpu0_L1I WRITEBACK ACCESS:          0  HIT:          0  MISS:          0
cpu0_STLB TOTAL     ACCESS:        418  HIT:        306  MISS:        112
cpu0_STLB LOAD      ACCESS:        318  HIT:        235  MISS:         83
cpu0_STLB RFO       ACCESS:        100  HIT:         71  MISS:         29
cpu0_STLB PREFETCH  ACCESS:          0  HIT:          0  MISS:          0
cpu0_STLB WRITEBACK ACCESS:          0  HIT:          0  MISS:          0
cpu0_L1D TOTAL     ACCESS:     556997  HIT:     539680  MISS:      17317
cpu0_L1D LOAD      ACCESS:     487108  HIT:     473364  MISS:      13744
cpu0_L1D RFO       ACCESS:      69781  HIT:      66249  MISS:       3532
cpu0_L1D PREFETCH  ACCESS:          0  HIT:          0  MISS:          0
cpu0_L1D WRITEBACK ACCESS:          0  HIT:          0  MISS:          0
cpu0_L2C TOTAL     ACCESS:      22034  HIT:      10804  MISS:      11230
cpu0_L2C LOAD      ACCESS:      13744  HIT:       4324  MISS:       9420
cpu0_L2C RFO       ACCESS:       3532  HIT:       1722  MISS:       1810
cpu0_L2C PREFETCH  ACCESS:          0  HIT:          0  MISS:          0
cpu0_L2C WRITEBACK ACCESS:       4717  HIT:       4717  MISS:          0
LLC TOTAL     ACCESS:      13009  HIT:       5723  MISS:       7286
LLC LOAD      ACCESS:       9420  HIT:       3944  MISS:       5476
LLC RFO       ACCESS:       1810  HIT:          0  MISS:       1810
LLC PREFETCH  ACCESS:          0  HIT:          0  MISS:          0
LLC WRITEBACK ACCESS:       1779  HIT:       1779  MISS:          0
Heartbeat CPU 0 instructions: 54000004 cycles: 21578330 heartbeat IPC: 1.52068 cumulative IPC: 1.51742 (Simulation time: 0 hr 32 min 13 sec) 

Region of Interest Statistics
cpu0_DTLB TOTAL     ACCESS:    1030781  HIT:    1029883  MISS:        898
cpu0_DTLB LOAD      ACCESS:     932847  HIT:     932156  MISS:        691
cpu0_DTLB RFO       ACCESS:      97934  HIT:      97727  MISS:        207
cpu0_DTLB PREFETCH  ACCESS:          0  HIT:          0  MISS:          0
cpu0_DTLB WRITEBACK ACCESS:          0  HIT:          0  MISS:          0
cpu0_ITLB TOTAL     ACCESS:      41088  HIT:      41088  MISS:          0
cpu0_ITLB LOAD      ACCESS:      41088  HIT:      41088  MISS:          0
cpu0_ITLB RFO       ACCESS:          0  HIT:          0  MISS:          0
cpu0_ITLB PREFETCH  ACCESS:          0  HIT:          0  MISS:          0
cpu0_ITLB WRITEBACK ACCESS:          0  HIT:          0  MISS:          0
cpu0_L1I TOTAL     ACCESS:      13905  HIT:      13905  MISS:          0
cpu0_L1I LOAD      ACCESS:      13905  HIT:      13905  MISS:          0
cpu0_L1I RFO       ACCESS:          0  HIT:          0  MISS:          0
cpu0_L1I PREFETCH  ACCESS:          0  HIT:          0  MISS:          0
cpu0_L1I WRITEBACK ACCESS:          0  HIT:          0  MISS:          0
cpu0_STLB TOTAL     ACCESS:        898  HIT:        685  MISS:        213
cpu0_STLB LOAD      ACCESS:        691  HIT:        535  MISS:        156
cpu0_STLB RFO       ACCESS:        207  HIT:        150  MISS:         57
cpu0_STLB PREFETCH  ACCESS:          0  HIT:          0  MISS:          0
cpu0_STLB WRITEBACK ACCESS:          0  HIT:          0  MISS:          0
cpu0_L1D TOTAL     ACCESS:    1116476  HIT:    1081959  MISS:      34517
cpu0_L1D LOAD      ACCESS:     976499  HIT:     949046  MISS:      27453
cpu0_L1D RFO       ACCESS:     139771  HIT:     132782  MISS:       6989
cpu0_L1D PREFETCH  ACCESS:          0  HIT:          0  MISS:          0
cpu0_L1D WRITEBACK ACCESS:          0  HIT:          0  MISS:          0
cpu0_L2C TOTAL     ACCESS:      43896  HIT:      21467  MISS:      22429
cpu0_L2C LOAD      ACCESS:      27453  HIT:       8644  MISS:      18809
cpu0_L2C RFO       ACCESS:       6989  HIT:       3369  MISS:       3620
cpu0_L2C PREFETCH  ACCESS:          0  HIT:          0  MISS:          0
cpu0_L2C WRITEBACK ACCESS:       9379  HIT:       9379  MISS:          0
LLC TOTAL     ACCESS:      25920  HIT:      11590  MISS:      14330
LLC LOAD      ACCESS:      18809  HIT:       8099  MISS:      10710
LLC RFO       ACCESS:       3620  HIT:          0  MISS:       3620
LLC PREFETCH  ACCESS:          0  HIT:          0  MISS:          0
LLC WRITEBACK ACCESS:       3491  HIT:       3491  MISS:          0
Heartbeat CPU 0 instructions: 56000001 cycles: 22903045 heartbeat IPC: 1.50976 cumulative IPC: 1.51486 (Simulation time: 0 hr 33 min 47 sec) 

Region of Interest Statistics
cpu0_DTLB TOTAL     ACCESS:    1546805  HIT:    1545406  MISS:       1399
cpu0_DTLB LOAD      ACCESS:    1399798  HIT:    1398713  MISS:       1085
cpu0_DTLB RFO       ACCESS:     147007  HIT:     146693  MISS:        314
cpu0_DTLB PREFETCH  ACCESS:          0  HIT:          0  MISS:          0
cpu0_DTLB WRITEBACK ACCESS:          0  HIT:          0  MISS:          0
cpu0_ITLB TOTAL     ACCESS:      61939  HIT:      61939  MISS:          0
cpu0_ITLB LOAD      ACCESS:      61939  HIT:      61939  MISS:          0
cpu0_ITLB RFO       ACCESS:          0  HIT:          0  MISS:          0
cpu0_ITLB PREFETCH  ACCESS:          0  HIT:          0  MISS:          0
cpu0_ITLB WRITEBACK ACCESS:          0  HIT:          0  MISS:          0
cpu0_L1I TOTAL     ACCESS:      21012  HIT:      21012  MISS:          0
cpu0_L1I LOAD      ACCESS:      21012  HIT:      21012  MISS:          0
cpu0_L1I RFO       ACCESS:          0  HIT:          0  MISS:          0
cpu0_L1I PREFETCH  ACCESS:          0  HIT:          0  MISS:          0
cpu0_L1I WRITEBACK ACCESS:          0  HIT:          0  MISS:          0
cpu0_STLB TOTAL     ACCESS:       1399  HIT:       1076  MISS:        323
cpu0_STLB LOAD      ACCESS:       1085  HIT:        847  MISS:        238
cpu0_STLB RFO       ACCESS:        314  HIT:        229  MISS:         85
cpu0_STLB PREFETCH  ACCESS:          0  HIT:          0  MISS:          0
cpu0_STLB WRITEBACK ACCESS:          0  HIT:          0  MISS:          0
cpu0_L1D TOTAL     ACCESS:    1674782  HIT:    1622998  MISS:      51784
cpu0_L1D LOAD      ACCESS:    1465077  HIT:    1424005  MISS:      41072
cpu0_L1D RFO       ACCESS:     209393  HIT:     198791  MISS:      10602
cpu0_L1D PREFETCH  ACCESS:          0  HIT:          0  MISS:          0
cpu0_L1D WRITEBACK ACCESS:          0  HIT:          0  MISS:          0
cpu0_L2C TOTAL     ACCESS:      65895  HIT:      32334  MISS:      33561
cpu0_L2C LOAD      ACCESS:      41070  HIT:      12940  MISS:      28130
cpu0_L2C RFO       ACCESS:      10601  HIT:       5170  MISS:       5431
cpu0_L2C PREFETCH  ACCESS:          0  HIT:          0  MISS:          0
cpu0_L2C WRITEBACK ACCESS:      14114  HIT:      14114  MISS:          0
LLC TOTAL     ACCESS:      38720  HIT:      17420  MISS:      21300
LLC LOAD      ACCESS:      28130  HIT:      12260  MISS:      15870
LLC RFO       ACCESS:       5431  HIT:          1  MISS:       5430
LLC PREFETCH  ACCESS:          0  HIT:          0  MISS:          0
LLC WRITEBACK ACCESS:       5159  HIT:       5159  MISS:          0
Heartbeat CPU 0 instructions: 58000000 cycles: 24224094 heartbeat IPC: 1.51395 cumulative IPC: 1.51463 (Simulation time: 0 hr 35 min 21 sec) 

Region of Interest Statistics
cpu0_DTLB TOTAL     ACCESS:    2061434  HIT:    2059642  MISS:       1792
cpu0_DTLB LOAD      ACCESS:    1865550  HIT:    1864170  MISS:       1380
cpu0_DTLB RFO       ACCESS:     195884  HIT:     195472  MISS:        412
cpu0_DTLB PREFETCH  ACCESS:          0  HIT:          0  MISS:          0
cpu0_DTLB WRITEBACK ACCESS:          0  HIT:          0  MISS:          0
cpu0_ITLB TOTAL     ACCESS:      82615  HIT:      82615  MISS:          0
cpu0_ITLB LOAD      ACCESS:      82615  HIT:      82615  MISS:          0
cpu0_ITLB RFO       ACCESS:          0  HIT:          0  MISS:          0
cpu0_ITLB PREFETCH  ACCESS:          0  HIT:          0  MISS:          0
cpu0_ITLB WRITEBACK ACCESS:          0  HIT:          0  MISS:          0
cpu0_L1I TOTAL     ACCESS:      28119  HIT:      28119  MISS:          0
cpu0_L1I LOAD      ACCESS:      28119  HIT:      28119  MISS:          0
cpu0_L1I RFO       ACCESS:          0  HIT:          0  MISS:          0
cpu0_L1I PREFETCH  ACCESS:          0  HIT:          0  MISS:          0
cpu0_L1I WRITEBACK ACCESS:          0  HIT:          0  MISS:          0
cpu0_STLB TOTAL     ACCESS:       1792  HIT:       1360  MISS:        432
cpu0_STLB LOAD      ACCESS:       1380  HIT:       1062  MISS:        318
cpu0_STLB RFO       ACCESS:        412  HIT:        298  MISS:        114
cpu0_STLB PREFETCH  ACCESS:          0  HIT:          0  MISS:          0
cpu0_STLB WRITEBACK ACCESS:          0  HIT:          0  MISS:          0
cpu0_L1D TOTAL     ACCESS:    2232212  HIT:    2163176  MISS:      69036
cpu0_L1D LOAD      ACCESS:    1952551  HIT:    1897758  MISS:      54793
cpu0_L1D RFO       ACCESS:     279244  HIT:     265151  MISS:      14093
cpu0_L1D PREFETCH  ACCESS:          0  HIT:          0  MISS:          0
cpu0_L1D WRITEBACK ACCESS:          0  HIT:          0  MISS:          0
cpu0_L2C TOTAL     ACCESS:      87844  HIT:      43112  MISS:      44732
cpu0_L2C LOAD      ACCESS:      54791  HIT:      17309  MISS:      37482
cpu0_L2C RFO       ACCESS:      14092  HIT:       6843  MISS:       7249
cpu0_L2C PREFETCH  ACCESS:          0  HIT:          0  MISS:          0
cpu0_L2C WRITEBACK ACCESS:      18811  HIT:      18810  MISS:          1
LLC TOTAL     ACCESS:      51867  HIT:      23487  MISS:      28380
LLC LOAD      ACCESS:      37482  HIT:      16347  MISS:      21135
LLC RFO       ACCESS:       7249  HIT:          4  MISS:       7245
LLC PREFETCH  ACCESS:          0  HIT:          0  MISS:          0
LLC WRITEBACK ACCESS:       7136  HIT:       7136  MISS:          0
Heartbeat CPU 0 instructions: 60000002 cycles: 25580522 heartbeat IPC: 1.47446 cumulative IPC: 1.50642 (Simulation time: 0 hr 36 min 57 sec) 

Region of Interest Statistics
cpu0_DTLB TOTAL     ACCESS:    2576570  HIT:    2574222  MISS:       2348
cpu0_DTLB LOAD      ACCESS:    2331967  HIT:    2330146  MISS:       1821
cpu0_DTLB RFO       ACCESS:     244603  HIT:     244076  MISS:        527
cpu0_DTLB PREFETCH  ACCESS:          0  HIT:          0  MISS:          0
cpu0_DTLB WRITEBACK ACCESS:          0  HIT:          0  MISS:          0
cpu0_ITLB TOTAL     ACCESS:     103725  HIT:     103725  MISS:          0
cpu0_ITLB LOAD      ACCESS:     103725  HIT:     103725  MISS:          0
cpu0_ITLB RFO       ACCESS:          0  HIT:          0  MISS:          0
cpu0_ITLB PREFETCH  ACCESS:          0  HIT:          0  MISS:          0
cpu0_ITLB WRITEBACK ACCESS:          0  HIT:          0  MISS:          0
cpu0_L1I TOTAL     ACCESS:      35226  HIT:      35226  MISS:          0
cpu0_L1I LOAD      ACCESS:      35226  HIT:      35226  MISS:          0
cpu0_L1I RFO       ACCESS:          0  HIT:          0  MISS:          0
cpu0_L1I PREFETCH  ACCESS:          0  HIT:          0  MISS:          0
cpu0_L1I WRITEBACK ACCESS:          0  HIT:          0  MISS:          0
cpu0_STLB TOTAL     ACCESS:       2348  HIT:       1786  MISS:        562
cpu0_STLB LOAD      ACCESS:       1821  HIT:       1405  MISS:        416
cpu0_STLB RFO       ACCESS:        527  HIT:        381  MISS:        146
cpu0_STLB PREFETCH  ACCESS:          0  HIT:          0  MISS:          0
cpu0_STLB WRITEBACK ACCESS:          0  HIT:          0  MISS:          0
cpu0_L1D TOTAL     ACCESS:    2789136  HIT:    2702722  MISS:      86414
cpu0_L1D LOAD      ACCESS:    2439498  HIT:    2370903  MISS:      68595
cpu0_L1D RFO       ACCESS:     349099  HIT:     331465  MISS:      17634
cpu0_L1D PREFETCH  ACCESS:          0  HIT:          0  MISS:          0
cpu0_L1D WRITEBACK ACCESS:          0  HIT:          0  MISS:          0
cpu0_L2C TOTAL     ACCESS:     109898  HIT:      53759  MISS:      56139
cpu0_L2C LOAD      ACCESS:      68593  HIT:      21521  MISS:      47072
cpu0_L2C RFO       ACCESS:      17633  HIT:       8574  MISS:       9059
cpu0_L2C PREFETCH  ACCESS:          0  HIT:          0  MISS:          0
cpu0_L2C WRITEBACK ACCESS:      23487  HIT:      23479  MISS:          8
LLC TOTAL     ACCESS:      64964  HIT:      29269  MISS:      35695
LLC LOAD      ACCESS:      47072  HIT:      20439  MISS:      26633
LLC RFO       ACCESS:       9059  HIT:          4  MISS:       9055
LLC PREFETCH  ACCESS:          0  HIT:          0  MISS:          0
LLC WRITEBACK ACCESS:       8833  HIT:       8826  MISS:          7
Heartbeat CPU 0 instructions: 62000001 cycles: 26925251 heartbeat IPC: 1.48729 cumulative IPC: 1.5032 (Simulation time: 0 hr 38 min 34 sec) 

Region of Interest Statistics
cpu0_DTLB TOTAL     ACCESS:    3090389  HIT:    3087599  MISS:       2790
cpu0_DTLB LOAD      ACCESS:    2797097  HIT:    2794942  MISS:       2155
cpu0_DTLB RFO       ACCESS:     293292  HIT:     292657  MISS:        635
cpu0_DTLB PREFETCH  ACCESS:          0  HIT:          0  MISS:          0
cpu0_DTLB WRITEBACK ACCESS:          0  HIT:          0  MISS:          0
cpu0_ITLB TOTAL     ACCESS:     124620  HIT:     124620  MISS:          0
cpu0_ITLB LOAD      ACCESS:     124620  HIT:     124620  MISS:          0
cpu0_ITLB RFO       ACCESS:          0  HIT:          0  MISS:          0
cpu0_ITLB PREFETCH  ACCESS:          0  HIT:          0  MISS:          0
cpu0_ITLB WRITEBACK ACCESS:          0  HIT:          0  MISS:          0
cpu0_L1I TOTAL     ACCESS:      42339  HIT:      42339  MISS:          0
cpu0_L1I LOAD      ACCESS:      42339  HIT:      42339  MISS:          0
cpu0_L1I RFO       ACCESS:          0  HIT:          0  MISS:          0
cpu0_L1I PREFETCH  ACCESS:          0  HIT:          0  MISS:          0
cpu0_L1I WRITEBACK ACCESS:          0  HIT:          0  MISS:          0
cpu0_STLB TOTAL     ACCESS:       2790  HIT:       2126  MISS:        664
cpu0_STLB LOAD      ACCESS:       2155  HIT:       1665  MISS:        490
cpu0_STLB RFO       ACCESS:        635  HIT:        461  MISS:        174
cpu0_STLB PREFETCH  ACCESS:          0  HIT:          0  MISS:          0
cpu0_STLB WRITEBACK ACCESS:          0  HIT:          0  MISS:          0
cpu0_L1D TOTAL     ACCESS:    3344826  HIT:    3241103  MISS:     103723
cpu0_L1D LOAD      ACCESS:    2925506  HIT:    2843211  MISS:      82295
cpu0_L1D RFO       ACCESS:     418684  HIT:     397481  MISS:      21203
cpu0_L1D PREFETCH  ACCESS:          0  HIT:          0  MISS:          0
cpu0_L1D WRITEBACK ACCESS:          0  HIT:          0  MISS:          0
cpu0_L2C TOTAL     ACCESS:     131955  HIT:      64602  MISS:      67353
cpu0_L2C LOAD      ACCESS:      82293  HIT:      25823  MISS:      56470
cpu0_L2C RFO       ACCESS:      21202  HIT:      10328  MISS:      10874
cpu0_L2C PREFETCH  ACCESS:          0  HIT:          0  MISS:          0
cpu0_L2C WRITEBACK ACCESS:      28235  HIT:      28226  MISS:          9
LLC TOTAL     ACCESS:      78161  HIT:      35135  MISS:      43026
LLC LOAD      ACCESS:      56470  HIT:      24322  MISS:      32148
LLC RFO       ACCESS:      10874  HIT:          4  MISS:      10870
LLC PREFETCH  ACCESS:          0  HIT:          0  MISS:          0
LLC WRITEBACK ACCESS:      10817  HIT:      10809  MISS:          8
Heartbeat CPU 0 instructions: 64000004 cycles: 28245568 heartbeat IPC: 1.51479 cumulative IPC: 1.50484 (Simulation time: 0 hr 40 min 9 sec) 

Region of Interest Statistics
cpu0_DTLB TOTAL     ACCESS:    3605899  HIT:    3602673  MISS:       3226
cpu0_DTLB LOAD      ACCESS:    3263667  HIT:    3261178  MISS:       2489
cpu0_DTLB RFO       ACCESS:     342232  HIT:     341495  MISS:        737
cpu0_DTLB PREFETCH  ACCESS:          0  HIT:          0  MISS:          0
cpu0_DTLB WRITEBACK ACCESS:          0  HIT:          0  MISS:          0
cpu0_ITLB TOTAL     ACCESS:     145766  HIT:     145766  MISS:          0
cpu0_ITLB LOAD      ACCESS:     145766  HIT:     145766  MISS:          0
cpu0_ITLB RFO       ACCESS:          0  HIT:          0  MISS:          0
cpu0_ITLB PREFETCH  ACCESS:          0  HIT:          0  MISS:          0
cpu0_ITLB WRITEBACK ACCESS:          0  HIT:          0  MISS:          0
cpu0_L1I TOTAL     ACCESS:      49446  HIT:      49446  MISS:          0
cpu0_L1I LOAD      ACCESS:      49446  HIT:      49446  MISS:          0
cpu0_L1I RFO       ACCESS:          0  HIT:          0  MISS:          0
cpu0_L1I PREFETCH  ACCESS:          0  HIT:          0  MISS:          0
cpu0_L1I WRITEBACK ACCESS:          0  HIT:          0  MISS:          0
cpu0_STLB TOTAL     ACCESS:       3226  HIT:       2452  MISS:        774
cpu0_STLB LOAD      ACCESS:       2489  HIT:       1917  MISS:        572
cpu0_STLB RFO       ACCESS:        737  HIT:        535  MISS:        202
cpu0_STLB PREFETCH  ACCESS:          0  HIT:          0  MISS:          0
cpu0_STLB WRITEBACK ACCESS:          0  HIT:          0  MISS:          0
cpu0_L1D TOTAL     ACCESS:    3902714  HIT:    3781682  MISS:     121032
cpu0_L1D LOAD      ACCESS:    3413449  HIT:    3317379  MISS:      96070
cpu0_L1D RFO       ACCESS:     488524  HIT:     463822  MISS:      24702
cpu0_L1D PREFETCH  ACCESS:          0  HIT:          0  MISS:          0
cpu0_L1D WRITEBACK ACCESS:          0  HIT:          0  MISS:          0
cpu0_L2C TOTAL     ACCESS:     153925  HIT:      75367  MISS:      78558
cpu0_L2C LOAD      ACCESS:      96068  HIT:      30203  MISS:      65865
cpu0_L2C RFO       ACCESS:      24701  HIT:      12017  MISS:      12684
cpu0_L2C PREFETCH  ACCESS:          0  HIT:          0  MISS:          0
cpu0_L2C WRITEBACK ACCESS:      32896  HIT:      32887  MISS:          9
LLC TOTAL     ACCESS:      90970  HIT:      40835  MISS:      50135
LLC LOAD      ACCESS:      65865  HIT:      28418  MISS:      37447
LLC RFO       ACCESS:      12684  HIT:          4  MISS:      12680
LLC PREFETCH  ACCESS:          0  HIT:          0  MISS:          0
LLC WRITEBACK ACCESS:      12421  HIT:      12413  MISS:          8
Heartbeat CPU 0 instructions: 66000001 cycles: 29567652 heartbeat IPC: 1.51276 cumulative IPC: 1.50583 (Simulation time: 0 hr 41 min 44 sec) 

Region of Interest Statistics
cpu0_DTLB TOTAL     ACCESS:    4120526  HIT:    4116796  MISS:       3730
cpu0_DTLB LOAD      ACCESS:    3729243  HIT:    3726358  MISS:       2885
cpu0_DTLB RFO       ACCESS:     391283  HIT:     390438  MISS:        845
cpu0_DTLB PREFETCH  ACCESS:          0  HIT:          0  MISS:          0
cpu0_DTLB WRITEBACK ACCESS:          0  HIT:          0  MISS:          0
cpu0_ITLB TOTAL     ACCESS:     166796  HIT:     166796  MISS:          0
cpu0_ITLB LOAD      ACCESS:     166796  HIT:     166796  MISS:          0
cpu0_ITLB RFO       ACCESS:          0  HIT:          0  MISS:          0
cpu0_ITLB PREFETCH  ACCESS:          0  HIT:          0  MISS:          0
cpu0_ITLB WRITEBACK ACCESS:          0  HIT:          0  MISS:          0
cpu0_L1I TOTAL     ACCESS:      56553  HIT:      56553  MISS:          0
cpu0_L1I LOAD      ACCESS:      56553  HIT:      56553  MISS:          0
cpu0_L1I RFO       ACCESS:          0  HIT:          0  MISS:          0
cpu0_L1I PREFETCH  ACCESS:          0  HIT:          0  MISS:          0
cpu0_L1I WRITEBACK ACCESS:          0  HIT:          0  MISS:          0
cpu0_STLB TOTAL     ACCESS:       3730  HIT:       2852  MISS:        878
cpu0_STLB LOAD      ACCESS:       2885  HIT:       2238  MISS:        647
cpu0_STLB RFO       ACCESS:        845  HIT:        614  MISS:        231
cpu0_STLB PREFETCH  ACCESS:          0  HIT:          0  MISS:          0
cpu0_STLB WRITEBACK ACCESS:          0  HIT:          0  MISS:          0
cpu0_L1D TOTAL     ACCESS:    4459995  HIT:    4321631  MISS:     138364
cpu0_L1D LOAD      ACCESS:    3900978  HIT:    3791211  MISS:     109767
cpu0_L1D RFO       ACCESS:     558175  HIT:     529874  MISS:      28301
cpu0_L1D PREFETCH  ACCESS:          0  HIT:          0  MISS:          0
cpu0_L1D WRITEBACK ACCESS:          0  HIT:          0  MISS:          0
cpu0_L2C TOTAL     ACCESS:     175995  HIT:      86230  MISS:      89765
cpu0_L2C LOAD      ACCESS:     109765  HIT:      34503  MISS:      75262
cpu0_L2C RFO       ACCESS:      28299  HIT:      13805  MISS:      14494
cpu0_L2C PREFETCH  ACCESS:          0  HIT:          0  MISS:          0
cpu0_L2C WRITEBACK ACCESS:      37635  HIT:      37626  MISS:          9
LLC TOTAL     ACCESS:     104113  HIT:      46804  MISS:      57309
LLC LOAD      ACCESS:      75262  HIT:      32486  MISS:      42776
LLC RFO       ACCESS:      14494  HIT:          4  MISS:      14490
LLC PREFETCH  ACCESS:          0  HIT:          0  MISS:          0
LLC WRITEBACK ACCESS:      14357  HIT:      14314  MISS:         43
Heartbeat CPU 0 instructions: 68000002 cycles: 30894981 heartbeat IPC: 1.50679 cumulative IPC: 1.50594 (Simulation time: 0 hr 43 min 18 sec) 

Region of Interest Statistics
cpu0_DTLB TOTAL     ACCESS:    4635124  HIT:    4630948  MISS:       4176
cpu0_DTLB LOAD      ACCESS:    4194681  HIT:    4191456  MISS:       3225
cpu0_DTLB RFO       ACCESS:     440443  HIT:     439492  MISS:        951
cpu0_DTLB PREFETCH  ACCESS:          0  HIT:          0  MISS:          0
cpu0_DTLB WRITEBACK ACCESS:          0  HIT:          0  MISS:          0
cpu0_ITLB TOTAL     ACCESS:     187657  HIT:     187657  MISS:          0
cpu0_ITLB LOAD      ACCESS:     187657  HIT:     187657  MISS:          0
cpu0_ITLB RFO       ACCESS:          0  HIT:          0  MISS:          0
cpu0_ITLB PREFETCH  ACCESS:          0  HIT:          0  MISS:          0
cpu0_ITLB WRITEBACK ACCESS:          0  HIT:          0  MISS:          0
cpu0_L1I TOTAL     ACCESS:      63660  HIT:      63660  MISS:          0
cpu0_L1I LOAD      ACCESS:      63660  HIT:      63660  MISS:          0
cpu0_L1I RFO       ACCESS:          0  HIT:          0  MISS:          0
cpu0_L1I PREFETCH  ACCESS:          0  HIT:          0  MISS:          0
cpu0_L1I WRITEBACK ACCESS:          0  HIT:          0  MISS:          0
cpu0_STLB TOTAL     ACCESS:       4176  HIT:       3189  MISS:        987
cpu0_STLB LOAD      ACCESS:       3225  HIT:       2497  MISS:        728
cpu0_STLB RFO       ACCESS:        951  HIT:        692  MISS:        259
cpu0_STLB PREFETCH  ACCESS:          0  HIT:          0  MISS:          0
cpu0_STLB WRITEBACK ACCESS:          0  HIT:          0  MISS:          0
cpu0_L1D TOTAL     ACCESS:    5017653  HIT:    4861940  MISS:     155713
cpu0_L1D LOAD      ACCESS:    4388990  HIT:    4265477  MISS:     123513
cpu0_L1D RFO       ACCESS:     627716  HIT:     595852  MISS:      31864
cpu0_L1D PREFETCH  ACCESS:          0  HIT:          0  MISS:          0
cpu0_L1D WRITEBACK ACCESS:          0  HIT:          0  MISS:          0
cpu0_L2C TOTAL     ACCESS:     198080  HIT:      97121  MISS:     100959
cpu0_L2C LOAD      ACCESS:     123511  HIT:      38866  MISS:      84645
cpu0_L2C RFO       ACCESS:      31862  HIT:      15558  MISS:      16304
cpu0_L2C PREFETCH  ACCESS:          0  HIT:          0  MISS:          0
cpu0_L2C WRITEBACK ACCESS:      42371  HIT:      42362  MISS:          9
LLC TOTAL     ACCESS:     116911  HIT:      52475  MISS:      64436
LLC LOAD      ACCESS:      84645  HIT:      36553  MISS:      48092
LLC RFO       ACCESS:      16304  HIT:          4  MISS:      16300
LLC PREFETCH  ACCESS:          0  HIT:          0  MISS:          0
LLC WRITEBACK ACCESS:      15961  HIT:      15918  MISS:         43
Heartbeat CPU 0 instructions: 70000003 cycles: 32258827 heartbeat IPC: 1.46644 cumulative IPC: 1.50189 (Simulation time: 0 hr 44 min 54 sec) 

Region of Interest Statistics
cpu0_DTLB TOTAL     ACCESS:    5151036  HIT:    5146366  MISS:       4670
cpu0_DTLB LOAD      ACCESS:    4661761  HIT:    4658149  MISS:       3612
cpu0_DTLB RFO       ACCESS:     489275  HIT:     488217  MISS:       1058
cpu0_DTLB PREFETCH  ACCESS:          0  HIT:          0  MISS:          0
cpu0_DTLB WRITEBACK ACCESS:          0  HIT:          0  MISS:          0
cpu0_ITLB TOTAL     ACCESS:     208390  HIT:     208390  MISS:          0
cpu0_ITLB LOAD      ACCESS:     208390  HIT:     208390  MISS:          0
cpu0_ITLB RFO       ACCESS:          0  HIT:          0  MISS:          0
cpu0_ITLB PREFETCH  ACCESS:          0  HIT:          0  MISS:          0
cpu0_ITLB WRITEBACK ACCESS:          0  HIT:          0  MISS:          0
cpu0_L1I TOTAL     ACCESS:      70767  HIT:      70767  MISS:          0
cpu0_L1I LOAD      ACCESS:      70767  HIT:      70767  MISS:          0
cpu0_L1I RFO       ACCESS:          0  HIT:          0  MISS:          0
cpu0_L1I PREFETCH  ACCESS:          0  HIT:          0  MISS:          0
cpu0_L1I WRITEBACK ACCESS:          0  HIT:          0  MISS:          0
cpu0_STLB TOTAL     ACCESS:       4670  HIT:       3554  MISS:       1116
cpu0_STLB LOAD      ACCESS:       3612  HIT:       2788  MISS:        824
cpu0_STLB RFO       ACCESS:       1058  HIT:        766  MISS:        292
cpu0_STLB PREFETCH  ACCESS:          0  HIT:          0  MISS:          0
cpu0_STLB WRITEBACK ACCESS:          0  HIT:          0  MISS:          0
cpu0_L1D TOTAL     ACCESS:    5575502  HIT:    5402384  MISS:     173118
cpu0_L1D LOAD      ACCESS:    4876980  HIT:    4739609  MISS:     137371
cpu0_L1D RFO       ACCESS:     697453  HIT:     662079  MISS:      35374
cpu0_L1D PREFETCH  ACCESS:          0  HIT:          0  MISS:          0
cpu0_L1D WRITEBACK ACCESS:          0  HIT:          0  MISS:          0
cpu0_L2C TOTAL     ACCESS:     220141  HIT:     107781  MISS:     112360
cpu0_L2C LOAD      ACCESS:     137369  HIT:      43138  MISS:      94231
cpu0_L2C RFO       ACCESS:      35372  HIT:      17253  MISS:      18119
cpu0_L2C PREFETCH  ACCESS:          0  HIT:          0  MISS:          0
cpu0_L2C WRITEBACK ACCESS:      47027  HIT:      47018  MISS:          9
LLC TOTAL     ACCESS:     130337  HIT:      58337  MISS:      72000
LLC LOAD      ACCESS:      94231  HIT:      40390  MISS:      53841
LLC RFO       ACCESS:      18119  HIT:          4  MISS:      18115
LLC PREFETCH  ACCESS:          0  HIT:          0  MISS:          0
LLC WRITEBACK ACCESS:      17986  HIT:      17943  MISS:         43
Heartbeat CPU 0 instructions: 72000001 cycles: 33592740 heartbeat IPC: 1.49935 cumulative IPC: 1.50166 (Simulation time: 0 hr 46 min 28 sec) 

Region of Interest Statistics
cpu0_DTLB TOTAL     ACCESS:    5666679  HIT:    5661509  MISS:       5170
cpu0_DTLB LOAD      ACCESS:    5128191  HIT:    5124190  MISS:       4001
cpu0_DTLB RFO       ACCESS:     538488  HIT:     537319  MISS:       1169
cpu0_DTLB PREFETCH  ACCESS:          0  HIT:          0  MISS:          0
cpu0_DTLB WRITEBACK ACCESS:          0  HIT:          0  MISS:          0
cpu0_ITLB TOTAL     ACCESS:     229006  HIT:     229006  MISS:          0
cpu0_ITLB LOAD      ACCESS:     229006  HIT:     229006  MISS:          0
cpu0_ITLB RFO       ACCESS:          0  HIT:          0  MISS:          0
cpu0_ITLB PREFETCH  ACCESS:          0  HIT:          0  MISS:          0
cpu0_ITLB WRITEBACK ACCESS:          0  HIT:          0  MISS:          0
cpu0_L1I TOTAL     ACCESS:      77874  HIT:      77874  MISS:          0
cpu0_L1I LOAD      ACCESS:      77874  HIT:      77874  MISS:          0
cpu0_L1I RFO       ACCESS:          0  HIT:          0  MISS:          0
cpu0_L1I PREFETCH  ACCESS:          0  HIT:          0  MISS:          0
cpu0_L1I WRITEBACK ACCESS:          0  HIT:          0  MISS:          0
cpu0_STLB TOTAL     ACCESS:       5170  HIT:       3946  MISS:       1224
cpu0_STLB LOAD      ACCESS:       4001  HIT:       3097  MISS:        904
cpu0_STLB RFO       ACCESS:       1169  HIT:        849  MISS:        320
cpu0_STLB PREFETCH  ACCESS:          0  HIT:          0  MISS:          0
cpu0_STLB WRITEBACK ACCESS:          0  HIT:          0  MISS:          0
cpu0_L1D TOTAL     ACCESS:    6133699  HIT:    5943214  MISS:     190485
cpu0_L1D LOAD      ACCESS:    5365507  HIT:    5214411  MISS:     151096
cpu0_L1D RFO       ACCESS:     767020  HIT:     728040  MISS:      38980
cpu0_L1D PREFETCH  ACCESS:          0  HIT:          0  MISS:          0
cpu0_L1D WRITEBACK ACCESS:          0  HIT:          0  MISS:          0
cpu0_L2C TOTAL     ACCESS:     242265  HIT:     118708  MISS:     123557
cpu0_L2C LOAD      ACCESS:     151094  HIT:      47472  MISS:     103622
cpu0_L2C RFO       ACCESS:      38978  HIT:      19053  MISS:      19925
cpu0_L2C PREFETCH  ACCESS:          0  HIT:          0  MISS:          0
cpu0_L2C WRITEBACK ACCESS:      51784  HIT:      51775  MISS:          9
LLC TOTAL     ACCESS:     143287  HIT:      64236  MISS:      79051
LLC LOAD      ACCESS:     103622  HIT:      44536  MISS:      59086
LLC RFO       ACCESS:      19925  HIT:          4  MISS:      19921
LLC PREFETCH  ACCESS:          0  HIT:          0  MISS:          0
LLC WRITEBACK ACCESS:      19739  HIT:      19696  MISS:         43
Heartbeat CPU 0 instructions: 74000002 cycles: 34921890 heartbeat IPC: 1.50472 cumulative IPC: 1.50191 (Simulation time: 0 hr 48 min 22 sec) 

Region of Interest Statistics
cpu0_DTLB TOTAL     ACCESS:    6182783  HIT:    6177208  MISS:       5575
cpu0_DTLB LOAD      ACCESS:    5595003  HIT:    5590694  MISS:       4309
cpu0_DTLB RFO       ACCESS:     587780  HIT:     586514  MISS:       1266
cpu0_DTLB PREFETCH  ACCESS:          0  HIT:          0  MISS:          0
cpu0_DTLB WRITEBACK ACCESS:          0  HIT:          0  MISS:          0
cpu0_ITLB TOTAL     ACCESS:     249697  HIT:     249697  MISS:          0
cpu0_ITLB LOAD      ACCESS:     249697  HIT:     249697  MISS:          0
cpu0_ITLB RFO       ACCESS:          0  HIT:          0  MISS:          0
cpu0_ITLB PREFETCH  ACCESS:          0  HIT:          0  MISS:          0
cpu0_ITLB WRITEBACK ACCESS:          0  HIT:          0  MISS:          0
cpu0_L1I TOTAL     ACCESS:      84981  HIT:      84981  MISS:          0
cpu0_L1I LOAD      ACCESS:      84981  HIT:      84981  MISS:          0
cpu0_L1I RFO       ACCESS:          0  HIT:          0  MISS:          0
cpu0_L1I PREFETCH  ACCESS:          0  HIT:          0  MISS:          0
cpu0_L1I WRITEBACK ACCESS:          0  HIT:          0  MISS:          0
cpu0_STLB TOTAL     ACCESS:       5575  HIT:       4239  MISS:       1336
cpu0_STLB LOAD      ACCESS:       4309  HIT:       3322  MISS:        987
cpu0_STLB RFO       ACCESS:       1266  HIT:        917  MISS:        349
cpu0_STLB PREFETCH  ACCESS:          0  HIT:          0  MISS:          0
cpu0_STLB WRITEBACK ACCESS:          0  HIT:          0  MISS:          0
cpu0_L1D TOTAL     ACCESS:    6693110  HIT:    6485362  MISS:     207748
cpu0_L1D LOAD      ACCESS:    5854799  HIT:    5689934  MISS:     164865
cpu0_L1D RFO       ACCESS:     837030  HIT:     794594  MISS:      42436
cpu0_L1D PREFETCH  ACCESS:          0  HIT:          0  MISS:          0
cpu0_L1D WRITEBACK ACCESS:          0  HIT:          0  MISS:          0
cpu0_L2C TOTAL     ACCESS:     264217  HIT:     129454  MISS:     134763
cpu0_L2C LOAD      ACCESS:     164863  HIT:      51815  MISS:     113048
cpu0_L2C RFO       ACCESS:      42434  HIT:      20729  MISS:      21705
cpu0_L2C PREFETCH  ACCESS:          0  HIT:          0  MISS:          0
cpu0_L2C WRITEBACK ACCESS:      56473  HIT:      56464  MISS:          9
LLC TOTAL     ACCESS:     156236  HIT:      70188  MISS:      86048
LLC LOAD      ACCESS:     113048  HIT:      48745  MISS:      64303
LLC RFO       ACCESS:      21705  HIT:          4  MISS:      21701
LLC PREFETCH  ACCESS:          0  HIT:          0  MISS:          0
LLC WRITEBACK ACCESS:      21482  HIT:      21439  MISS:         43
Heartbeat CPU 0 instructions: 76000001 cycles: 36259390 heartbeat IPC: 1.49533 cumulative IPC: 1.50141 (Simulation time: 0 hr 50 min 19 sec) 

Region of Interest Statistics
cpu0_DTLB TOTAL     ACCESS:    6697621  HIT:    6691528  MISS:       6093
cpu0_DTLB LOAD      ACCESS:    6061249  HIT:    6056532  MISS:       4717
cpu0_DTLB RFO       ACCESS:     636372  HIT:     634996  MISS:       1376
cpu0_DTLB PREFETCH  ACCESS:          0  HIT:          0  MISS:          0
cpu0_DTLB WRITEBACK ACCESS:          0  HIT:          0  MISS:          0
cpu0_ITLB TOTAL     ACCESS:     270324  HIT:     270324  MISS:          0
cpu0_ITLB LOAD      ACCESS:     270324  HIT:     270324  MISS:          0
cpu0_ITLB RFO       ACCESS:          0  HIT:          0  MISS:          0
cpu0_ITLB PREFETCH  ACCESS:          0  HIT:          0  MISS:          0
cpu0_ITLB WRITEBACK ACCESS:          0  HIT:          0  MISS:          0
cpu0_L1I TOTAL     ACCESS:      92088  HIT:      92088  MISS:          0
cpu0_L1I LOAD      ACCESS:      92088  HIT:      92088  MISS:          0
cpu0_L1I RFO       ACCESS:          0  HIT:          0  MISS:          0
cpu0_L1I PREFETCH  ACCESS:          0  HIT:          0  MISS:          0
cpu0_L1I WRITEBACK ACCESS:          0  HIT:          0  MISS:          0
cpu0_STLB TOTAL     ACCESS:       6093  HIT:       4658  MISS:       1435
cpu0_STLB LOAD      ACCESS:       4717  HIT:       3657  MISS:       1060
cpu0_STLB RFO       ACCESS:       1376  HIT:       1001  MISS:        375
cpu0_STLB PREFETCH  ACCESS:          0  HIT:          0  MISS:          0
cpu0_STLB WRITEBACK ACCESS:          0  HIT:          0  MISS:          0
cpu0_L1D TOTAL     ACCESS:    7250633  HIT:    7025612  MISS:     225021
cpu0_L1D LOAD      ACCESS:    6342281  HIT:    6163684  MISS:     178597
cpu0_L1D RFO       ACCESS:     906976  HIT:     861032  MISS:      45944
cpu0_L1D PREFETCH  ACCESS:          0  HIT:          0  MISS:          0
cpu0_L1D WRITEBACK ACCESS:          0  HIT:          0  MISS:          0
cpu0_L2C TOTAL     ACCESS:     286195  HIT:     140245  MISS:     145950
cpu0_L2C LOAD      ACCESS:     178595  HIT:      56135  MISS:     122460
cpu0_L2C RFO       ACCESS:      45942  HIT:      22462  MISS:      23480
cpu0_L2C PREFETCH  ACCESS:          0  HIT:          0  MISS:          0
cpu0_L2C WRITEBACK ACCESS:      61178  HIT:      61169  MISS:          9
LLC TOTAL     ACCESS:     169268  HIT:      75997  MISS:      93271
LLC LOAD      ACCESS:     122460  HIT:      52709  MISS:      69751
LLC RFO       ACCESS:      23480  HIT:          4  MISS:      23476
LLC PREFETCH  ACCESS:          0  HIT:          0  MISS:          0
LLC WRITEBACK ACCESS:      23327  HIT:      23284  MISS:         43
Heartbeat CPU 0 instructions: 78000001 cycles: 37610134 heartbeat IPC: 1.48067 cumulative IPC: 1.4999 (Simulation time: 0 hr 52 min 15 sec) 

Region of Interest Statistics
cpu0_DTLB TOTAL     ACCESS:    7213627  HIT:    7207047  MISS:       6580
cpu0_DTLB LOAD      ACCESS:    6528409  HIT:    6523314  MISS:       5095
cpu0_DTLB RFO       ACCESS:     685218  HIT:     683733  MISS:       1485
cpu0_DTLB PREFETCH  ACCESS:          0  HIT:          0  MISS:          0
cpu0_DTLB WRITEBACK ACCESS:          0  HIT:          0  MISS:          0
cpu0_ITLB TOTAL     ACCESS:     290995  HIT:     290995  MISS:          0
cpu0_ITLB LOAD      ACCESS:     290995  HIT:     290995  MISS:          0
cpu0_ITLB RFO       ACCESS:          0  HIT:          0  MISS:          0
cpu0_ITLB PREFETCH  ACCESS:          0  HIT:          0  MISS:          0
cpu0_ITLB WRITEBACK ACCESS:          0  HIT:          0  MISS:          0
cpu0_L1I TOTAL     ACCESS:      99195  HIT:      99195  MISS:          0
cpu0_L1I LOAD      ACCESS:      99195  HIT:      99195  MISS:          0
cpu0_L1I RFO       ACCESS:          0  HIT:          0  MISS:          0
cpu0_L1I PREFETCH  ACCESS:          0  HIT:          0  MISS:          0
cpu0_L1I WRITEBACK ACCESS:          0  HIT:          0  MISS:          0
cpu0_STLB TOTAL     ACCESS:       6580  HIT:       5034  MISS:       1546
cpu0_STLB LOAD      ACCESS:       5095  HIT:       3953  MISS:       1142
cpu0_STLB RFO       ACCESS:       1485  HIT:       1081  MISS:        404
cpu0_STLB PREFETCH  ACCESS:          0  HIT:          0  MISS:          0
cpu0_STLB WRITEBACK ACCESS:          0  HIT:          0  MISS:          0
cpu0_L1D TOTAL     ACCESS:    7808977  HIT:    7566609  MISS:     242368
cpu0_L1D LOAD      ACCESS:    6830895  HIT:    6638574  MISS:     192321
cpu0_L1D RFO       ACCESS:     976599  HIT:     927070  MISS:      49529
cpu0_L1D PREFETCH  ACCESS:          0  HIT:          0  MISS:          0
cpu0_L1D WRITEBACK ACCESS:          0  HIT:          0  MISS:          0
cpu0_L2C TOTAL     ACCESS:     308309  HIT:     151138  MISS:     157171
cpu0_L2C LOAD      ACCESS:     192317  HIT:      60440  MISS:     131877
cpu0_L2C RFO       ACCESS:      49527  HIT:      24243  MISS:      25284
cpu0_L2C PREFETCH  ACCESS:          0  HIT:          0  MISS:          0
cpu0_L2C WRITEBACK ACCESS:      65947  HIT:      65938  MISS:          9
LLC TOTAL     ACCESS:     182352  HIT:      82016  MISS:     100336
LLC LOAD      ACCESS:     131877  HIT:      56865  MISS:      75012
LLC RFO       ACCESS:      25284  HIT:          4  MISS:      25280
LLC PREFETCH  ACCESS:          0  HIT:          0  MISS:          0
LLC WRITEBACK ACCESS:      25190  HIT:      25147  MISS:         43
Heartbeat CPU 0 instructions: 80000001 cycles: 38978400 heartbeat IPC: 1.4617 cumulative IPC: 1.4973 (Simulation time: 0 hr 54 min 3 sec) 

Region of Interest Statistics
cpu0_DTLB TOTAL     ACCESS:    7727178  HIT:    7720134  MISS:       7044
cpu0_DTLB LOAD      ACCESS:    6993334  HIT:    6987878  MISS:       5456
cpu0_DTLB RFO       ACCESS:     733844  HIT:     732256  MISS:       1588
cpu0_DTLB PREFETCH  ACCESS:          0  HIT:          0  MISS:          0
cpu0_DTLB WRITEBACK ACCESS:          0  HIT:          0  MISS:          0
cpu0_ITLB TOTAL     ACCESS:     311821  HIT:     311821  MISS:          0
cpu0_ITLB LOAD      ACCESS:     311821  HIT:     311821  MISS:          0
cpu0_ITLB RFO       ACCESS:          0  HIT:          0  MISS:          0
cpu0_ITLB PREFETCH  ACCESS:          0  HIT:          0  MISS:          0
cpu0_ITLB WRITEBACK ACCESS:          0  HIT:          0  MISS:          0
cpu0_L1I TOTAL     ACCESS:     106302  HIT:     106302  MISS:          0
cpu0_L1I LOAD      ACCESS:     106302  HIT:     106302  MISS:          0
cpu0_L1I RFO       ACCESS:          0  HIT:          0  MISS:          0
cpu0_L1I PREFETCH  ACCESS:          0  HIT:          0  MISS:          0
cpu0_L1I WRITEBACK ACCESS:          0  HIT:          0  MISS:          0
cpu0_STLB TOTAL     ACCESS:       7044  HIT:       5370  MISS:       1674
cpu0_STLB LOAD      ACCESS:       5456  HIT:       4218  MISS:       1238
cpu0_STLB RFO       ACCESS:       1588  HIT:       1152  MISS:        436
cpu0_STLB PREFETCH  ACCESS:          0  HIT:          0  MISS:          0
cpu0_STLB WRITEBACK ACCESS:          0  HIT:          0  MISS:          0
cpu0_L1D TOTAL     ACCESS:    8364339  HIT:    8104569  MISS:     259770
cpu0_L1D LOAD      ACCESS:    7316172  HIT:    7109979  MISS:     206193
cpu0_L1D RFO       ACCESS:    1046563  HIT:     993542  MISS:      53021
cpu0_L1D PREFETCH  ACCESS:          0  HIT:          0  MISS:          0
cpu0_L1D WRITEBACK ACCESS:          0  HIT:          0  MISS:          0
cpu0_L2C TOTAL     ACCESS:     330405  HIT:     161732  MISS:     168673
cpu0_L2C LOAD      ACCESS:     206189  HIT:      64673  MISS:     141516
cpu0_L2C RFO       ACCESS:      53019  HIT:      25905  MISS:      27114
cpu0_L2C PREFETCH  ACCESS:          0  HIT:          0  MISS:          0
cpu0_L2C WRITEBACK ACCESS:      70641  HIT:      70599  MISS:         42
LLC TOTAL     ACCESS:     195562  HIT:      87731  MISS:     107831
LLC LOAD      ACCESS:     141516  HIT:      60884  MISS:      80632
LLC RFO       ACCESS:      27114  HIT:         19  MISS:      27095
LLC PREFETCH  ACCESS:          0  HIT:          0  MISS:          0
LLC WRITEBACK ACCESS:      26931  HIT:      26828  MISS:        103
Heartbeat CPU 0 instructions: 82000001 cycles: 40313649 heartbeat IPC: 1.49785 cumulative IPC: 1.49733 (Simulation time: 0 hr 55 min 36 sec) 

Region of Interest Statistics
cpu0_DTLB TOTAL     ACCESS:    8241770  HIT:    8234197  MISS:       7573
cpu0_DTLB LOAD      ACCESS:    7459036  HIT:    7453162  MISS:       5874
cpu0_DTLB RFO       ACCESS:     782734  HIT:     781035  MISS:       1699
cpu0_DTLB PREFETCH  ACCESS:          0  HIT:          0  MISS:          0
cpu0_DTLB WRITEBACK ACCESS:          0  HIT:          0  MISS:          0
cpu0_ITLB TOTAL     ACCESS:     332626  HIT:     332626  MISS:          0
cpu0_ITLB LOAD      ACCESS:     332626  HIT:     332626  MISS:          0
cpu0_ITLB RFO       ACCESS:          0  HIT:          0  MISS:          0
cpu0_ITLB PREFETCH  ACCESS:          0  HIT:          0  MISS:          0
cpu0_ITLB WRITEBACK ACCESS:          0  HIT:          0  MISS:          0
cpu0_L1I TOTAL     ACCESS:     113409  HIT:     113409  MISS:          0
cpu0_L1I LOAD      ACCESS:     113409  HIT:     113409  MISS:          0
cpu0_L1I RFO       ACCESS:          0  HIT:          0  MISS:          0
cpu0_L1I PREFETCH  ACCESS:          0  HIT:          0  MISS:          0
cpu0_L1I WRITEBACK ACCESS:          0  HIT:          0  MISS:          0
cpu0_STLB TOTAL     ACCESS:       7573  HIT:       5788  MISS:       1785
cpu0_STLB LOAD      ACCESS:       5874  HIT:       4554  MISS:       1320
cpu0_STLB RFO       ACCESS:       1699  HIT:       1234  MISS:        465
cpu0_STLB PREFETCH  ACCESS:          0  HIT:          0  MISS:          0
cpu0_STLB WRITEBACK ACCESS:          0  HIT:          0  MISS:          0
cpu0_L1D TOTAL     ACCESS:    8920540  HIT:    8643466  MISS:     277074
cpu0_L1D LOAD      ACCESS:    7802695  HIT:    7582811  MISS:     219884
cpu0_L1D RFO       ACCESS:    1116135  HIT:    1059538  MISS:      56597
cpu0_L1D PREFETCH  ACCESS:          0  HIT:          0  MISS:          0
cpu0_L1D WRITEBACK ACCESS:          0  HIT:          0  MISS:          0
cpu0_L2C TOTAL     ACCESS:     352445  HIT:     172487  MISS:     179958
cpu0_L2C LOAD      ACCESS:     219880  HIT:      68908  MISS:     150972
cpu0_L2C RFO       ACCESS:      56595  HIT:      27670  MISS:      28925
cpu0_L2C PREFETCH  ACCESS:          0  HIT:          0  MISS:          0
cpu0_L2C WRITEBACK ACCESS:      75377  HIT:      75317  MISS:         60
LLC TOTAL     ACCESS:     208813  HIT:      93771  MISS:     115042
LLC LOAD      ACCESS:     150972  HIT:      64964  MISS:      86008
LLC RFO       ACCESS:      28925  HIT:         20  MISS:      28905
LLC PREFETCH  ACCESS:          0  HIT:          0  MISS:          0
LLC WRITEBACK ACCESS:      28915  HIT:      28787  MISS:        128
Heartbeat CPU 0 instructions: 84000002 cycles: 41638392 heartbeat IPC: 1.50973 cumulative IPC: 1.49805 (Simulation time: 0 hr 57 min 9 sec) 

Region of Interest Statistics
cpu0_DTLB TOTAL     ACCESS:    8757108  HIT:    8749109  MISS:       7999
cpu0_DTLB LOAD      ACCESS:    7924976  HIT:    7918779  MISS:       6197
cpu0_DTLB RFO       ACCESS:     832132  HIT:     830330  MISS:       1802
cpu0_DTLB PREFETCH  ACCESS:          0  HIT:          0  MISS:          0
cpu0_DTLB WRITEBACK ACCESS:          0  HIT:          0  MISS:          0
cpu0_ITLB TOTAL     ACCESS:     353480  HIT:     353480  MISS:          0
cpu0_ITLB LOAD      ACCESS:     353480  HIT:     353480  MISS:          0
cpu0_ITLB RFO       ACCESS:          0  HIT:          0  MISS:          0
cpu0_ITLB PREFETCH  ACCESS:          0  HIT:          0  MISS:          0
cpu0_ITLB WRITEBACK ACCESS:          0  HIT:          0  MISS:          0
cpu0_L1I TOTAL     ACCESS:     120207  HIT:     120207  MISS:          0
cpu0_L1I LOAD      ACCESS:     120207  HIT:     120207  MISS:          0
cpu0_L1I RFO       ACCESS:          0  HIT:          0  MISS:          0
cpu0_L1I PREFETCH  ACCESS:          0  HIT:          0  MISS:          0
cpu0_L1I WRITEBACK ACCESS:          0  HIT:          0  MISS:          0
cpu0_STLB TOTAL     ACCESS:       7999  HIT:       6112  MISS:       1887
cpu0_STLB LOAD      ACCESS:       6197  HIT:       4803  MISS:       1394
cpu0_STLB RFO       ACCESS:       1802  HIT:       1309  MISS:        493
cpu0_STLB PREFETCH  ACCESS:          0  HIT:          0  MISS:          0
cpu0_STLB WRITEBACK ACCESS:          0  HIT:          0  MISS:          0
cpu0_L1D TOTAL     ACCESS:    9478622  HIT:    9184250  MISS:     294372
cpu0_L1D LOAD      ACCESS:    8291069  HIT:    8057464  MISS:     233605
cpu0_L1D RFO       ACCESS:    1185745  HIT:    1125611  MISS:      60134
cpu0_L1D PREFETCH  ACCESS:          0  HIT:          0  MISS:          0
cpu0_L1D WRITEBACK ACCESS:          0  HIT:          0  MISS:          0
cpu0_L2C TOTAL     ACCESS:     374469  HIT:     183304  MISS:     191165
cpu0_L2C LOAD      ACCESS:     233601  HIT:      73237  MISS:     160364
cpu0_L2C RFO       ACCESS:      60132  HIT:      29392  MISS:      30740
cpu0_L2C PREFETCH  ACCESS:          0  HIT:          0  MISS:          0
cpu0_L2C WRITEBACK ACCESS:      80103  HIT:      80043  MISS:         60
LLC TOTAL     ACCESS:     221610  HIT:      99581  MISS:     122029
LLC LOAD      ACCESS:     160364  HIT:      69185  MISS:      91179
LLC RFO       ACCESS:      30740  HIT:         20  MISS:      30720
LLC PREFETCH  ACCESS:          0  HIT:          0  MISS:          0
LLC WRITEBACK ACCESS:      30505  HIT:      30376  MISS:        129
Heartbeat CPU 0 instructions: 86000002 cycles: 42977674 heartbeat IPC: 1.49334 cumulative IPC: 1.49779 (Simulation time: 0 hr 58 min 43 sec) 

Region of Interest Statistics
cpu0_DTLB TOTAL     ACCESS:    9272519  HIT:    9264049  MISS:       8470
cpu0_DTLB LOAD      ACCESS:    8391453  HIT:    8384890  MISS:       6563
cpu0_DTLB RFO       ACCESS:     881066  HIT:     879159  MISS:       1907
cpu0_DTLB PREFETCH  ACCESS:          0  HIT:          0  MISS:          0
cpu0_DTLB WRITEBACK ACCESS:          0  HIT:          0  MISS:          0
cpu0_ITLB TOTAL     ACCESS:     374631  HIT:     374631  MISS:          0
cpu0_ITLB LOAD      ACCESS:     374631  HIT:     374631  MISS:          0
cpu0_ITLB RFO       ACCESS:          0  HIT:          0  MISS:          0
cpu0_ITLB PREFETCH  ACCESS:          0  HIT:          0  MISS:          0
cpu0_ITLB WRITEBACK ACCESS:          0  HIT:          0  MISS:          0
cpu0_L1I TOTAL     ACCESS:     127314  HIT:     127314  MISS:          0
cpu0_L1I LOAD      ACCESS:     127314  HIT:     127314  MISS:          0
cpu0_L1I RFO       ACCESS:          0  HIT:          0  MISS:          0
cpu0_L1I PREFETCH  ACCESS:          0  HIT:          0  MISS:          0
cpu0_L1I WRITEBACK ACCESS:          0  HIT:          0  MISS:          0
cpu0_STLB TOTAL     ACCESS:       8470  HIT:       6473  MISS:       1997
cpu0_STLB LOAD      ACCESS:       6563  HIT:       5087  MISS:       1476
cpu0_STLB RFO       ACCESS:       1907  HIT:       1386  MISS:        521
cpu0_STLB PREFETCH  ACCESS:          0  HIT:          0  MISS:          0
cpu0_STLB WRITEBACK ACCESS:          0  HIT:          0  MISS:          0
cpu0_L1D TOTAL     ACCESS:   10036622  HIT:    9725032  MISS:     311590
cpu0_L1D LOAD      ACCESS:    8779102  HIT:    8531804  MISS:     247298
cpu0_L1D RFO       ACCESS:    1255607  HIT:    1191982  MISS:      63625
cpu0_L1D PREFETCH  ACCESS:          0  HIT:          0  MISS:          0
cpu0_L1D WRITEBACK ACCESS:          0  HIT:          0  MISS:          0
cpu0_L2C TOTAL     ACCESS:     396315  HIT:     194018  MISS:     202297
cpu0_L2C LOAD      ACCESS:     247294  HIT:      77608  MISS:     169686
cpu0_L2C RFO       ACCESS:      63623  HIT:      31073  MISS:      32550
cpu0_L2C PREFETCH  ACCESS:          0  HIT:          0  MISS:          0
cpu0_L2C WRITEBACK ACCESS:      84731  HIT:      84671  MISS:         60
LLC TOTAL     ACCESS:     234883  HIT:     105706  MISS:     129177
LLC LOAD      ACCESS:     169686  HIT:      73169  MISS:      96517
LLC RFO       ACCESS:      32550  HIT:         20  MISS:      32530
LLC PREFETCH  ACCESS:          0  HIT:          0  MISS:          0
LLC WRITEBACK ACCESS:      32646  HIT:      32517  MISS:        129
Heartbeat CPU 0 instructions: 88000001 cycles: 44314155 heartbeat IPC: 1.49647 cumulative IPC: 1.49772 (Simulation time: 1 hr 0 min 14 sec) 

Region of Interest Statistics
cpu0_DTLB TOTAL     ACCESS:    9786415  HIT:    9777450  MISS:       8965
cpu0_DTLB LOAD      ACCESS:    8856576  HIT:    8849632  MISS:       6944
cpu0_DTLB RFO       ACCESS:     929839  HIT:     927818  MISS:       2021
cpu0_DTLB PREFETCH  ACCESS:          0  HIT:          0  MISS:          0
cpu0_DTLB WRITEBACK ACCESS:          0  HIT:          0  MISS:          0
cpu0_ITLB TOTAL     ACCESS:     395533  HIT:     395533  MISS:          0
cpu0_ITLB LOAD      ACCESS:     395533  HIT:     395533  MISS:          0
cpu0_ITLB RFO       ACCESS:          0  HIT:          0  MISS:          0
cpu0_ITLB PREFETCH  ACCESS:          0  HIT:          0  MISS:          0
cpu0_ITLB WRITEBACK ACCESS:          0  HIT:          0  MISS:          0
cpu0_L1I TOTAL     ACCESS:     134421  HIT:     134421  MISS:          0
cpu0_L1I LOAD      ACCESS:     134421  HIT:     134421  MISS:          0
cpu0_L1I RFO       ACCESS:          0  HIT:          0  MISS:          0
cpu0_L1I PREFETCH  ACCESS:          0  HIT:          0  MISS:          0
cpu0_L1I WRITEBACK ACCESS:          0  HIT:          0  MISS:          0
cpu0_STLB TOTAL     ACCESS:       8965  HIT:       6860  MISS:       2105
cpu0_STLB LOAD      ACCESS:       6944  HIT:       5389  MISS:       1555
cpu0_STLB RFO       ACCESS:       2021  HIT:       1471  MISS:        550
cpu0_STLB PREFETCH  ACCESS:          0  HIT:          0  MISS:          0
cpu0_STLB WRITEBACK ACCESS:          0  HIT:          0  MISS:          0
cpu0_L1D TOTAL     ACCESS:   10593178  HIT:   10264294  MISS:     328884
cpu0_L1D LOAD      ACCESS:    9265917  HIT:    9004965  MISS:     260952
cpu0_L1D RFO       ACCESS:    1325244  HIT:    1258022  MISS:      67222
cpu0_L1D PREFETCH  ACCESS:          0  HIT:          0  MISS:          0
cpu0_L1D WRITEBACK ACCESS:          0  HIT:          0  MISS:          0
cpu0_L2C TOTAL     ACCESS:     418326  HIT:     204873  MISS:     213453
cpu0_L2C LOAD      ACCESS:     260948  HIT:      81916  MISS:     179032
cpu0_L2C RFO       ACCESS:      67219  HIT:      32859  MISS:      34360
cpu0_L2C PREFETCH  ACCESS:          0  HIT:          0  MISS:          0
cpu0_L2C WRITEBACK ACCESS:      89449  HIT:      89389  MISS:         60
LLC TOTAL     ACCESS:     247710  HIT:     111344  MISS:     136366
LLC LOAD      ACCESS:     179032  HIT:      77136  MISS:     101896
LLC RFO       ACCESS:      34360  HIT:         20  MISS:      34340
LLC PREFETCH  ACCESS:          0  HIT:          0  MISS:          0
LLC WRITEBACK ACCESS:      34317  HIT:      34188  MISS:        129
Heartbeat CPU 0 instructions: 90000000 cycles: 45682608 heartbeat IPC: 1.4615 cumulative IPC: 1.49587 (Simulation time: 1 hr 1 min 46 sec) 

Region of Interest Statistics
cpu0_DTLB TOTAL     ACCESS:   10301824  HIT:   10292394  MISS:       9430
cpu0_DTLB LOAD      ACCESS:    9322966  HIT:    9315661  MISS:       7305
cpu0_DTLB RFO       ACCESS:     978858  HIT:     976733  MISS:       2125
cpu0_DTLB PREFETCH  ACCESS:          0  HIT:          0  MISS:          0
cpu0_DTLB WRITEBACK ACCESS:          0  HIT:          0  MISS:          0
cpu0_ITLB TOTAL     ACCESS:     416482  HIT:     416482  MISS:          0
cpu0_ITLB LOAD      ACCESS:     416482  HIT:     416482  MISS:          0
cpu0_ITLB RFO       ACCESS:          0  HIT:          0  MISS:          0
cpu0_ITLB PREFETCH  ACCESS:          0  HIT:          0  MISS:          0
cpu0_ITLB WRITEBACK ACCESS:          0  HIT:          0  MISS:          0
cpu0_L1I TOTAL     ACCESS:     141528  HIT:     141528  MISS:          0
cpu0_L1I LOAD      ACCESS:     141528  HIT:     141528  MISS:          0
cpu0_L1I RFO       ACCESS:          0  HIT:          0  MISS:          0
cpu0_L1I PREFETCH  ACCESS:          0  HIT:          0  MISS:          0
cpu0_L1I WRITEBACK ACCESS:          0  HIT:          0  MISS:          0
cpu0_STLB TOTAL     ACCESS:       9430  HIT:       7197  MISS:       2233
cpu0_STLB LOAD      ACCESS:       7305  HIT:       5654  MISS:       1651
cpu0_STLB RFO       ACCESS:       2125  HIT:       1543  MISS:        582
cpu0_STLB PREFETCH  ACCESS:          0  HIT:          0  MISS:          0
cpu0_STLB WRITEBACK ACCESS:          0  HIT:          0  MISS:          0
cpu0_L1D TOTAL     ACCESS:   11150690  HIT:   10804402  MISS:     346288
cpu0_L1D LOAD      ACCESS:    9753538  HIT:    9478758  MISS:     274780
cpu0_L1D RFO       ACCESS:    1395011  HIT:    1324258  MISS:      70753
cpu0_L1D PREFETCH  ACCESS:          0  HIT:          0  MISS:          0
cpu0_L1D WRITEBACK ACCESS:          0  HIT:          0  MISS:          0
cpu0_L2C TOTAL     ACCESS:     440405  HIT:     215565  MISS:     224840
cpu0_L2C LOAD      ACCESS:     274776  HIT:      86173  MISS:     188603
cpu0_L2C RFO       ACCESS:      70750  HIT:      34575  MISS:      36175
cpu0_L2C PREFETCH  ACCESS:          0  HIT:          0  MISS:          0
cpu0_L2C WRITEBACK ACCESS:      94124  HIT:      94063  MISS:         61
LLC TOTAL     ACCESS:     260870  HIT:     117142  MISS:     143728
LLC LOAD      ACCESS:     188603  HIT:      81160  MISS:     107443
LLC RFO       ACCESS:      36175  HIT:         20  MISS:      36155
LLC PREFETCH  ACCESS:          0  HIT:          0  MISS:          0
LLC WRITEBACK ACCESS:      36091  HIT:      35962  MISS:        129
Heartbeat CPU 0 instructions: 92000001 cycles: 47011993 heartbeat IPC: 1.50446 cumulative IPC: 1.49627 (Simulation time: 1 hr 3 min 19 sec) 

Region of Interest Statistics
cpu0_DTLB TOTAL     ACCESS:   10817373  HIT:   10807439  MISS:       9934
cpu0_DTLB LOAD      ACCESS:    9789230  HIT:    9781530  MISS:       7700
cpu0_DTLB RFO       ACCESS:    1028143  HIT:    1025909  MISS:       2234
cpu0_DTLB PREFETCH  ACCESS:          0  HIT:          0  MISS:          0
cpu0_DTLB WRITEBACK ACCESS:          0  HIT:          0  MISS:          0
cpu0_ITLB TOTAL     ACCESS:     437232  HIT:     437232  MISS:          0
cpu0_ITLB LOAD      ACCESS:     437232  HIT:     437232  MISS:          0
cpu0_ITLB RFO       ACCESS:          0  HIT:          0  MISS:          0
cpu0_ITLB PREFETCH  ACCESS:          0  HIT:          0  MISS:          0
cpu0_ITLB WRITEBACK ACCESS:          0  HIT:          0  MISS:          0
cpu0_L1I TOTAL     ACCESS:     148635  HIT:     148635  MISS:          0
cpu0_L1I LOAD      ACCESS:     148635  HIT:     148635  MISS:          0
cpu0_L1I RFO       ACCESS:          0  HIT:          0  MISS:          0
cpu0_L1I PREFETCH  ACCESS:          0  HIT:          0  MISS:          0
cpu0_L1I WRITEBACK ACCESS:          0  HIT:          0  MISS:          0
cpu0_STLB TOTAL     ACCESS:       9934  HIT:       7599  MISS:       2335
cpu0_STLB LOAD      ACCESS:       7700  HIT:       5975  MISS:       1725
cpu0_STLB RFO       ACCESS:       2234  HIT:       1624  MISS:        610
cpu0_STLB PREFETCH  ACCESS:          0  HIT:          0  MISS:          0
cpu0_STLB WRITEBACK ACCESS:          0  HIT:          0  MISS:          0
cpu0_L1D TOTAL     ACCESS:   11708903  HIT:   11345307  MISS:     363596
cpu0_L1D LOAD      ACCESS:   10241973  HIT:    9953498  MISS:     288475
cpu0_L1D RFO       ACCESS:    1464690  HIT:    1390361  MISS:      74329
cpu0_L1D PREFETCH  ACCESS:          0  HIT:          0  MISS:          0
cpu0_L1D WRITEBACK ACCESS:          0  HIT:          0  MISS:          0
cpu0_L2C TOTAL     ACCESS:     462433  HIT:     226252  MISS:     236181
cpu0_L2C LOAD      ACCESS:     288471  HIT:      90394  MISS:     198077
cpu0_L2C RFO       ACCESS:      74326  HIT:      36327  MISS:      37999
cpu0_L2C PREFETCH  ACCESS:          0  HIT:          0  MISS:          0
cpu0_L2C WRITEBACK ACCESS:      98844  HIT:      98740  MISS:        104
LLC TOTAL     ACCESS:     273931  HIT:     123101  MISS:     150830
LLC LOAD      ACCESS:     198077  HIT:      85349  MISS:     112728
LLC RFO       ACCESS:      37999  HIT:         34  MISS:      37965
LLC PREFETCH  ACCESS:          0  HIT:          0  MISS:          0
LLC WRITEBACK ACCESS:      37854  HIT:      37718  MISS:        136
Heartbeat CPU 0 instructions: 94000000 cycles: 48343793 heartbeat IPC: 1.50173 cumulative IPC: 1.49652 (Simulation time: 1 hr 4 min 52 sec) 

Region of Interest Statistics
cpu0_DTLB TOTAL     ACCESS:   11333561  HIT:   11323146  MISS:      10415
cpu0_DTLB LOAD      ACCESS:   10256002  HIT:   10247929  MISS:       8073
cpu0_DTLB RFO       ACCESS:    1077559  HIT:    1075217  MISS:       2342
cpu0_DTLB PREFETCH  ACCESS:          0  HIT:          0  MISS:          0
cpu0_DTLB WRITEBACK ACCESS:          0  HIT:          0  MISS:          0
cpu0_ITLB TOTAL     ACCESS:     458112  HIT:     458112  MISS:          0
cpu0_ITLB LOAD      ACCESS:     458112  HIT:     458112  MISS:          0
cpu0_ITLB RFO       ACCESS:          0  HIT:          0  MISS:          0
cpu0_ITLB PREFETCH  ACCESS:          0  HIT:          0  MISS:          0
cpu0_ITLB WRITEBACK ACCESS:          0  HIT:          0  MISS:          0
cpu0_L1I TOTAL     ACCESS:     155742  HIT:     155742  MISS:          0
cpu0_L1I LOAD      ACCESS:     155742  HIT:     155742  MISS:          0
cpu0_L1I RFO       ACCESS:          0  HIT:          0  MISS:          0
cpu0_L1I PREFETCH  ACCESS:          0  HIT:          0  MISS:          0
cpu0_L1I WRITEBACK ACCESS:          0  HIT:          0  MISS:          0
cpu0_STLB TOTAL     ACCESS:      10415  HIT:       7970  MISS:       2445
cpu0_STLB LOAD      ACCESS:       8073  HIT:       6266  MISS:       1807
cpu0_STLB RFO       ACCESS:       2342  HIT:       1704  MISS:        638
cpu0_STLB PREFETCH  ACCESS:          0  HIT:          0  MISS:          0
cpu0_STLB WRITEBACK ACCESS:          0  HIT:          0  MISS:          0
cpu0_L1D TOTAL     ACCESS:   12267395  HIT:   11886434  MISS:     380961
cpu0_L1D LOAD      ACCESS:   10730680  HIT:   10428451  MISS:     302229
cpu0_L1D RFO       ACCESS:    1534369  HIT:    1456474  MISS:      77895
cpu0_L1D PREFETCH  ACCESS:          0  HIT:          0  MISS:          0
cpu0_L1D WRITEBACK ACCESS:          0  HIT:          0  MISS:          0
cpu0_L2C TOTAL     ACCESS:     484507  HIT:     237096  MISS:     247411
cpu0_L2C LOAD      ACCESS:     302225  HIT:      94731  MISS:     207494
cpu0_L2C RFO       ACCESS:      77892  HIT:      38080  MISS:      39812
cpu0_L2C PREFETCH  ACCESS:          0  HIT:          0  MISS:          0
cpu0_L2C WRITEBACK ACCESS:     103553  HIT:     103449  MISS:        104
LLC TOTAL     ACCESS:     287053  HIT:     129170  MISS:     157883
LLC LOAD      ACCESS:     207494  HIT:      89526  MISS:     117968
LLC RFO       ACCESS:      39812  HIT:         37  MISS:      39775
LLC PREFETCH  ACCESS:          0  HIT:          0  MISS:          0
LLC WRITEBACK ACCESS:      39746  HIT:      39607  MISS:        139
Heartbeat CPU 0 instructions: 96000002 cycles: 49682108 heartbeat IPC: 1.49442 cumulative IPC: 1.49643 (Simulation time: 1 hr 6 min 15 sec) 

Region of Interest Statistics
cpu0_DTLB TOTAL     ACCESS:   11848358  HIT:   11837514  MISS:      10844
cpu0_DTLB LOAD      ACCESS:   10721893  HIT:   10713498  MISS:       8395
cpu0_DTLB RFO       ACCESS:    1126465  HIT:    1124016  MISS:       2449
cpu0_DTLB PREFETCH  ACCESS:          0  HIT:          0  MISS:          0
cpu0_DTLB WRITEBACK ACCESS:          0  HIT:          0  MISS:          0
cpu0_ITLB TOTAL     ACCESS:     478790  HIT:     478790  MISS:          0
cpu0_ITLB LOAD      ACCESS:     478790  HIT:     478790  MISS:          0
cpu0_ITLB RFO       ACCESS:          0  HIT:          0  MISS:          0
cpu0_ITLB PREFETCH  ACCESS:          0  HIT:          0  MISS:          0
cpu0_ITLB WRITEBACK ACCESS:          0  HIT:          0  MISS:          0
cpu0_L1I TOTAL     ACCESS:     162849  HIT:     162849  MISS:          0
cpu0_L1I LOAD      ACCESS:     162849  HIT:     162849  MISS:          0
cpu0_L1I RFO       ACCESS:          0  HIT:          0  MISS:          0
cpu0_L1I PREFETCH  ACCESS:          0  HIT:          0  MISS:          0
cpu0_L1I WRITEBACK ACCESS:          0  HIT:          0  MISS:          0
cpu0_STLB TOTAL     ACCESS:      10844  HIT:       8288  MISS:       2556
cpu0_STLB LOAD      ACCESS:       8395  HIT:       6506  MISS:       1889
cpu0_STLB RFO       ACCESS:       2449  HIT:       1782  MISS:        667
cpu0_STLB PREFETCH  ACCESS:          0  HIT:          0  MISS:          0
cpu0_STLB WRITEBACK ACCESS:          0  HIT:          0  MISS:          0
cpu0_L1D TOTAL     ACCESS:   12825013  HIT:   12426786  MISS:     398227
cpu0_L1D LOAD      ACCESS:   11218377  HIT:   10902398  MISS:     315979
cpu0_L1D RFO       ACCESS:    1604183  HIT:    1522809  MISS:      81374
cpu0_L1D PREFETCH  ACCESS:          0  HIT:          0  MISS:          0
cpu0_L1D WRITEBACK ACCESS:          0  HIT:          0  MISS:          0
cpu0_L2C TOTAL     ACCESS:     506453  HIT:     247828  MISS:     258625
cpu0_L2C LOAD      ACCESS:     315975  HIT:      99082  MISS:     216893
cpu0_L2C RFO       ACCESS:      81371  HIT:      39744  MISS:      41627
cpu0_L2C PREFETCH  ACCESS:          0  HIT:          0  MISS:          0
cpu0_L2C WRITEBACK ACCESS:     108233  HIT:     108129  MISS:        104
LLC TOTAL     ACCESS:     300176  HIT:     135027  MISS:     165149
LLC LOAD      ACCESS:     216893  HIT:      93474  MISS:     123419
LLC RFO       ACCESS:      41627  HIT:         37  MISS:      41590
LLC PREFETCH  ACCESS:          0  HIT:          0  MISS:          0
LLC WRITEBACK ACCESS:      41655  HIT:      41516  MISS:        139
Heartbeat CPU 0 instructions: 98000003 cycles: 51022595 heartbeat IPC: 1.492 cumulative IPC: 1.49624 (Simulation time: 1 hr 7 min 48 sec) 

Region of Interest Statistics
cpu0_DTLB TOTAL     ACCESS:   12364313  HIT:   12352968  MISS:      11345
cpu0_DTLB LOAD      ACCESS:   11189463  HIT:   11180673  MISS:       8790
cpu0_DTLB RFO       ACCESS:    1174850  HIT:    1172295  MISS:       2555
cpu0_DTLB PREFETCH  ACCESS:          0  HIT:          0  MISS:          0
cpu0_DTLB WRITEBACK ACCESS:          0  HIT:          0  MISS:          0
cpu0_ITLB TOTAL     ACCESS:     499436  HIT:     499436  MISS:          0
cpu0_ITLB LOAD      ACCESS:     499436  HIT:     499436  MISS:          0
cpu0_ITLB RFO       ACCESS:          0  HIT:          0  MISS:          0
cpu0_ITLB PREFETCH  ACCESS:          0  HIT:          0  MISS:          0
cpu0_ITLB WRITEBACK ACCESS:          0  HIT:          0  MISS:          0
cpu0_L1I TOTAL     ACCESS:     169956  HIT:     169956  MISS:          0
cpu0_L1I LOAD      ACCESS:     169956  HIT:     169956  MISS:          0
cpu0_L1I RFO       ACCESS:          0  HIT:          0  MISS:          0
cpu0_L1I PREFETCH  ACCESS:          0  HIT:          0  MISS:          0
cpu0_L1I WRITEBACK ACCESS:          0  HIT:          0  MISS:          0
cpu0_STLB TOTAL     ACCESS:      11345  HIT:       8687  MISS:       2658
cpu0_STLB LOAD      ACCESS:       8790  HIT:       6827  MISS:       1963
cpu0_STLB RFO       ACCESS:       2555  HIT:       1860  MISS:        695
cpu0_STLB PREFETCH  ACCESS:          0  HIT:          0  MISS:          0
cpu0_STLB WRITEBACK ACCESS:          0  HIT:          0  MISS:          0
cpu0_L1D TOTAL     ACCESS:   13383269  HIT:   12967750  MISS:     415519
cpu0_L1D LOAD      ACCESS:   11706986  HIT:   11377342  MISS:     329644
cpu0_L1D RFO       ACCESS:    1673733  HIT:    1588771  MISS:      84962
cpu0_L1D PREFETCH  ACCESS:          0  HIT:          0  MISS:          0
cpu0_L1D WRITEBACK ACCESS:          0  HIT:          0  MISS:          0
cpu0_L2C TOTAL     ACCESS:     528490  HIT:     258673  MISS:     269817
cpu0_L2C LOAD      ACCESS:     329638  HIT:     103363  MISS:     226275
cpu0_L2C RFO       ACCESS:      84959  HIT:      41522  MISS:      43437
cpu0_L2C PREFETCH  ACCESS:          0  HIT:          0  MISS:          0
cpu0_L2C WRITEBACK ACCESS:     112980  HIT:     112876  MISS:        104
LLC TOTAL     ACCESS:     313220  HIT:     140775  MISS:     172445
LLC LOAD      ACCESS:     226275  HIT:      97370  MISS:     128905
LLC RFO       ACCESS:      43437  HIT:         37  MISS:      43400
LLC PREFETCH  ACCESS:          0  HIT:          0  MISS:          0
LLC WRITEBACK ACCESS:      43507  HIT:      43368  MISS:        139
Heartbeat CPU 0 instructions: 100000002 cycles: 52346756 heartbeat IPC: 1.51039 cumulative IPC: 1.49681 (Simulation time: 1 hr 9 min 19 sec) 

Region of Interest Statistics
cpu0_DTLB TOTAL     ACCESS:   12880379  HIT:   12868558  MISS:      11821
cpu0_DTLB LOAD      ACCESS:   11656676  HIT:   11647520  MISS:       9156
cpu0_DTLB RFO       ACCESS:    1223703  HIT:    1221038  MISS:       2665
cpu0_DTLB PREFETCH  ACCESS:          0  HIT:          0  MISS:          0
cpu0_DTLB WRITEBACK ACCESS:          0  HIT:          0  MISS:          0
cpu0_ITLB TOTAL     ACCESS:     520053  HIT:     520053  MISS:          0
cpu0_ITLB LOAD      ACCESS:     520053  HIT:     520053  MISS:          0
cpu0_ITLB RFO       ACCESS:          0  HIT:          0  MISS:          0
cpu0_ITLB PREFETCH  ACCESS:          0  HIT:          0  MISS:          0
cpu0_ITLB WRITEBACK ACCESS:          0  HIT:          0  MISS:          0
cpu0_L1I TOTAL     ACCESS:     177063  HIT:     177063  MISS:          0
cpu0_L1I LOAD      ACCESS:     177063  HIT:     177063  MISS:          0
cpu0_L1I RFO       ACCESS:          0  HIT:          0  MISS:          0
cpu0_L1I PREFETCH  ACCESS:          0  HIT:          0  MISS:          0
cpu0_L1I WRITEBACK ACCESS:          0  HIT:          0  MISS:          0
cpu0_STLB TOTAL     ACCESS:      11821  HIT:       9054  MISS:       2767
cpu0_STLB LOAD      ACCESS:       9156  HIT:       7112  MISS:       2044
cpu0_STLB RFO       ACCESS:       2665  HIT:       1942  MISS:        723
cpu0_STLB PREFETCH  ACCESS:          0  HIT:          0  MISS:          0
cpu0_STLB WRITEBACK ACCESS:          0  HIT:          0  MISS:          0
cpu0_L1D TOTAL     ACCESS:   13941429  HIT:   13508548  MISS:     432881
cpu0_L1D LOAD      ACCESS:   12195357  HIT:   11851954  MISS:     343403
cpu0_L1D RFO       ACCESS:    1743417  HIT:    1654896  MISS:      88521
cpu0_L1D PREFETCH  ACCESS:          0  HIT:          0  MISS:          0
cpu0_L1D WRITEBACK ACCESS:          0  HIT:          0  MISS:          0
cpu0_L2C TOTAL     ACCESS:     550608  HIT:     269577  MISS:     281031
cpu0_L2C LOAD      ACCESS:     343397  HIT:     107723  MISS:     235674
cpu0_L2C RFO       ACCESS:      88518  HIT:      43268  MISS:      45250
cpu0_L2C PREFETCH  ACCESS:          0  HIT:          0  MISS:          0
cpu0_L2C WRITEBACK ACCESS:     117736  HIT:     117630  MISS:        106
LLC TOTAL     ACCESS:     326245  HIT:     146665  MISS:     179580
LLC LOAD      ACCESS:     235674  HIT:     101444  MISS:     134230
LLC RFO       ACCESS:      45250  HIT:         40  MISS:      45210
LLC PREFETCH  ACCESS:          0  HIT:          0  MISS:          0
LLC WRITEBACK ACCESS:      45320  HIT:      45181  MISS:        139
Heartbeat CPU 0 instructions: 102000000 cycles: 53704896 heartbeat IPC: 1.4726 cumulative IPC: 1.49586 (Simulation time: 1 hr 10 min 55 sec) 

Region of Interest Statistics
cpu0_DTLB TOTAL     ACCESS:   13395859  HIT:   13383547  MISS:      12312
cpu0_DTLB LOAD      ACCESS:   12123589  HIT:   12114048  MISS:       9541
cpu0_DTLB RFO       ACCESS:    1272270  HIT:    1269499  MISS:       2771
cpu0_DTLB PREFETCH  ACCESS:          0  HIT:          0  MISS:          0
cpu0_DTLB WRITEBACK ACCESS:          0  HIT:          0  MISS:          0
cpu0_ITLB TOTAL     ACCESS:     540573  HIT:     540573  MISS:          0
cpu0_ITLB LOAD      ACCESS:     540573  HIT:     540573  MISS:          0
cpu0_ITLB RFO       ACCESS:          0  HIT:          0  MISS:          0
cpu0_ITLB PREFETCH  ACCESS:          0  HIT:          0  MISS:          0
cpu0_ITLB WRITEBACK ACCESS:          0  HIT:          0  MISS:          0
cpu0_L1I TOTAL     ACCESS:     184170  HIT:     184170  MISS:          0
cpu0_L1I LOAD      ACCESS:     184170  HIT:     184170  MISS:          0
cpu0_L1I RFO       ACCESS:          0  HIT:          0  MISS:          0
cpu0_L1I PREFETCH  ACCESS:          0  HIT:          0  MISS:          0
cpu0_L1I WRITEBACK ACCESS:          0  HIT:          0  MISS:          0
cpu0_STLB TOTAL     ACCESS:      12312  HIT:       9421  MISS:       2891
cpu0_STLB LOAD      ACCESS:       9541  HIT:       7404  MISS:       2137
cpu0_STLB RFO       ACCESS:       2771  HIT:       2017  MISS:        754
cpu0_STLB PREFETCH  ACCESS:          0  HIT:          0  MISS:          0
cpu0_STLB WRITEBACK ACCESS:          0  HIT:          0  MISS:          0
cpu0_L1D TOTAL     ACCESS:   14498611  HIT:   14048326  MISS:     450285
cpu0_L1D LOAD      ACCESS:   12682513  HIT:   12325258  MISS:     357255
cpu0_L1D RFO       ACCESS:    1813322  HIT:    1721286  MISS:      92036
cpu0_L1D PREFETCH  ACCESS:          0  HIT:          0  MISS:          0
cpu0_L1D WRITEBACK ACCESS:          0  HIT:          0  MISS:          0
cpu0_L2C TOTAL     ACCESS:     572712  HIT:     280251  MISS:     292461
cpu0_L2C LOAD      ACCESS:     357249  HIT:     111960  MISS:     245289
cpu0_L2C RFO       ACCESS:      92033  HIT:      44972  MISS:      47061
cpu0_L2C PREFETCH  ACCESS:          0  HIT:          0  MISS:          0
cpu0_L2C WRITEBACK ACCESS:     122436  HIT:     122326  MISS:        110
LLC TOTAL     ACCESS:     339382  HIT:     152366  MISS:     187016
LLC LOAD      ACCESS:     245289  HIT:     105433  MISS:     139856
LLC RFO       ACCESS:      47061  HIT:         42  MISS:      47019
LLC PREFETCH  ACCESS:          0  HIT:          0  MISS:          0
LLC WRITEBACK ACCESS:      47031  HIT:      46891  MISS:        140
Heartbeat CPU 0 instructions: 104000001 cycles: 55038962 heartbeat IPC: 1.49918 cumulative IPC: 1.49598 (Simulation time: 1 hr 12 min 25 sec) 

Region of Interest Statistics
cpu0_DTLB TOTAL     ACCESS:   13911137  HIT:   13898312  MISS:      12825
cpu0_DTLB LOAD      ACCESS:   12589739  HIT:   12579795  MISS:       9944
cpu0_DTLB RFO       ACCESS:    1321398  HIT:    1318517  MISS:       2881
cpu0_DTLB PREFETCH  ACCESS:          0  HIT:          0  MISS:          0
cpu0_DTLB WRITEBACK ACCESS:          0  HIT:          0  MISS:          0
cpu0_ITLB TOTAL     ACCESS:     561436  HIT:     561436  MISS:          0
cpu0_ITLB LOAD      ACCESS:     561436  HIT:     561436  MISS:          0
cpu0_ITLB RFO       ACCESS:          0  HIT:          0  MISS:          0
cpu0_ITLB PREFETCH  ACCESS:          0  HIT:          0  MISS:          0
cpu0_ITLB WRITEBACK ACCESS:          0  HIT:          0  MISS:          0
cpu0_L1I TOTAL     ACCESS:     191277  HIT:     191277  MISS:          0
cpu0_L1I LOAD      ACCESS:     191277  HIT:     191277  MISS:          0
cpu0_L1I RFO       ACCESS:          0  HIT:          0  MISS:          0
cpu0_L1I PREFETCH  ACCESS:          0  HIT:          0  MISS:          0
cpu0_L1I WRITEBACK ACCESS:          0  HIT:          0  MISS:          0
cpu0_STLB TOTAL     ACCESS:      12825  HIT:       9822  MISS:       3003
cpu0_STLB LOAD      ACCESS:       9944  HIT:       7724  MISS:       2220
cpu0_STLB RFO       ACCESS:       2881  HIT:       2098  MISS:        783
cpu0_STLB PREFETCH  ACCESS:          0  HIT:          0  MISS:          0
cpu0_STLB WRITEBACK ACCESS:          0  HIT:          0  MISS:          0
cpu0_L1D TOTAL     ACCESS:   15056855  HIT:   14589247  MISS:     467608
cpu0_L1D LOAD      ACCESS:   13170948  HIT:   12799953  MISS:     370995
cpu0_L1D RFO       ACCESS:    1883024  HIT:    1787449  MISS:      95575
cpu0_L1D PREFETCH  ACCESS:          0  HIT:          0  MISS:          0
cpu0_L1D WRITEBACK ACCESS:          0  HIT:          0  MISS:          0
cpu0_L2C TOTAL     ACCESS:     594754  HIT:     291095  MISS:     303659
cpu0_L2C LOAD      ACCESS:     370989  HIT:     116279  MISS:     254710
cpu0_L2C RFO       ACCESS:      95572  HIT:      46736  MISS:      48836
cpu0_L2C PREFETCH  ACCESS:          0  HIT:          0  MISS:          0
cpu0_L2C WRITEBACK ACCESS:     127155  HIT:     127043  MISS:        112
LLC TOTAL     ACCESS:     352505  HIT:     158439  MISS:     194066
LLC LOAD      ACCESS:     254710  HIT:     109579  MISS:     145131
LLC RFO       ACCESS:      48836  HIT:         42  MISS:      48794
LLC PREFETCH  ACCESS:          0  HIT:          0  MISS:          0
LLC WRITEBACK ACCESS:      48958  HIT:      48818  MISS:        140
Heartbeat CPU 0 instructions: 106000003 cycles: 56381033 heartbeat IPC: 1.49024 cumulative IPC: 1.49578 (Simulation time: 1 hr 14 min 1 sec) 

Region of Interest Statistics
cpu0_DTLB TOTAL     ACCESS:   14426558  HIT:   14413327  MISS:      13231
cpu0_DTLB LOAD      ACCESS:   13055899  HIT:   13045648  MISS:      10251
cpu0_DTLB RFO       ACCESS:    1370659  HIT:    1367679  MISS:       2980
cpu0_DTLB PREFETCH  ACCESS:          0  HIT:          0  MISS:          0
cpu0_DTLB WRITEBACK ACCESS:          0  HIT:          0  MISS:          0
cpu0_ITLB TOTAL     ACCESS:     582490  HIT:     582490  MISS:          0
cpu0_ITLB LOAD      ACCESS:     582490  HIT:     582490  MISS:          0
cpu0_ITLB RFO       ACCESS:          0  HIT:          0  MISS:          0
cpu0_ITLB PREFETCH  ACCESS:          0  HIT:          0  MISS:          0
cpu0_ITLB WRITEBACK ACCESS:          0  HIT:          0  MISS:          0
cpu0_L1I TOTAL     ACCESS:     198384  HIT:     198384  MISS:          0
cpu0_L1I LOAD      ACCESS:     198384  HIT:     198384  MISS:          0
cpu0_L1I RFO       ACCESS:          0  HIT:          0  MISS:          0
cpu0_L1I PREFETCH  ACCESS:          0  HIT:          0  MISS:          0
cpu0_L1I WRITEBACK ACCESS:          0  HIT:          0  MISS:          0
cpu0_STLB TOTAL     ACCESS:      13231  HIT:      10128  MISS:       3103
cpu0_STLB LOAD      ACCESS:      10251  HIT:       7958  MISS:       2293
cpu0_STLB RFO       ACCESS:       2980  HIT:       2170  MISS:        810
cpu0_STLB PREFETCH  ACCESS:          0  HIT:          0  MISS:          0
cpu0_STLB WRITEBACK ACCESS:          0  HIT:          0  MISS:          0
cpu0_L1D TOTAL     ACCESS:   15615081  HIT:   15130130  MISS:     484951
cpu0_L1D LOAD      ACCESS:   13659175  HIT:   13274366  MISS:     384809
cpu0_L1D RFO       ACCESS:    1952926  HIT:    1853863  MISS:      99063
cpu0_L1D PREFETCH  ACCESS:          0  HIT:          0  MISS:          0
cpu0_L1D WRITEBACK ACCESS:          0  HIT:          0  MISS:          0
cpu0_L2C TOTAL     ACCESS:     616807  HIT:     301951  MISS:     314856
cpu0_L2C LOAD      ACCESS:     384803  HIT:     120676  MISS:     264127
cpu0_L2C RFO       ACCESS:      99060  HIT:      48444  MISS:      50616
cpu0_L2C PREFETCH  ACCESS:          0  HIT:          0  MISS:          0
cpu0_L2C WRITEBACK ACCESS:     131865  HIT:     131753  MISS:        112
[...]
cpu0_DTLB PREFETCH  ACCESS:          0  HIT:          0  MISS:          0
cpu0_DTLB WRITEBACK ACCESS:          0  HIT:          0  MISS:          0
cpu0_DTLB TRANSLATION ACCESS:          0  HIT:          0  MISS:          0
cpu0_DTLB PREFETCH  REQUESTED:          0  ISSUED:          0  USEFUL:          0  USELESS:          0
cpu0_DTLB AVERAGE MISS LATENCY: 22.3513 cycles
cpu0_ITLB TOTAL     ACCESS:   17137006  HIT:   17136933  MISS:         73
cpu0_ITLB LOAD      ACCESS:   17137006  HIT:   17136933  MISS:         73
cpu0_ITLB RFO       ACCESS:          0  HIT:          0  MISS:          0
cpu0_ITLB PREFETCH  ACCESS:          0  HIT:          0  MISS:          0
cpu0_ITLB WRITEBACK ACCESS:          0  HIT:          0  MISS:          0
cpu0_ITLB TRANSLATION ACCESS:          0  HIT:          0  MISS:          0
cpu0_ITLB PREFETCH  REQUESTED:          0  ISSUED:          0  USEFUL:          0  USELESS:          0
cpu0_ITLB AVERAGE MISS LATENCY: 204.041 cycles
cpu0_L1I TOTAL     ACCESS:   32583613  HIT:   32582257  MISS:       1356
cpu0_L1I LOAD      ACCESS:   32583613  HIT:   32582257  MISS:       1356
cpu0_L1I RFO       ACCESS:          0  HIT:          0  MISS:          0
cpu0_L1I PREFETCH  ACCESS:          0  HIT:          0  MISS:          0
cpu0_L1I WRITEBACK ACCESS:          0  HIT:          0  MISS:          0
cpu0_L1I TRANSLATION ACCESS:          0  HIT:          0  MISS:          0
cpu0_L1I PREFETCH  REQUESTED:          0  ISSUED:          0  USEFUL:          0  USELESS:          0
cpu0_L1I AVERAGE MISS LATENCY: 272.072 cycles
cpu0_STLB TOTAL     ACCESS:     351702  HIT:     204191  MISS:     147511
cpu0_STLB LOAD      ACCESS:     287190  HIT:     178292  MISS:     108898
cpu0_STLB RFO       ACCESS:      64512  HIT:      25899  MISS:      38613
cpu0_STLB PREFETCH  ACCESS:          0  HIT:          0  MISS:          0
cpu0_STLB WRITEBACK ACCESS:          0  HIT:          0  MISS:          0
cpu0_STLB TRANSLATION ACCESS:          0  HIT:          0  MISS:          0
cpu0_STLB PREFETCH  REQUESTED:          0  ISSUED:          0  USEFUL:          0  USELESS:          0
cpu0_STLB AVERAGE MISS LATENCY: 31.876 cycles
cpu0_L1D TOTAL     ACCESS:  401819444  HIT:  387105660  MISS:   14713784
cpu0_L1D LOAD      ACCESS:  364920397  HIT:  353576201  MISS:   11344196
cpu0_L1D RFO       ACCESS:   36759186  HIT:   33407506  MISS:    3351680
cpu0_L1D PREFETCH  ACCESS:          0  HIT:          0  MISS:          0
cpu0_L1D WRITEBACK ACCESS:          0  HIT:          0  MISS:          0
cpu0_L1D TRANSLATION ACCESS:     139861  HIT:     121953  MISS:      17908
cpu0_L1D PREFETCH  REQUESTED:          0  ISSUED:          0  USEFUL:          0  USELESS:          0
cpu0_L1D AVERAGE MISS LATENCY: 179.248 cycles
cpu0_L2C TOTAL     ACCESS:   19153162  HIT:    8048217  MISS:   11104945
cpu0_L2C LOAD      ACCESS:   11345379  HIT:    2692830  MISS:    8652549
cpu0_L2C RFO       ACCESS:    3351584  HIT:     908031  MISS:    2443553
cpu0_L2C PREFETCH  ACCESS:          0  HIT:          0  MISS:          0
cpu0_L2C WRITEBACK ACCESS:    4438291  HIT:    4430027  MISS:       8264
cpu0_L2C TRANSLATION ACCESS:      17908  HIT:      17329  MISS:        579
cpu0_L2C PREFETCH  REQUESTED:          0  ISSUED:          0  USEFUL:          0  USELESS:          0
cpu0_L2C AVERAGE MISS LATENCY: 222.94 cycles
LLC TOTAL     ACCESS:   14308179  HIT:    5900655  MISS:    8407524
LLC LOAD      ACCESS:    8652547  HIT:    2355749  MISS:    6296798
LLC RFO       ACCESS:    2443548  HIT:     337708  MISS:    2105840
LLC PREFETCH  ACCESS:          0  HIT:          0  MISS:          0
LLC WRITEBACK ACCESS:    3211505  HIT:    3206727  MISS:       4778
LLC TRANSLATION ACCESS:        579  HIT:        471  MISS:        108
LLC PREFETCH  REQUESTED:          0  ISSUED:          0  USEFUL:          0  USELESS:          0
LLC AVERAGE MISS LATENCY: 266.75 cycles
~~~~~~~~~~Reuse Distance Profiler output~~~~~~~~~~
0	11412112	7510224
1	13858624	10407984
2	22297712	17884112
3	25627728	23789984
4	27085408	26251840
5	25678288	24993696
6	26425296	25778640
7	23129248	22380032
8	16845120	16215232
9	13705408	13169792
10	13947408	13309952
11	11260048	10656464
12	8936976	8157440
13	8004848	7124912
14	7117328	6342336
15	8191056	7128848
16	6172032	5279696
17	6525696	5856848
18	5530400	4827440
19	5768496	5277136
20	5650656	5079344
21	4795056	4413200
22	5248016	4876896
23	4427088	4131408
24	5113664	4813792
25	3910480	3659504
26	3851712	3559344
27	3322944	3082144
28	3377520	3178688
29	3532784	3199184
30	3216928	2967024
31	2971776	2708960
32	2371264	2118720
33	2890272	2724880
34	2974832	2767152
35	2634624	2416608
36	2810832	2677136
37	3708592	3383296
38	2446496	2317056
39	1888448	1759472
40	1948368	1730480
41	1744000	1548976
42	1546016	1401872
43	1759232	1655280
44	1524032	1411472
45	1891488	1721168
46	1644368	1548512
47	1446912	1346912
48	1183152	1117040
49	1363776	1290112
50	1139728	1096944
51	1150672	1049744
52	966096	822720
53	1041664	951312
54	743616	603024
55	863008	745200
56	577248	514800
57	592032	520000
58	482208	428048
59	459088	353424
60	564608	522752
61	553296	500144
62	539424	492096
63	402544	315024
64	850096	769232
66	958848	897744
68	868176	778640
70	865632	798048
72	806864	741040
74	650944	592944
76	616352	554672
78	339024	306864
80	333104	300320
82	442112	409984
84	275952	243072
86	433792	418272
88	280000	261504
90	303184	293008
92	360912	349344
94	209696	196864
96	112624	106512
98	168800	116224
100	210496	207712
102	96224	94224
104	86416	84496
106	109552	108272
108	94240	92752
110	212528	211264
112	125952	124960
114	104896	103824
116	130288	129264
118	46064	45200
120	27344	26176
122	21120	20208
124	34704	33696
126	52256	51616
128	50672	49472
132	30048	29264
136	39232	36704
140	25216	24800
144	16496	16064
148	16128	15888
152	13872	13680
156	28464	28384
160	27120	27072
164	20464	20464
168	23520	23520
172	11296	11296
176	6352	6352
180	2880	2848
184	4336	2960
188	6624	1664
192	9888	4816
196	9376	5728
200	4896	2224
204	5840	3008
208	2800	1616
212	2336	2288
216	1280	1280
220	1040	1040
224	720	720
228	1024	1024
232	1008	1008
236	912	912
240	1136	1120
244	512	512
248	1008	1008
252	672	672
256	1440	1440
264	3696	3696
272	3088	3072
280	4640	4640
288	5696	5696
296	8832	8832
304	10656	10656
312	15008	14992
320	16768	16752
328	20160	20160
336	19376	19328
344	20240	19072
352	21808	18848
360	19744	17760
368	15920	15712
376	14960	14432
384	16176	14112
392	17664	15504
400	15744	14784
408	15776	15632
416	18464	18464
424	22928	22928
432	26000	26000
440	32144	32144
448	33888	33888
456	37232	37232
464	39856	39856
472	41936	41936
480	48256	48256
488	53920	53920
496	62896	62896
504	60624	60608
512	120960	120896
528	110032	109872
544	96336	93328
560	83760	82832
576	72944	72688
592	69632	68384
608	82048	80416
624	110160	109104
640	117120	117104
656	96784	96784
672	80432	80432
688	41248	41248
704	21072	21056
720	20016	19952
736	30272	29584
752	39520	38720
768	43584	43120
784	68272	67664
800	44576	43488
816	43824	43472
832	42864	42864
848	37072	37072
864	31648	31648
880	25616	25616
896	19376	19376
912	18944	18912
928	11152	11136
944	9536	9344
960	10160	9552
976	10656	9872
992	10208	9584
1008	10528	9232
1024	27696	25696
1056	21504	18736
1088	14464	13504
1120	9168	9120
1152	4864	4864
1184	9584	9584
1216	4960	4928
1248	161296	161232
1280	508032	506656
1312	17008	16512
1344	57904	56192
1376	24176	23696
1408	16880	15664
1440	16592	15280
1472	17264	16304
1504	13952	12912
1536	9136	8304
1568	6848	5632
1600	7824	6496
1632	8928	6368
1664	7536	7248
1696	7200	6320
1728	5792	4656
1760	3920	3920
1792	3120	3120
1824	4752	4752
1856	2480	2416
1888	5456	4112
1920	10368	9552
1952	11952	11232
1984	15888	14800
2016	18016	15968
2048	21760	20768
2112	8672	7008
2176	7936	4464
2240	8016	7456
2304	13232	11280
2368	16848	16144
2432	11296	8752
2496	8816	7984
2560	10864	8304
2624	18560	16960
2688	27168	24320
2752	17888	17120
2816	11632	11136
2880	15888	11408
2944	14256	11920
3008	15744	13680
3072	24528	17968
3136	29136	8336
3200	44816	14400
3264	44720	15472
3328	49728	23232
3392	60112	33008
3456	46832	15344
3520	41760	10704
3584	23472	13216
3648	17712	17264
3712	34976	33824
3776	31072	28464
3840	13872	13872
3904	12304	12304
3968	14064	14032
4032	27184	23792
4096	52288	52000
4224	56560	55424
4352	94608	91696
4480	90896	87072
4608	73552	69264
4736	79456	79456
4864	78384	73520
4992	83216	78080
5120	105936	98384
5248	92016	86368
5376	111984	107024
5504	72208	65968
5632	77408	72720
5760	68832	63488
5888	50576	46560
6016	36432	36432
6144	37184	37184
6272	20912	19168
6400	28160	22480
6528	38656	25408
6656	44848	35264
6784	42896	29440
6912	42080	27584
7040	43440	26848
7168	25488	14848
7296	14112	4176
7424	13152	2976
7552	12896	3056
7680	27376	17056
7808	65136	55040
7936	76800	66992
8064	75344	65504
8192	133744	113344
8448	125968	105456
8704	126912	107728
8960	125472	111120
9216	96976	90928
9472	40992	40352
9728	21776	21392
9984	43840	32752
10240	122576	46272
10496	116704	47472
10752	115296	55696
11008	123168	62288
11264	155872	94112
11520	157552	97824
11776	118336	78448
12032	100304	70960
12288	89104	74192
12544	84688	81584
12800	80608	80336
13056	70288	69952
13312	70480	68448
13568	61344	45168
13824	112544	69712
14080	130592	78256
14336	126864	72032
14592	130624	70288
14848	133392	70272
15104	129136	62144
15360	111872	56432
15616	70080	44912
15872	55744	37536
16128	50656	35232
16384	206160	78032
16896	105728	73120
17408	110320	62272
17920	81216	35264
18432	79360	28288
18944	65792	20752
19456	314848	230576
19968	517008	356352
20480	98208	50352
20992	25664	10816
21504	15424	7520
22016	8336	256
22528	8864	2416
23040	11104	3536
23552	131552	97776
24064	215040	159712
24576	21792	8496
25088	4160	1152
25600	1280	0
26112	6048	4592
26624	3792	1968
27136	2368	752
27648	2080	448
28160	3648	2640
28672	4128	2304
29184	2576	448
29696	6368	2672
30208	70064	52432
30720	2128	1680
31232	7840	4256
31744	8144	8144
32256	7712	7712
32768	14160	14160
33792	8800	8800
34816	0	0
35840	0	0
36864	112	112
37888	2736	1232
38912	3552	1296
39936	5952	2288
40960	4400	4400
41984	4128	4128
43008	2272	2272
44032	0	0
45056	16	16
46080	160	128
47104	13232	10672
48128	77008	74432
49152	3648	1776
50176	4816	1648
51200	2288	1648
52224	800	800
53248	384	64
54272	2256	0
55296	2736	16
56320	2304	432
57344	7104	1808
58368	5536	1696
59392	6528	1488
60416	22112	19216
61440	10656	2864
62464	6160	624
63488	4544	288
64512	3392	752
65536	9568	2160
67584	15584	7264
69632	6624	3328
71680	736	736
73728	16	0
75776	2240	640
77824	8160	2912
79872	3456	2720
81920	656	656
83968	64	64
86016	8960	5200
88064	6688	3088
90112	5152	2224
92160	48	48
94208	64	32
96256	5408	2224
98304	6608	2752
100352	2304	2304
102400	112	112
104448	2096	384
106496	11824	6528
108544	7056	3008
110592	1408	1232
112640	0	0
114688	784	624
116736	6896	2736
118784	6000	2864
120832	1040	1040
122880	112	64
124928	6096	2832
126976	8864	5200
129024	6416	2480
131072	400	400
135168	11408	4480
139264	3328	3168
143360	9680	5920
147456	11552	5056
151552	512	496
155648	16720	8928
159744	16976	16944
163840	30672	22912
167936	511856	508240
172032	2608	1344
176128	13680	6112
180224	1056	1008
184320	15616	7952
188416	5536	2432
192512	6864	2096
196608	9360	5808
200704	2208	752
204800	17424	9008
208896	2176	1456
212992	8528	3584
217088	7488	4560
221184	6256	2656
225280	15248	7808
229376	1072	944
233472	11984	4432
237568	4144	3376
241664	9504	4928
245760	11488	5552
249856	976	704
253952	13952	5840
258048	2768	2624
262144	21152	10240
270336	36592	15424
278528	34384	16000
286720	12720	4864
294912	14320	9264
303104	17600	11392
311296	10192	4976
319488	8144	4592
327680	5536	3072
335872	37248	36912
344064	354496	352608
352256	294064	293328
360448	544	144
368640	3680	1920
376832	720	160
385024	4608	1920
393216	2816	1056
401408	4864	1024
409600	3536	1568
417792	192	144
425984	4064	2208
434176	208	208
442368	3312	1328
450560	928	896
458752	304	288
466944	4064	1888
475136	192	176
483328	3632	1872
491520	576	544
499712	2432	896
507904	2112	1584
516096	432	352
524288	4272	2160
540672	5520	3040
557056	4544	2432
573440	4784	2368
589824	3296	1696
606208	1808	1680
622592	4208	2064
638976	4464	2624
655360	4304	2480
671744	5008	3008
688128	3808	1632
704512	1616	1504
720896	4064	2064
737280	4000	2048
753664	4752	2352
770048	4528	2448
786432	3856	2096
802816	2224	1344
819200	3040	1840
835584	4160	2032
851968	3952	2016
868352	4848	2656
884736	4288	2112
901120	2912	1312
917504	2016	1568
933888	4416	2368
950272	4352	2544
966656	4784	2608
983040	4384	2016
999424	3760	1712
1015808	1984	1664
1032192	4736	2672
1048576	8960	4704
1081344	8128	4176
1114112	6176	3728
1146880	9632	5632
1179648	8336	4528
1212416	5360	3488
1245184	9168	5120
1277952	8928	5312
1310720	5440	3408
1343488	9168	5296
1376256	9616	5360
1409024	6704	4288
1441792	61552	57552
1474560	25728	21584
1507328	12656	10160
1540096	15264	11392
1572864	16160	12080
1605632	13712	10800
1638400	15088	11440
1671168	16224	11552
1703936	109856	106096
1736704	41664	38928
1769472	16096	12352
1802240	8208	4592
1835008	74864	72768
1867776	10080	6320
1900544	9344	5536
1933312	6640	4976
1966080	9520	6064
1998848	9632	5664
2031616	6768	4704
2064384	10048	5952
2097152	16752	9776
2162688	19424	11152
2228224	17072	10704
2293760	17968	11152
2359296	19392	11360
2424832	14960	9488
2490368	13344	7888
2555904	10800	7296
2621440	7712	5552
2686976	7072	5296
2752512	94368	94016
2818048	728912	728512
2883584	233168	232640
2949120	6144	5552
3014656	6768	6144
3080192	6096	5584
3145728	5920	5408
3211264	5328	4816
3276800	6416	6000
3342336	6800	6144
3407872	4896	4400
3473408	5504	4960
3538944	7008	6368
3604480	48256	47920
3670016	49792	49136
3735552	5328	5040
3801088	4656	4384
3866624	4032	3392
3932160	4272	3872
3997696	4160	3792
4063232	5168	4400
4128768	4016	3856
4194304	19264	18656
4325376	29328	28480
4456448	7984	7312
4587520	8256	7712
4718592	9680	8896
4849664	8480	7760
4980736	9648	9056
5111808	9136	8400
5242880	8784	8064
5373952	10880	10176
5505024	9616	8816
5636096	10496	9296
5767168	12736	11392
5898240	10624	9472
6029312	12608	11440
6160384	11520	10480
6291456	11568	10176
6422528	12944	11776
6553600	11440	10448
6684672	11024	9920
6815744	13472	12384
6946816	11696	10544
7077888	14064	12784
7208960	20032	18624
7340032	18320	16944
7471104	20608	19456
7602176	18784	17536
7733248	18960	18192
7864320	20368	19680
7995392	18912	17840
8126464	27968	26816
8257536	28368	26800
8388608	60656	57744
8650752	63504	60160
8912896	68560	64944
9175040	71056	68160
9437184	70624	67248
9699328	72880	69232
9961472	65296	62080
10223616	52928	50112
10485760	54960	52224
10747904	55424	51408
11010048	53296	49488
11272192	56768	52736
11534336	58064	53616
11796480	61904	57424
12058624	60592	56304
12320768	57264	52880
12582912	43808	39664
12845056	66640	63168
13107200	30096	27008
13369344	39808	35536
13631488	42608	37744
13893632	44592	40032
14155776	49744	45072
14417920	50208	45488
14680064	40192	33824
14942208	34400	28160
15204352	24928	17776
15466496	24688	19536
15728640	22304	17344
15990784	23184	16624
16252928	22080	13424
16515072	24416	15168
16777216	48176	31440
17301504	44928	27312
17825792	49104	28720
18350080	43248	24832
18874368	46064	25264
19398656	38336	19696
19922944	42992	23344
20447232	42048	22928
20971520	40272	25040
21495808	39360	21600
22020096	40064	22976
22544384	37904	22688
23068672	40288	25200
23592960	31696	19008
24117248	37680	22576
24641536	36736	21440
25165824	37584	22576
25690112	34992	19552
26214400	33888	21632
26738688	35072	20304
27262976	39328	23728
27787264	36144	18128
28311552	37296	20656
28835840	35616	20416
29360128	38864	22192
29884416	36816	19680
30408704	34896	19104
30932992	38448	22592
31457280	37280	21584
31981568	37680	20416
32505856	40352	19120
33030144	44784	22704
33554432	83536	42192
34603008	81872	42720
35651584	77344	43504
36700160	77200	43360
37748736	82848	47168
38797312	79232	44944
39845888	76176	41504
40894464	66736	34080
41943040	60128	30352
42991616	60032	28128
44040192	57600	25968
45088768	52880	25504
46137344	52768	25184
47185920	46736	23168
48234496	46976	22544
49283072	42112	22000
50331648	45840	21728
51380224	42320	20016
52428800	41376	18672
53477376	41520	18512
54525952	35248	16336
55574528	35440	15568
56623104	32736	14896
57671680	27184	13456
58720256	26736	14128
59768832	40064	19760
60817408	41584	21152
61865984	36080	20928
62914560	41088	23872
63963136	38640	22384
65011712	46832	28256
66060288	37184	26624
67108864	314368	234960
69206016	290704	273232
71303168	466064	450784
73400320	557664	500784
75497472	90272	77232
77594624	48080	36272
79691776	22384	20096
81788928	18448	17584
83886080	17936	17024
85983232	17104	16448
88080384	16016	15408
90177536	130480	99856
92274688	11584	11424
94371840	10560	10464
96468992	9328	9104
98566144	7104	6928
100663296	6384	6256
102760448	5056	4320
104857600	6400	2672
106954752	5424	944
109051904	2960	928
111149056	1056	880
113246208	1008	896
115343360	816	560
117440512	656	480
119537664	688	512
121634816	800	608
123731968	368	336
125829120	400	352
127926272	2064	224
130023424	2208	176
132120576	112	64
134217728	832	160
138412032	8720	304
142606336	5904	2096
146800640	13728	48
150994944	5232	32
155189248	0	0
159383552	35888	16864
163577856	32	16
167772160	0	0
171966464	0	0
176160768	1392	1392
180355072	2224	2224
184549376	2448	2448
188743680	2464	2464
192937984	2560	2560
197132288	2064	2064
201326592	2336	2336
205520896	2304	2304
209715200	2256	2256
213909504	2352	2352
218103808	4256	720
222298112	240	16
226492416	16	0
230686720	50304	43936
234881024	336	336
239075328	0	0
243269632	0	0
247463936	0	0
251658240	0	0
255852544	0	0
260046848	0	0
264241152	0	0
268435456	0	0
276824064	0	0
285212672	0	0
293601280	0	0
301989888	0	0
310378496	0	0
318767104	0	0
327155712	0	0
335544320	0	0
343932928	0	0
352321536	0	0
360710144	0	0
369098752	0	0
377487360	0	0
385875968	0	0
394264576	0	0
402653184	0	0
411041792	0	0
419430400	0	0
427819008	0	0
436207616	0	0
444596224	0	0
452984832	0	0
461373440	0	0
469762048	0	0
478150656	0	0
486539264	0	0
494927872	0	0
503316480	0	0
511705088	0	0
520093696	0	0
528482304	0	0
536870912	0	0
553648128	0	0
570425344	0	0
587202560	0	0
603979776	0	0
620756992	0	0
637534208	0	0
654311424	0	0
671088640	0	0
687865856	0	0
704643072	0	0
721420288	0	0
738197504	0	0
754974720	0	0
771751936	0	0
788529152	0	0
805306368	0	0
822083584	0	0
838860800	0	0
855638016	0	0
872415232	0	0
889192448	0	0
905969664	0	0
922746880	0	0
939524096	0	0
956301312	0	0
973078528	0	0
989855744	0	0
1006632960	0	0
1023410176	0	0
1040187392	0	0
1056964608	0	0
1073741824	0	0
1107296256	0	0
1140850688	0	0
1174405120	0	0
1207959552	0	0
1241513984	0	0
1275068416	0	0
1308622848	0	0
1342177280	0	0
1375731712	0	0
1409286144	0	0
1442840576	0	0
1476395008	0	0
1509949440	0	0
1543503872	0	0
1577058304	0	0
1610612736	0	0
1644167168	0	0
1677721600	0	0
1711276032	0	0
1744830464	0	0
1778384896	0	0
1811939328	0	0
1845493760	0	0
1879048192	0	0
1912602624	0	0
1946157056	0	0
1979711488	0	0
2013265920	0	0
2046820352	0	0
2080374784	0	0
2113929216	0	0
2147483648	0	0
2214592512	0	0
2281701376	0	0
2348810240	0	0
2415919104	0	0
2483027968	0	0
2550136832	0	0
2617245696	0	0
2684354560	0	0
2751463424	0	0
2818572288	0	0
2885681152	0	0
2952790016	0	0
3019898880	0	0
3087007744	0	0
3154116608	0	0
3221225472	0	0
3288334336	0	0
3355443200	0	0
3422552064	0	0
3489660928	0	0
3556769792	0	0
3623878656	0	0
3690987520	0	0
3758096384	0	0
3825205248	0	0
3892314112	0	0
3959422976	0	0
4026531840	0	0
4093640704	0	0
4160749568	0	0
4227858432	0	0
~~~~~~~~~~Reuse Distance Profiler output end~~~~~~~~~~

Sampler size:77092

DRAM Statistics
 CHANNEL 0
 RQ ROW_BUFFER_HIT:     419530  ROW_BUFFER_MISS:    7983013
 DBUS AVG_CONGESTED_CYCLE:    3.96593
 WQ ROW_BUFFER_HIT:     283927  ROW_BUFFER_MISS:    2490703  FULL:          0


CPU 0 Branch Prediction Accuracy: 98.2818% MPKI: 0.430807 Average ROB Occupancy at Mispredict: 313.188
Branch type MPKI
BRANCH_DIRECT_JUMP: 8.8e-05
BRANCH_INDIRECT: 1.66667e-05
BRANCH_CONDITIONAL: 0.430431
BRANCH_DIRECT_CALL: 0.000136667
BRANCH_INDIRECT_CALL: 5.33333e-06
BRANCH_RETURN: 0.000128667

