
*** ChampSim Multicore Out-of-Order Simulator ***

Warmup Instructions: 50000000
Simulation Instructions: 1500000000
Number of CPUs: 1
Off-chip DRAM Size: 4 GiB Channels: 1 Width: 64-bit Data Rate: 3200 MT/s

VirtualMemory physical capacity: 8588881920 num_ppages: 2096895
VirtualMemory page size: 4096 log2_page_size: 12

CPU 0 runs /s/traces/champsim_traces/445.gobmk-2B.champsimtrace.xz
CPU 0 Bimodal branch predictor
Basic BTB sets: 1024 ways: 8 indirect buffer size: 4096 RAS size: 64
Initializing LRU.
Initializing LRU.
Initializing LRU.
Initializing LRU.
Initializing rdLRU.
Initializing LRU.
Heartbeat CPU 0 instructions: 2000001 cycles: 517977 heartbeat IPC: 3.86118 cumulative IPC: 3.86118 (Simulation time: 0 hr 1 min 3 sec) 
Heartbeat CPU 0 instructions: 4000003 cycles: 1036101 heartbeat IPC: 3.86008 cumulative IPC: 3.86063 (Simulation time: 0 hr 2 min 9 sec) 
Heartbeat CPU 0 instructions: 6000002 cycles: 1550541 heartbeat IPC: 3.88772 cumulative IPC: 3.86962 (Simulation time: 0 hr 3 min 20 sec) 
Heartbeat CPU 0 instructions: 8000002 cycles: 2063264 heartbeat IPC: 3.90074 cumulative IPC: 3.87735 (Simulation time: 0 hr 4 min 25 sec) 
Heartbeat CPU 0 instructions: 10000002 cycles: 2579505 heartbeat IPC: 3.87416 cumulative IPC: 3.87671 (Simulation time: 0 hr 5 min 28 sec) 
Heartbeat CPU 0 instructions: 12000002 cycles: 3096938 heartbeat IPC: 3.86523 cumulative IPC: 3.8748 (Simulation time: 0 hr 6 min 33 sec) 
Heartbeat CPU 0 instructions: 14000000 cycles: 3619311 heartbeat IPC: 3.82868 cumulative IPC: 3.86814 (Simulation time: 0 hr 7 min 43 sec) 
Heartbeat CPU 0 instructions: 16000000 cycles: 4133295 heartbeat IPC: 3.89117 cumulative IPC: 3.871 (Simulation time: 0 hr 8 min 51 sec) 
Heartbeat CPU 0 instructions: 18000002 cycles: 4651237 heartbeat IPC: 3.86144 cumulative IPC: 3.86994 (Simulation time: 0 hr 10 min 1 sec) 
Heartbeat CPU 0 instructions: 20000001 cycles: 5163423 heartbeat IPC: 3.90483 cumulative IPC: 3.8734 (Simulation time: 0 hr 11 min 5 sec) 
Heartbeat CPU 0 instructions: 22000000 cycles: 5685385 heartbeat IPC: 3.83169 cumulative IPC: 3.86957 (Simulation time: 0 hr 12 min 10 sec) 
Heartbeat CPU 0 instructions: 24000000 cycles: 6200224 heartbeat IPC: 3.88471 cumulative IPC: 3.87083 (Simulation time: 0 hr 13 min 14 sec) 
Heartbeat CPU 0 instructions: 26000000 cycles: 6718148 heartbeat IPC: 3.86157 cumulative IPC: 3.87011 (Simulation time: 0 hr 14 min 20 sec) 
Heartbeat CPU 0 instructions: 28000001 cycles: 7236395 heartbeat IPC: 3.85917 cumulative IPC: 3.86933 (Simulation time: 0 hr 15 min 25 sec) 
Heartbeat CPU 0 instructions: 30000000 cycles: 7753579 heartbeat IPC: 3.86709 cumulative IPC: 3.86918 (Simulation time: 0 hr 16 min 32 sec) 
Heartbeat CPU 0 instructions: 32000001 cycles: 8271168 heartbeat IPC: 3.86407 cumulative IPC: 3.86886 (Simulation time: 0 hr 17 min 39 sec) 
Heartbeat CPU 0 instructions: 34000002 cycles: 8791296 heartbeat IPC: 3.84521 cumulative IPC: 3.86746 (Simulation time: 0 hr 18 min 45 sec) 
Heartbeat CPU 0 instructions: 36000002 cycles: 9310224 heartbeat IPC: 3.8541 cumulative IPC: 3.86672 (Simulation time: 0 hr 19 min 54 sec) 
Heartbeat CPU 0 instructions: 38000001 cycles: 9833284 heartbeat IPC: 3.82365 cumulative IPC: 3.86443 (Simulation time: 0 hr 21 min 2 sec) 
Heartbeat CPU 0 instructions: 40000001 cycles: 10351229 heartbeat IPC: 3.86141 cumulative IPC: 3.86428 (Simulation time: 0 hr 22 min 9 sec) 
Heartbeat CPU 0 instructions: 42000000 cycles: 10865755 heartbeat IPC: 3.88707 cumulative IPC: 3.86536 (Simulation time: 0 hr 23 min 14 sec) 
Heartbeat CPU 0 instructions: 44000001 cycles: 11378500 heartbeat IPC: 3.90058 cumulative IPC: 3.86694 (Simulation time: 0 hr 24 min 21 sec) 
Heartbeat CPU 0 instructions: 46000002 cycles: 11891513 heartbeat IPC: 3.89854 cumulative IPC: 3.86831 (Simulation time: 0 hr 25 min 28 sec) 
Heartbeat CPU 0 instructions: 48000000 cycles: 12408427 heartbeat IPC: 3.86911 cumulative IPC: 3.86834 (Simulation time: 0 hr 26 min 30 sec) 
Heartbeat CPU 0 instructions: 50000002 cycles: 12930486 heartbeat IPC: 3.83099 cumulative IPC: 3.86683 (Simulation time: 0 hr 27 min 34 sec) 

Warmup complete CPU 0 instructions: 50000002 cycles: 12930486 (Simulation time: 0 hr 27 min 34 sec) 

Heartbeat CPU 0 instructions: 52000001 cycles: 15092029 heartbeat IPC: 0.925264 cumulative IPC: 0.925264 (Simulation time: 0 hr 28 min 45 sec) 

Region of Interest Statistics
cpu0_DTLB TOTAL     ACCESS:     396845  HIT:     394703  MISS:       2142
cpu0_DTLB LOAD      ACCESS:     302499  HIT:     300551  MISS:       1948
cpu0_DTLB RFO       ACCESS:      94346  HIT:      94152  MISS:        194
cpu0_DTLB PREFETCH  ACCESS:          0  HIT:          0  MISS:          0
cpu0_DTLB WRITEBACK ACCESS:          0  HIT:          0  MISS:          0
cpu0_ITLB TOTAL     ACCESS:     197952  HIT:     197943  MISS:          9
cpu0_ITLB LOAD      ACCESS:     197952  HIT:     197943  MISS:          9
cpu0_ITLB RFO       ACCESS:          0  HIT:          0  MISS:          0
cpu0_ITLB PREFETCH  ACCESS:          0  HIT:          0  MISS:          0
cpu0_ITLB WRITEBACK ACCESS:          0  HIT:          0  MISS:          0
cpu0_L1I TOTAL     ACCESS:      97990  HIT:      93808  MISS:       4182
cpu0_L1I LOAD      ACCESS:      97990  HIT:      93808  MISS:       4182
cpu0_L1I RFO       ACCESS:          0  HIT:          0  MISS:          0
cpu0_L1I PREFETCH  ACCESS:          0  HIT:          0  MISS:          0
cpu0_L1I WRITEBACK ACCESS:          0  HIT:          0  MISS:          0
cpu0_STLB TOTAL     ACCESS:       2151  HIT:       2118  MISS:         33
cpu0_STLB LOAD      ACCESS:       1957  HIT:       1930  MISS:         27
cpu0_STLB RFO       ACCESS:        194  HIT:        188  MISS:          6
cpu0_STLB PREFETCH  ACCESS:          0  HIT:          0  MISS:          0
cpu0_STLB WRITEBACK ACCESS:          0  HIT:          0  MISS:          0
cpu0_L1D TOTAL     ACCESS:     454861  HIT:     444815  MISS:      10046
cpu0_L1D LOAD      ACCESS:     293014  HIT:     285872  MISS:       7142
cpu0_L1D RFO       ACCESS:     161814  HIT:     158915  MISS:       2899
cpu0_L1D PREFETCH  ACCESS:          0  HIT:          0  MISS:          0
cpu0_L1D WRITEBACK ACCESS:          0  HIT:          0  MISS:          0
cpu0_L2C TOTAL     ACCESS:      17928  HIT:      14689  MISS:       3239
cpu0_L2C LOAD      ACCESS:      11324  HIT:       8834  MISS:       2490
cpu0_L2C RFO       ACCESS:       2899  HIT:       2151  MISS:        748
cpu0_L2C PREFETCH  ACCESS:          0  HIT:          0  MISS:          0
cpu0_L2C WRITEBACK ACCESS:       3700  HIT:       3700  MISS:          0
LLC TOTAL     ACCESS:       4804  HIT:       4577  MISS:        227
LLC LOAD      ACCESS:       2490  HIT:       2310  MISS:        180
LLC RFO       ACCESS:        748  HIT:        704  MISS:         44
LLC PREFETCH  ACCESS:          0  HIT:          0  MISS:          0
LLC WRITEBACK ACCESS:       1565  HIT:       1562  MISS:          3
Heartbeat CPU 0 instructions: 54000000 cycles: 17510654 heartbeat IPC: 0.826916 cumulative IPC: 0.87333 (Simulation time: 0 hr 30 min 1 sec) 

Region of Interest Statistics
cpu0_DTLB TOTAL     ACCESS:     831221  HIT:     827013  MISS:       4208
cpu0_DTLB LOAD      ACCESS:     615484  HIT:     611677  MISS:       3807
cpu0_DTLB RFO       ACCESS:     215737  HIT:     215336  MISS:        401
cpu0_DTLB PREFETCH  ACCESS:          0  HIT:          0  MISS:          0
cpu0_DTLB WRITEBACK ACCESS:          0  HIT:          0  MISS:          0
cpu0_ITLB TOTAL     ACCESS:     385031  HIT:     385005  MISS:         26
cpu0_ITLB LOAD      ACCESS:     385031  HIT:     385005  MISS:         26
cpu0_ITLB RFO       ACCESS:          0  HIT:          0  MISS:          0
cpu0_ITLB PREFETCH  ACCESS:          0  HIT:          0  MISS:          0
cpu0_ITLB WRITEBACK ACCESS:          0  HIT:          0  MISS:          0
cpu0_L1I TOTAL     ACCESS:     234049  HIT:     223323  MISS:      10726
cpu0_L1I LOAD      ACCESS:     234049  HIT:     223323  MISS:      10726
cpu0_L1I RFO       ACCESS:          0  HIT:          0  MISS:          0
cpu0_L1I PREFETCH  ACCESS:          0  HIT:          0  MISS:          0
cpu0_L1I WRITEBACK ACCESS:          0  HIT:          0  MISS:          0
cpu0_STLB TOTAL     ACCESS:       4234  HIT:       4137  MISS:         97
cpu0_STLB LOAD      ACCESS:       3833  HIT:       3743  MISS:         90
cpu0_STLB RFO       ACCESS:        401  HIT:        394  MISS:          7
cpu0_STLB PREFETCH  ACCESS:          0  HIT:          0  MISS:          0
cpu0_STLB WRITEBACK ACCESS:          0  HIT:          0  MISS:          0
cpu0_L1D TOTAL     ACCESS:     965181  HIT:     941590  MISS:      23591
cpu0_L1D LOAD      ACCESS:     599713  HIT:     583420  MISS:      16293
cpu0_L1D RFO       ACCESS:     365371  HIT:     358090  MISS:       7281
cpu0_L1D PREFETCH  ACCESS:          0  HIT:          0  MISS:          0
cpu0_L1D WRITEBACK ACCESS:          0  HIT:          0  MISS:          0
cpu0_L2C TOTAL     ACCESS:      44243  HIT:      35392  MISS:       8851
cpu0_L2C LOAD      ACCESS:      27019  HIT:      20109  MISS:       6910
cpu0_L2C RFO       ACCESS:       7281  HIT:       5342  MISS:       1939
cpu0_L2C PREFETCH  ACCESS:          0  HIT:          0  MISS:          0
cpu0_L2C WRITEBACK ACCESS:       9926  HIT:       9926  MISS:          0
LLC TOTAL     ACCESS:      13104  HIT:      12527  MISS:        577
LLC LOAD      ACCESS:       6910  HIT:       6403  MISS:        507
LLC RFO       ACCESS:       1939  HIT:       1875  MISS:         64
LLC PREFETCH  ACCESS:          0  HIT:          0  MISS:          0
LLC WRITEBACK ACCESS:       4253  HIT:       4247  MISS:          6
Heartbeat CPU 0 instructions: 56000001 cycles: 19836548 heartbeat IPC: 0.859885 cumulative IPC: 0.868802 (Simulation time: 0 hr 31 min 16 sec) 

Region of Interest Statistics
cpu0_DTLB TOTAL     ACCESS:    1246515  HIT:    1238683  MISS:       7832
cpu0_DTLB LOAD      ACCESS:     925941  HIT:     918809  MISS:       7132
cpu0_DTLB RFO       ACCESS:     320574  HIT:     319874  MISS:        700
cpu0_DTLB PREFETCH  ACCESS:          0  HIT:          0  MISS:          0
cpu0_DTLB WRITEBACK ACCESS:          0  HIT:          0  MISS:          0
cpu0_ITLB TOTAL     ACCESS:     578810  HIT:     578771  MISS:         39
cpu0_ITLB LOAD      ACCESS:     578810  HIT:     578771  MISS:         39
cpu0_ITLB RFO       ACCESS:          0  HIT:          0  MISS:          0
cpu0_ITLB PREFETCH  ACCESS:          0  HIT:          0  MISS:          0
cpu0_ITLB WRITEBACK ACCESS:          0  HIT:          0  MISS:          0
cpu0_L1I TOTAL     ACCESS:     340201  HIT:     323599  MISS:      16602
cpu0_L1I LOAD      ACCESS:     340201  HIT:     323599  MISS:      16602
cpu0_L1I RFO       ACCESS:          0  HIT:          0  MISS:          0
cpu0_L1I PREFETCH  ACCESS:          0  HIT:          0  MISS:          0
cpu0_L1I WRITEBACK ACCESS:          0  HIT:          0  MISS:          0
cpu0_STLB TOTAL     ACCESS:       7871  HIT:       7720  MISS:        151
cpu0_STLB LOAD      ACCESS:       7171  HIT:       7029  MISS:        142
cpu0_STLB RFO       ACCESS:        700  HIT:        691  MISS:          9
cpu0_STLB PREFETCH  ACCESS:          0  HIT:          0  MISS:          0
cpu0_STLB WRITEBACK ACCESS:          0  HIT:          0  MISS:          0
cpu0_L1D TOTAL     ACCESS:    1446327  HIT:    1410777  MISS:      35550
cpu0_L1D LOAD      ACCESS:     904611  HIT:     879253  MISS:      25358
cpu0_L1D RFO       ACCESS:     541565  HIT:     531401  MISS:      10164
cpu0_L1D PREFETCH  ACCESS:          0  HIT:          0  MISS:          0
cpu0_L1D WRITEBACK ACCESS:          0  HIT:          0  MISS:          0
cpu0_L2C TOTAL     ACCESS:      66378  HIT:      53699  MISS:      12679
cpu0_L2C LOAD      ACCESS:      41960  HIT:      31910  MISS:      10050
cpu0_L2C RFO       ACCESS:      10164  HIT:       7538  MISS:       2626
cpu0_L2C PREFETCH  ACCESS:          0  HIT:          0  MISS:          0
cpu0_L2C WRITEBACK ACCESS:      14226  HIT:      14225  MISS:          1
LLC TOTAL     ACCESS:      18515  HIT:      17680  MISS:        835
LLC LOAD      ACCESS:      10050  HIT:       9303  MISS:        747
LLC RFO       ACCESS:       2626  HIT:       2544  MISS:         82
LLC PREFETCH  ACCESS:          0  HIT:          0  MISS:          0
LLC WRITEBACK ACCESS:       5837  HIT:       5831  MISS:          6
Heartbeat CPU 0 instructions: 58000003 cycles: 22248062 heartbeat IPC: 0.829355 cumulative IPC: 0.858593 (Simulation time: 0 hr 32 min 30 sec) 

Region of Interest Statistics
cpu0_DTLB TOTAL     ACCESS:    1676633  HIT:    1666588  MISS:      10045
cpu0_DTLB LOAD      ACCESS:    1232514  HIT:    1223340  MISS:       9174
cpu0_DTLB RFO       ACCESS:     444119  HIT:     443248  MISS:        871
cpu0_DTLB PREFETCH  ACCESS:          0  HIT:          0  MISS:          0
cpu0_DTLB WRITEBACK ACCESS:          0  HIT:          0  MISS:          0
cpu0_ITLB TOTAL     ACCESS:     766057  HIT:     765998  MISS:         59
cpu0_ITLB LOAD      ACCESS:     766057  HIT:     765998  MISS:         59
cpu0_ITLB RFO       ACCESS:          0  HIT:          0  MISS:          0
cpu0_ITLB PREFETCH  ACCESS:          0  HIT:          0  MISS:          0
cpu0_ITLB WRITEBACK ACCESS:          0  HIT:          0  MISS:          0
cpu0_L1I TOTAL     ACCESS:     484380  HIT:     461242  MISS:      23138
cpu0_L1I LOAD      ACCESS:     484380  HIT:     461242  MISS:      23138
cpu0_L1I RFO       ACCESS:          0  HIT:          0  MISS:          0
cpu0_L1I PREFETCH  ACCESS:          0  HIT:          0  MISS:          0
cpu0_L1I WRITEBACK ACCESS:          0  HIT:          0  MISS:          0
cpu0_STLB TOTAL     ACCESS:      10104  HIT:       9850  MISS:        254
cpu0_STLB LOAD      ACCESS:       9233  HIT:       8990  MISS:        243
cpu0_STLB RFO       ACCESS:        871  HIT:        860  MISS:         11
cpu0_STLB PREFETCH  ACCESS:          0  HIT:          0  MISS:          0
cpu0_STLB WRITEBACK ACCESS:          0  HIT:          0  MISS:          0
cpu0_L1D TOTAL     ACCESS:    1960757  HIT:    1913302  MISS:      47455
cpu0_L1D LOAD      ACCESS:    1207595  HIT:    1173942  MISS:      33653
cpu0_L1D RFO       ACCESS:     752908  HIT:     739145  MISS:      13763
cpu0_L1D PREFETCH  ACCESS:          0  HIT:          0  MISS:          0
cpu0_L1D WRITEBACK ACCESS:          0  HIT:          0  MISS:          0
cpu0_L2C TOTAL     ACCESS:      90017  HIT:      73236  MISS:      16781
cpu0_L2C LOAD      ACCESS:      56791  HIT:      43323  MISS:      13468
cpu0_L2C RFO       ACCESS:      13763  HIT:      10453  MISS:       3310
cpu0_L2C PREFETCH  ACCESS:          0  HIT:          0  MISS:          0
cpu0_L2C WRITEBACK ACCESS:      19424  HIT:      19423  MISS:          1
LLC TOTAL     ACCESS:      24213  HIT:      22975  MISS:       1238
LLC LOAD      ACCESS:      13468  HIT:      12347  MISS:       1121
LLC RFO       ACCESS:       3310  HIT:       3202  MISS:        108
LLC PREFETCH  ACCESS:          0  HIT:          0  MISS:          0
LLC WRITEBACK ACCESS:       7433  HIT:       7424  MISS:          9
Heartbeat CPU 0 instructions: 60000000 cycles: 24567424 heartbeat IPC: 0.862305 cumulative IPC: 0.859332 (Simulation time: 0 hr 33 min 36 sec) 

Region of Interest Statistics
cpu0_DTLB TOTAL     ACCESS:    2098686  HIT:    2085837  MISS:      12849
cpu0_DTLB LOAD      ACCESS:    1548820  HIT:    1537053  MISS:      11767
cpu0_DTLB RFO       ACCESS:     549866  HIT:     548784  MISS:       1082
cpu0_DTLB PREFETCH  ACCESS:          0  HIT:          0  MISS:          0
cpu0_DTLB WRITEBACK ACCESS:          0  HIT:          0  MISS:          0
cpu0_ITLB TOTAL     ACCESS:     960265  HIT:     960195  MISS:         70
cpu0_ITLB LOAD      ACCESS:     960265  HIT:     960195  MISS:         70
cpu0_ITLB RFO       ACCESS:          0  HIT:          0  MISS:          0
cpu0_ITLB PREFETCH  ACCESS:          0  HIT:          0  MISS:          0
cpu0_ITLB WRITEBACK ACCESS:          0  HIT:          0  MISS:          0
cpu0_L1I TOTAL     ACCESS:     587103  HIT:     557680  MISS:      29423
cpu0_L1I LOAD      ACCESS:     587103  HIT:     557680  MISS:      29423
cpu0_L1I RFO       ACCESS:          0  HIT:          0  MISS:          0
cpu0_L1I PREFETCH  ACCESS:          0  HIT:          0  MISS:          0
cpu0_L1I WRITEBACK ACCESS:          0  HIT:          0  MISS:          0
cpu0_STLB TOTAL     ACCESS:      12919  HIT:      12613  MISS:        306
cpu0_STLB LOAD      ACCESS:      11837  HIT:      11544  MISS:        293
cpu0_STLB RFO       ACCESS:       1082  HIT:       1069  MISS:         13
cpu0_STLB PREFETCH  ACCESS:          0  HIT:          0  MISS:          0
cpu0_STLB WRITEBACK ACCESS:          0  HIT:          0  MISS:          0
cpu0_L1D TOTAL     ACCESS:    2443475  HIT:    2382719  MISS:      60756
cpu0_L1D LOAD      ACCESS:    1516363  HIT:    1473546  MISS:      42817
cpu0_L1D RFO       ACCESS:     926806  HIT:     908922  MISS:      17884
cpu0_L1D PREFETCH  ACCESS:          0  HIT:          0  MISS:          0
cpu0_L1D WRITEBACK ACCESS:          0  HIT:          0  MISS:          0
cpu0_L2C TOTAL     ACCESS:     115523  HIT:      95644  MISS:      19879
cpu0_L2C LOAD      ACCESS:      72238  HIT:      56596  MISS:      15642
cpu0_L2C RFO       ACCESS:      17884  HIT:      13653  MISS:       4231
cpu0_L2C PREFETCH  ACCESS:          0  HIT:          0  MISS:          0
cpu0_L2C WRITEBACK ACCESS:      25346  HIT:      25344  MISS:          2
LLC TOTAL     ACCESS:      28794  HIT:      27327  MISS:       1467
LLC LOAD      ACCESS:      15642  HIT:      14309  MISS:       1333
LLC RFO       ACCESS:       4231  HIT:       4108  MISS:        123
LLC PREFETCH  ACCESS:          0  HIT:          0  MISS:          0
LLC WRITEBACK ACCESS:       8917  HIT:       8906  MISS:         11
Heartbeat CPU 0 instructions: 62000003 cycles: 26873057 heartbeat IPC: 0.867442 cumulative IPC: 0.860673 (Simulation time: 0 hr 34 min 44 sec) 

Region of Interest Statistics
cpu0_DTLB TOTAL     ACCESS:    2512145  HIT:    2497071  MISS:      15074
cpu0_DTLB LOAD      ACCESS:    1854102  HIT:    1840315  MISS:      13787
cpu0_DTLB RFO       ACCESS:     658043  HIT:     656756  MISS:       1287
cpu0_DTLB PREFETCH  ACCESS:          0  HIT:          0  MISS:          0
cpu0_DTLB WRITEBACK ACCESS:          0  HIT:          0  MISS:          0
cpu0_ITLB TOTAL     ACCESS:    1153514  HIT:    1153436  MISS:         78
cpu0_ITLB LOAD      ACCESS:    1153514  HIT:    1153436  MISS:         78
cpu0_ITLB RFO       ACCESS:          0  HIT:          0  MISS:          0
cpu0_ITLB PREFETCH  ACCESS:          0  HIT:          0  MISS:          0
cpu0_ITLB WRITEBACK ACCESS:          0  HIT:          0  MISS:          0
cpu0_L1I TOTAL     ACCESS:     704538  HIT:     668863  MISS:      35675
cpu0_L1I LOAD      ACCESS:     704538  HIT:     668863  MISS:      35675
cpu0_L1I RFO       ACCESS:          0  HIT:          0  MISS:          0
cpu0_L1I PREFETCH  ACCESS:          0  HIT:          0  MISS:          0
cpu0_L1I WRITEBACK ACCESS:          0  HIT:          0  MISS:          0
cpu0_STLB TOTAL     ACCESS:      15152  HIT:      14775  MISS:        377
cpu0_STLB LOAD      ACCESS:      13865  HIT:      13502  MISS:        363
cpu0_STLB RFO       ACCESS:       1287  HIT:       1273  MISS:         14
cpu0_STLB PREFETCH  ACCESS:          0  HIT:          0  MISS:          0
cpu0_STLB WRITEBACK ACCESS:          0  HIT:          0  MISS:          0
cpu0_L1D TOTAL     ACCESS:    2923730  HIT:    2852503  MISS:      71227
cpu0_L1D LOAD      ACCESS:    1813232  HIT:    1763486  MISS:      49746
cpu0_L1D RFO       ACCESS:    1110122  HIT:    1088710  MISS:      21412
cpu0_L1D PREFETCH  ACCESS:          0  HIT:          0  MISS:          0
cpu0_L1D WRITEBACK ACCESS:          0  HIT:          0  MISS:          0
cpu0_L2C TOTAL     ACCESS:     137664  HIT:     114050  MISS:      23614
cpu0_L2C LOAD      ACCESS:      85419  HIT:      66737  MISS:      18682
cpu0_L2C RFO       ACCESS:      21412  HIT:      16490  MISS:       4922
cpu0_L2C PREFETCH  ACCESS:          0  HIT:          0  MISS:          0
cpu0_L2C WRITEBACK ACCESS:      30764  HIT:      30760  MISS:          4
LLC TOTAL     ACCESS:      34507  HIT:      32774  MISS:       1733
LLC LOAD      ACCESS:      18682  HIT:      17103  MISS:       1579
LLC RFO       ACCESS:       4922  HIT:       4782  MISS:        140
LLC PREFETCH  ACCESS:          0  HIT:          0  MISS:          0
LLC WRITEBACK ACCESS:      10897  HIT:      10883  MISS:         14
Heartbeat CPU 0 instructions: 64000003 cycles: 29302866 heartbeat IPC: 0.82311 cumulative IPC: 0.855099 (Simulation time: 0 hr 35 min 57 sec) 

Region of Interest Statistics
cpu0_DTLB TOTAL     ACCESS:    2922894  HIT:    2904699  MISS:      18195
cpu0_DTLB LOAD      ACCESS:    2159867  HIT:    2143143  MISS:      16724
cpu0_DTLB RFO       ACCESS:     763027  HIT:     761556  MISS:       1471
cpu0_DTLB PREFETCH  ACCESS:          0  HIT:          0  MISS:          0
cpu0_DTLB WRITEBACK ACCESS:          0  HIT:          0  MISS:          0
cpu0_ITLB TOTAL     ACCESS:    1346692  HIT:    1346604  MISS:         88
cpu0_ITLB LOAD      ACCESS:    1346692  HIT:    1346604  MISS:         88
cpu0_ITLB RFO       ACCESS:          0  HIT:          0  MISS:          0
cpu0_ITLB PREFETCH  ACCESS:          0  HIT:          0  MISS:          0
cpu0_ITLB WRITEBACK ACCESS:          0  HIT:          0  MISS:          0
cpu0_L1I TOTAL     ACCESS:     823851  HIT:     783149  MISS:      40702
cpu0_L1I LOAD      ACCESS:     823851  HIT:     783149  MISS:      40702
cpu0_L1I RFO       ACCESS:          0  HIT:          0  MISS:          0
cpu0_L1I PREFETCH  ACCESS:          0  HIT:          0  MISS:          0
cpu0_L1I WRITEBACK ACCESS:          0  HIT:          0  MISS:          0
cpu0_STLB TOTAL     ACCESS:      18283  HIT:      17818  MISS:        465
cpu0_STLB LOAD      ACCESS:      16812  HIT:      16367  MISS:        445
cpu0_STLB RFO       ACCESS:       1471  HIT:       1451  MISS:         20
cpu0_STLB PREFETCH  ACCESS:          0  HIT:          0  MISS:          0
cpu0_STLB WRITEBACK ACCESS:          0  HIT:          0  MISS:          0
cpu0_L1D TOTAL     ACCESS:    3404009  HIT:    3320797  MISS:      83212
cpu0_L1D LOAD      ACCESS:    2112857  HIT:    2054074  MISS:      58783
cpu0_L1D RFO       ACCESS:    1290688  HIT:    1266339  MISS:      24349
cpu0_L1D PREFETCH  ACCESS:          0  HIT:          0  MISS:          0
cpu0_L1D WRITEBACK ACCESS:          0  HIT:          0  MISS:          0
cpu0_L2C TOTAL     ACCESS:     158963  HIT:     130421  MISS:      28542
cpu0_L2C LOAD      ACCESS:      99483  HIT:      76569  MISS:      22914
cpu0_L2C RFO       ACCESS:      24349  HIT:      18735  MISS:       5614
cpu0_L2C PREFETCH  ACCESS:          0  HIT:          0  MISS:          0
cpu0_L2C WRITEBACK ACCESS:      35051  HIT:      35046  MISS:          5
LLC TOTAL     ACCESS:      41558  HIT:      38132  MISS:       3426
LLC LOAD      ACCESS:      22914  HIT:      19988  MISS:       2926
LLC RFO       ACCESS:       5614  HIT:       5134  MISS:        480
LLC PREFETCH  ACCESS:          0  HIT:          0  MISS:          0
LLC WRITEBACK ACCESS:      13021  HIT:      13001  MISS:         20
Heartbeat CPU 0 instructions: 66000000 cycles: 31744323 heartbeat IPC: 0.819182 cumulative IPC: 0.850438 (Simulation time: 0 hr 37 min 4 sec) 

Region of Interest Statistics
cpu0_DTLB TOTAL     ACCESS:    3357986  HIT:    3338017  MISS:      19969
cpu0_DTLB LOAD      ACCESS:    2459163  HIT:    2440847  MISS:      18316
cpu0_DTLB RFO       ACCESS:     898823  HIT:     897170  MISS:       1653
cpu0_DTLB PREFETCH  ACCESS:          0  HIT:          0  MISS:          0
cpu0_DTLB WRITEBACK ACCESS:          0  HIT:          0  MISS:          0
cpu0_ITLB TOTAL     ACCESS:    1525901  HIT:    1525807  MISS:         94
cpu0_ITLB LOAD      ACCESS:    1525901  HIT:    1525807  MISS:         94
cpu0_ITLB RFO       ACCESS:          0  HIT:          0  MISS:          0
cpu0_ITLB PREFETCH  ACCESS:          0  HIT:          0  MISS:          0
cpu0_ITLB WRITEBACK ACCESS:          0  HIT:          0  MISS:          0
cpu0_L1I TOTAL     ACCESS:    1029713  HIT:     982136  MISS:      47577
cpu0_L1I LOAD      ACCESS:    1029713  HIT:     982136  MISS:      47577
cpu0_L1I RFO       ACCESS:          0  HIT:          0  MISS:          0
cpu0_L1I PREFETCH  ACCESS:          0  HIT:          0  MISS:          0
cpu0_L1I WRITEBACK ACCESS:          0  HIT:          0  MISS:          0
cpu0_STLB TOTAL     ACCESS:      20063  HIT:      19450  MISS:        613
cpu0_STLB LOAD      ACCESS:      18410  HIT:      17824  MISS:        586
cpu0_STLB RFO       ACCESS:       1653  HIT:       1626  MISS:         27
cpu0_STLB PREFETCH  ACCESS:          0  HIT:          0  MISS:          0
cpu0_STLB WRITEBACK ACCESS:          0  HIT:          0  MISS:          0
cpu0_L1D TOTAL     ACCESS:    3951879  HIT:    3861947  MISS:      89932
cpu0_L1D LOAD      ACCESS:    2411431  HIT:    2348353  MISS:      63078
cpu0_L1D RFO       ACCESS:    1539836  HIT:    1513070  MISS:      26766
cpu0_L1D PREFETCH  ACCESS:          0  HIT:          0  MISS:          0
cpu0_L1D WRITEBACK ACCESS:          0  HIT:          0  MISS:          0
cpu0_L2C TOTAL     ACCESS:     175484  HIT:     144528  MISS:      30956
cpu0_L2C LOAD      ACCESS:     110653  HIT:      85746  MISS:      24907
cpu0_L2C RFO       ACCESS:      26766  HIT:      20731  MISS:       6035
cpu0_L2C PREFETCH  ACCESS:          0  HIT:          0  MISS:          0
cpu0_L2C WRITEBACK ACCESS:      37977  HIT:      37972  MISS:          5
LLC TOTAL     ACCESS:      44848  HIT:      40722  MISS:       4126
LLC LOAD      ACCESS:      24907  HIT:      21382  MISS:       3525
LLC RFO       ACCESS:       6035  HIT:       5471  MISS:        564
LLC PREFETCH  ACCESS:          0  HIT:          0  MISS:          0
LLC WRITEBACK ACCESS:      13897  HIT:      13860  MISS:         37
Heartbeat CPU 0 instructions: 68000002 cycles: 34197340 heartbeat IPC: 0.815323 cumulative IPC: 0.846388 (Simulation time: 0 hr 38 min 10 sec) 

Region of Interest Statistics
cpu0_DTLB TOTAL     ACCESS:    3812287  HIT:    3791239  MISS:      21048
cpu0_DTLB LOAD      ACCESS:    2756057  HIT:    2736764  MISS:      19293
cpu0_DTLB RFO       ACCESS:    1056230  HIT:    1054475  MISS:       1755
cpu0_DTLB PREFETCH  ACCESS:          0  HIT:          0  MISS:          0
cpu0_DTLB WRITEBACK ACCESS:          0  HIT:          0  MISS:          0
cpu0_ITLB TOTAL     ACCESS:    1698480  HIT:    1698386  MISS:         94
cpu0_ITLB LOAD      ACCESS:    1698480  HIT:    1698386  MISS:         94
cpu0_ITLB RFO       ACCESS:          0  HIT:          0  MISS:          0
cpu0_ITLB PREFETCH  ACCESS:          0  HIT:          0  MISS:          0
cpu0_ITLB WRITEBACK ACCESS:          0  HIT:          0  MISS:          0
cpu0_L1I TOTAL     ACCESS:    1276477  HIT:    1222294  MISS:      54183
cpu0_L1I LOAD      ACCESS:    1276477  HIT:    1222294  MISS:      54183
cpu0_L1I RFO       ACCESS:          0  HIT:          0  MISS:          0
cpu0_L1I PREFETCH  ACCESS:          0  HIT:          0  MISS:          0
cpu0_L1I WRITEBACK ACCESS:          0  HIT:          0  MISS:          0
cpu0_STLB TOTAL     ACCESS:      21142  HIT:      20295  MISS:        847
cpu0_STLB LOAD      ACCESS:      19387  HIT:      18570  MISS:        817
cpu0_STLB RFO       ACCESS:       1755  HIT:       1725  MISS:         30
cpu0_STLB PREFETCH  ACCESS:          0  HIT:          0  MISS:          0
cpu0_STLB WRITEBACK ACCESS:          0  HIT:          0  MISS:          0
cpu0_L1D TOTAL     ACCESS:    4543217  HIT:    4450660  MISS:      92557
cpu0_L1D LOAD      ACCESS:    2708450  HIT:    2643780  MISS:      64670
cpu0_L1D RFO       ACCESS:    1833921  HIT:    1806123  MISS:      27798
cpu0_L1D PREFETCH  ACCESS:          0  HIT:          0  MISS:          0
cpu0_L1D WRITEBACK ACCESS:          0  HIT:          0  MISS:          0
cpu0_L2C TOTAL     ACCESS:     186581  HIT:     154590  MISS:      31991
cpu0_L2C LOAD      ACCESS:     118851  HIT:      92999  MISS:      25852
cpu0_L2C RFO       ACCESS:      27798  HIT:      21674  MISS:       6124
cpu0_L2C PREFETCH  ACCESS:          0  HIT:          0  MISS:          0
cpu0_L2C WRITEBACK ACCESS:      39843  HIT:      39838  MISS:          5
LLC TOTAL     ACCESS:      46448  HIT:      41423  MISS:       5025
LLC LOAD      ACCESS:      25852  HIT:      21509  MISS:       4343
LLC RFO       ACCESS:       6124  HIT:       5502  MISS:        622
LLC PREFETCH  ACCESS:          0  HIT:          0  MISS:          0
LLC WRITEBACK ACCESS:      14462  HIT:      14402  MISS:         60
Heartbeat CPU 0 instructions: 70000003 cycles: 36661740 heartbeat IPC: 0.811557 cumulative IPC: 0.842771 (Simulation time: 0 hr 39 min 17 sec) 

Region of Interest Statistics
cpu0_DTLB TOTAL     ACCESS:    4261459  HIT:    4238838  MISS:      22621
cpu0_DTLB LOAD      ACCESS:    3060604  HIT:    3040008  MISS:      20596
cpu0_DTLB RFO       ACCESS:    1200855  HIT:    1198830  MISS:       2025
cpu0_DTLB PREFETCH  ACCESS:          0  HIT:          0  MISS:          0
cpu0_DTLB WRITEBACK ACCESS:          0  HIT:          0  MISS:          0
cpu0_ITLB TOTAL     ACCESS:    1876628  HIT:    1876529  MISS:         99
cpu0_ITLB LOAD      ACCESS:    1876628  HIT:    1876529  MISS:         99
cpu0_ITLB RFO       ACCESS:          0  HIT:          0  MISS:          0
cpu0_ITLB PREFETCH  ACCESS:          0  HIT:          0  MISS:          0
cpu0_ITLB WRITEBACK ACCESS:          0  HIT:          0  MISS:          0
cpu0_L1I TOTAL     ACCESS:    1479532  HIT:    1417665  MISS:      61867
cpu0_L1I LOAD      ACCESS:    1479532  HIT:    1417665  MISS:      61867
cpu0_L1I RFO       ACCESS:          0  HIT:          0  MISS:          0
cpu0_L1I PREFETCH  ACCESS:          0  HIT:          0  MISS:          0
cpu0_L1I WRITEBACK ACCESS:          0  HIT:          0  MISS:          0
cpu0_STLB TOTAL     ACCESS:      22720  HIT:      21724  MISS:        996
cpu0_STLB LOAD      ACCESS:      20695  HIT:      19740  MISS:        955
cpu0_STLB RFO       ACCESS:       2025  HIT:       1984  MISS:         41
cpu0_STLB PREFETCH  ACCESS:          0  HIT:          0  MISS:          0
cpu0_STLB WRITEBACK ACCESS:          0  HIT:          0  MISS:          0
cpu0_L1D TOTAL     ACCESS:    5104547  HIT:    5003956  MISS:     100591
cpu0_L1D LOAD      ACCESS:    3011306  HIT:    2941449  MISS:      69857
cpu0_L1D RFO       ACCESS:    2092246  HIT:    2061614  MISS:      30632
cpu0_L1D PREFETCH  ACCESS:          0  HIT:          0  MISS:          0
cpu0_L1D WRITEBACK ACCESS:          0  HIT:          0  MISS:          0
cpu0_L2C TOTAL     ACCESS:     206811  HIT:     171655  MISS:      35156
cpu0_L2C LOAD      ACCESS:     131722  HIT:     103341  MISS:      28381
cpu0_L2C RFO       ACCESS:      30632  HIT:      23878  MISS:       6754
cpu0_L2C PREFETCH  ACCESS:          0  HIT:          0  MISS:          0
cpu0_L2C WRITEBACK ACCESS:      44355  HIT:      44347  MISS:          8
LLC TOTAL     ACCESS:      50815  HIT:      45160  MISS:       5655
LLC LOAD      ACCESS:      28381  HIT:      23524  MISS:       4857
LLC RFO       ACCESS:       6754  HIT:       6089  MISS:        665
LLC PREFETCH  ACCESS:          0  HIT:          0  MISS:          0
LLC WRITEBACK ACCESS:      15667  HIT:      15534  MISS:        133
Heartbeat CPU 0 instructions: 72000003 cycles: 39093264 heartbeat IPC: 0.822529 cumulative IPC: 0.840889 (Simulation time: 0 hr 40 min 26 sec) 

Region of Interest Statistics
cpu0_DTLB TOTAL     ACCESS:    4699142  HIT:    4674344  MISS:      24798
cpu0_DTLB LOAD      ACCESS:    3363295  HIT:    3340746  MISS:      22549
cpu0_DTLB RFO       ACCESS:    1335847  HIT:    1333598  MISS:       2249
cpu0_DTLB PREFETCH  ACCESS:          0  HIT:          0  MISS:          0
cpu0_DTLB WRITEBACK ACCESS:          0  HIT:          0  MISS:          0
cpu0_ITLB TOTAL     ACCESS:    2058800  HIT:    2058699  MISS:        101
cpu0_ITLB LOAD      ACCESS:    2058800  HIT:    2058699  MISS:        101
cpu0_ITLB RFO       ACCESS:          0  HIT:          0  MISS:          0
cpu0_ITLB PREFETCH  ACCESS:          0  HIT:          0  MISS:          0
cpu0_ITLB WRITEBACK ACCESS:          0  HIT:          0  MISS:          0
cpu0_L1I TOTAL     ACCESS:    1674080  HIT:    1605570  MISS:      68510
cpu0_L1I LOAD      ACCESS:    1674080  HIT:    1605570  MISS:      68510
cpu0_L1I RFO       ACCESS:          0  HIT:          0  MISS:          0
cpu0_L1I PREFETCH  ACCESS:          0  HIT:          0  MISS:          0
cpu0_L1I WRITEBACK ACCESS:          0  HIT:          0  MISS:          0
cpu0_STLB TOTAL     ACCESS:      24899  HIT:      23771  MISS:       1128
cpu0_STLB LOAD      ACCESS:      22650  HIT:      21573  MISS:       1077
cpu0_STLB RFO       ACCESS:       2249  HIT:       2198  MISS:         51
cpu0_STLB PREFETCH  ACCESS:          0  HIT:          0  MISS:          0
cpu0_STLB WRITEBACK ACCESS:          0  HIT:          0  MISS:          0
cpu0_L1D TOTAL     ACCESS:    5648839  HIT:    5541013  MISS:     107826
cpu0_L1D LOAD      ACCESS:    3311948  HIT:    3237252  MISS:      74696
cpu0_L1D RFO       ACCESS:    2335764  HIT:    2302743  MISS:      33021
cpu0_L1D PREFETCH  ACCESS:          0  HIT:          0  MISS:          0
cpu0_L1D WRITEBACK ACCESS:          0  HIT:          0  MISS:          0
cpu0_L2C TOTAL     ACCESS:     223956  HIT:     185882  MISS:      38074
cpu0_L2C LOAD      ACCESS:     143204  HIT:     112433  MISS:      30771
cpu0_L2C RFO       ACCESS:      33021  HIT:      25741  MISS:       7280
cpu0_L2C PREFETCH  ACCESS:          0  HIT:          0  MISS:          0
cpu0_L2C WRITEBACK ACCESS:      47622  HIT:      47613  MISS:          9
LLC TOTAL     ACCESS:      55154  HIT:      48917  MISS:       6237
LLC LOAD      ACCESS:      30771  HIT:      25446  MISS:       5325
LLC RFO       ACCESS:       7280  HIT:       6553  MISS:        727
LLC PREFETCH  ACCESS:          0  HIT:          0  MISS:          0
LLC WRITEBACK ACCESS:      17089  HIT:      16904  MISS:        185
Heartbeat CPU 0 instructions: 74000002 cycles: 41590649 heartbeat IPC: 0.800837 cumulative IPC: 0.837399 (Simulation time: 0 hr 41 min 36 sec) 

Region of Interest Statistics
cpu0_DTLB TOTAL     ACCESS:    5152080  HIT:    5125246  MISS:      26834
cpu0_DTLB LOAD      ACCESS:    3671365  HIT:    3647008  MISS:      24357
cpu0_DTLB RFO       ACCESS:    1480715  HIT:    1478238  MISS:       2477
cpu0_DTLB PREFETCH  ACCESS:          0  HIT:          0  MISS:          0
cpu0_DTLB WRITEBACK ACCESS:          0  HIT:          0  MISS:          0
cpu0_ITLB TOTAL     ACCESS:    2239452  HIT:    2239342  MISS:        110
cpu0_ITLB LOAD      ACCESS:    2239452  HIT:    2239342  MISS:        110
cpu0_ITLB RFO       ACCESS:          0  HIT:          0  MISS:          0
cpu0_ITLB PREFETCH  ACCESS:          0  HIT:          0  MISS:          0
cpu0_ITLB WRITEBACK ACCESS:          0  HIT:          0  MISS:          0
cpu0_L1I TOTAL     ACCESS:    1873909  HIT:    1797916  MISS:      75993
cpu0_L1I LOAD      ACCESS:    1873909  HIT:    1797916  MISS:      75993
cpu0_L1I RFO       ACCESS:          0  HIT:          0  MISS:          0
cpu0_L1I PREFETCH  ACCESS:          0  HIT:          0  MISS:          0
cpu0_L1I WRITEBACK ACCESS:          0  HIT:          0  MISS:          0
cpu0_STLB TOTAL     ACCESS:      26944  HIT:      25646  MISS:       1298
cpu0_STLB LOAD      ACCESS:      24467  HIT:      23229  MISS:       1238
cpu0_STLB RFO       ACCESS:       2477  HIT:       2417  MISS:         60
cpu0_STLB PREFETCH  ACCESS:          0  HIT:          0  MISS:          0
cpu0_STLB WRITEBACK ACCESS:          0  HIT:          0  MISS:          0
cpu0_L1D TOTAL     ACCESS:    6212897  HIT:    6096359  MISS:     116538
cpu0_L1D LOAD      ACCESS:    3618919  HIT:    3538613  MISS:      80306
cpu0_L1D RFO       ACCESS:    2592681  HIT:    2556573  MISS:      36108
cpu0_L1D PREFETCH  ACCESS:          0  HIT:          0  MISS:          0
cpu0_L1D WRITEBACK ACCESS:          0  HIT:          0  MISS:          0
cpu0_L2C TOTAL     ACCESS:     244323  HIT:     203112  MISS:      41211
cpu0_L2C LOAD      ACCESS:     156297  HIT:     123073  MISS:      33224
cpu0_L2C RFO       ACCESS:      36108  HIT:      28146  MISS:       7962
cpu0_L2C PREFETCH  ACCESS:          0  HIT:          0  MISS:          0
cpu0_L2C WRITEBACK ACCESS:      51794  HIT:      51783  MISS:         11
LLC TOTAL     ACCESS:      59906  HIT:      53021  MISS:       6885
LLC LOAD      ACCESS:      33224  HIT:      27323  MISS:       5901
LLC RFO       ACCESS:       7962  HIT:       7189  MISS:        773
LLC PREFETCH  ACCESS:          0  HIT:          0  MISS:          0
LLC WRITEBACK ACCESS:      18706  HIT:      18495  MISS:        211
Heartbeat CPU 0 instructions: 76000002 cycles: 43980482 heartbeat IPC: 0.836879 cumulative IPC: 0.837359 (Simulation time: 0 hr 42 min 44 sec) 

Region of Interest Statistics
cpu0_DTLB TOTAL     ACCESS:    5590864  HIT:    5561974  MISS:      28890
cpu0_DTLB LOAD      ACCESS:    3978552  HIT:    3952384  MISS:      26168
cpu0_DTLB RFO       ACCESS:    1612312  HIT:    1609590  MISS:       2722
cpu0_DTLB PREFETCH  ACCESS:          0  HIT:          0  MISS:          0
cpu0_DTLB WRITEBACK ACCESS:          0  HIT:          0  MISS:          0
cpu0_ITLB TOTAL     ACCESS:    2424390  HIT:    2424276  MISS:        114
cpu0_ITLB LOAD      ACCESS:    2424390  HIT:    2424276  MISS:        114
cpu0_ITLB RFO       ACCESS:          0  HIT:          0  MISS:          0
cpu0_ITLB PREFETCH  ACCESS:          0  HIT:          0  MISS:          0
cpu0_ITLB WRITEBACK ACCESS:          0  HIT:          0  MISS:          0
cpu0_L1I TOTAL     ACCESS:    2049606  HIT:    1966710  MISS:      82896
cpu0_L1I LOAD      ACCESS:    2049606  HIT:    1966710  MISS:      82896
cpu0_L1I RFO       ACCESS:          0  HIT:          0  MISS:          0
cpu0_L1I PREFETCH  ACCESS:          0  HIT:          0  MISS:          0
cpu0_L1I WRITEBACK ACCESS:          0  HIT:          0  MISS:          0
cpu0_STLB TOTAL     ACCESS:      29004  HIT:      27583  MISS:       1421
cpu0_STLB LOAD      ACCESS:      26282  HIT:      24928  MISS:       1354
cpu0_STLB RFO       ACCESS:       2722  HIT:       2655  MISS:         67
cpu0_STLB PREFETCH  ACCESS:          0  HIT:          0  MISS:          0
cpu0_STLB WRITEBACK ACCESS:          0  HIT:          0  MISS:          0
cpu0_L1D TOTAL     ACCESS:    6750258  HIT:    6625965  MISS:     124293
cpu0_L1D LOAD      ACCESS:    3922797  HIT:    3837698  MISS:      85099
cpu0_L1D RFO       ACCESS:    2826041  HIT:    2786980  MISS:      39061
cpu0_L1D PREFETCH  ACCESS:          0  HIT:          0  MISS:          0
cpu0_L1D WRITEBACK ACCESS:          0  HIT:          0  MISS:          0
cpu0_L2C TOTAL     ACCESS:     262998  HIT:     219659  MISS:      43339
cpu0_L2C LOAD      ACCESS:     167993  HIT:     133171  MISS:      34822
cpu0_L2C RFO       ACCESS:      39060  HIT:      30569  MISS:       8491
cpu0_L2C PREFETCH  ACCESS:          0  HIT:          0  MISS:          0
cpu0_L2C WRITEBACK ACCESS:      55812  HIT:      55801  MISS:         11
LLC TOTAL     ACCESS:      63092  HIT:      55643  MISS:       7449
LLC LOAD      ACCESS:      34822  HIT:      28433  MISS:       6389
LLC RFO       ACCESS:       8491  HIT:       7652  MISS:        839
LLC PREFETCH  ACCESS:          0  HIT:          0  MISS:          0
LLC WRITEBACK ACCESS:      19764  HIT:      19543  MISS:        221
Heartbeat CPU 0 instructions: 78000004 cycles: 46385776 heartbeat IPC: 0.8315 cumulative IPC: 0.836938 (Simulation time: 0 hr 43 min 51 sec) 

Region of Interest Statistics
cpu0_DTLB TOTAL     ACCESS:    6033251  HIT:    6002398  MISS:      30853
cpu0_DTLB LOAD      ACCESS:    4284781  HIT:    4256899  MISS:      27882
cpu0_DTLB RFO       ACCESS:    1748470  HIT:    1745499  MISS:       2971
cpu0_DTLB PREFETCH  ACCESS:          0  HIT:          0  MISS:          0
cpu0_DTLB WRITEBACK ACCESS:          0  HIT:          0  MISS:          0
cpu0_ITLB TOTAL     ACCESS:    2606523  HIT:    2606399  MISS:        124
cpu0_ITLB LOAD      ACCESS:    2606523  HIT:    2606399  MISS:        124
cpu0_ITLB RFO       ACCESS:          0  HIT:          0  MISS:          0
cpu0_ITLB PREFETCH  ACCESS:          0  HIT:          0  MISS:          0
cpu0_ITLB WRITEBACK ACCESS:          0  HIT:          0  MISS:          0
cpu0_L1I TOTAL     ACCESS:    2224949  HIT:    2134794  MISS:      90155
cpu0_L1I LOAD      ACCESS:    2224949  HIT:    2134794  MISS:      90155
cpu0_L1I RFO       ACCESS:          0  HIT:          0  MISS:          0
cpu0_L1I PREFETCH  ACCESS:          0  HIT:          0  MISS:          0
cpu0_L1I WRITEBACK ACCESS:          0  HIT:          0  MISS:          0
cpu0_STLB TOTAL     ACCESS:      30977  HIT:      29443  MISS:       1534
cpu0_STLB LOAD      ACCESS:      28006  HIT:      26546  MISS:       1460
cpu0_STLB RFO       ACCESS:       2971  HIT:       2897  MISS:         74
cpu0_STLB PREFETCH  ACCESS:          0  HIT:          0  MISS:          0
cpu0_STLB WRITEBACK ACCESS:          0  HIT:          0  MISS:          0
cpu0_L1D TOTAL     ACCESS:    7290314  HIT:    7157120  MISS:     133194
cpu0_L1D LOAD      ACCESS:    4223390  HIT:    4132505  MISS:      90885
cpu0_L1D RFO       ACCESS:    3065391  HIT:    3023227  MISS:      42164
cpu0_L1D PREFETCH  ACCESS:          0  HIT:          0  MISS:          0
cpu0_L1D WRITEBACK ACCESS:          0  HIT:          0  MISS:          0
cpu0_L2C TOTAL     ACCESS:     283689  HIT:     236863  MISS:      46826
cpu0_L2C LOAD      ACCESS:     181038  HIT:     143406  MISS:      37632
cpu0_L2C RFO       ACCESS:      42163  HIT:      32999  MISS:       9164
cpu0_L2C PREFETCH  ACCESS:          0  HIT:          0  MISS:          0
cpu0_L2C WRITEBACK ACCESS:      60343  HIT:      60330  MISS:         13
LLC TOTAL     ACCESS:      68155  HIT:      60131  MISS:       8024
LLC LOAD      ACCESS:      37632  HIT:      30750  MISS:       6882
LLC RFO       ACCESS:       9164  HIT:       8267  MISS:        897
LLC PREFETCH  ACCESS:          0  HIT:          0  MISS:          0
LLC WRITEBACK ACCESS:      21342  HIT:      21097  MISS:        245
Heartbeat CPU 0 instructions: 80000002 cycles: 48771784 heartbeat IPC: 0.838219 cumulative IPC: 0.837023 (Simulation time: 0 hr 45 min 0 sec) 

Region of Interest Statistics
cpu0_DTLB TOTAL     ACCESS:    6469518  HIT:    6436372  MISS:      33146
cpu0_DTLB LOAD      ACCESS:    4587216  HIT:    4557244  MISS:      29972
cpu0_DTLB RFO       ACCESS:    1882302  HIT:    1879128  MISS:       3174
cpu0_DTLB PREFETCH  ACCESS:          0  HIT:          0  MISS:          0
cpu0_DTLB WRITEBACK ACCESS:          0  HIT:          0  MISS:          0
cpu0_ITLB TOTAL     ACCESS:    2790765  HIT:    2790636  MISS:        129
cpu0_ITLB LOAD      ACCESS:    2790765  HIT:    2790636  MISS:        129
cpu0_ITLB RFO       ACCESS:          0  HIT:          0  MISS:          0
cpu0_ITLB PREFETCH  ACCESS:          0  HIT:          0  MISS:          0
cpu0_ITLB WRITEBACK ACCESS:          0  HIT:          0  MISS:          0
cpu0_L1I TOTAL     ACCESS:    2407514  HIT:    2310662  MISS:      96852
cpu0_L1I LOAD      ACCESS:    2407514  HIT:    2310662  MISS:      96852
cpu0_L1I RFO       ACCESS:          0  HIT:          0  MISS:          0
cpu0_L1I PREFETCH  ACCESS:          0  HIT:          0  MISS:          0
cpu0_L1I WRITEBACK ACCESS:          0  HIT:          0  MISS:          0
cpu0_STLB TOTAL     ACCESS:      33275  HIT:      31621  MISS:       1654
cpu0_STLB LOAD      ACCESS:      30101  HIT:      28525  MISS:       1576
cpu0_STLB RFO       ACCESS:       3174  HIT:       3096  MISS:         78
cpu0_STLB PREFETCH  ACCESS:          0  HIT:          0  MISS:          0
cpu0_STLB WRITEBACK ACCESS:          0  HIT:          0  MISS:          0
cpu0_L1D TOTAL     ACCESS:    7832994  HIT:    7693463  MISS:     139531
cpu0_L1D LOAD      ACCESS:    4523894  HIT:    4428958  MISS:      94936
cpu0_L1D RFO       ACCESS:    3307447  HIT:    3263006  MISS:      44441
cpu0_L1D PREFETCH  ACCESS:          0  HIT:          0  MISS:          0
cpu0_L1D WRITEBACK ACCESS:          0  HIT:          0  MISS:          0
cpu0_L2C TOTAL     ACCESS:     299843  HIT:     250148  MISS:      49695
cpu0_L2C LOAD      ACCESS:     191786  HIT:     151704  MISS:      40082
cpu0_L2C RFO       ACCESS:      44440  HIT:      34857  MISS:       9583
cpu0_L2C PREFETCH  ACCESS:          0  HIT:          0  MISS:          0
cpu0_L2C WRITEBACK ACCESS:      63463  HIT:      63450  MISS:         13
LLC TOTAL     ACCESS:      72489  HIT:      63924  MISS:       8565
LLC LOAD      ACCESS:      40082  HIT:      32699  MISS:       7383
LLC RFO       ACCESS:       9583  HIT:       8655  MISS:        928
LLC PREFETCH  ACCESS:          0  HIT:          0  MISS:          0
LLC WRITEBACK ACCESS:      22807  HIT:      22553  MISS:        254
Heartbeat CPU 0 instructions: 82000000 cycles: 51232943 heartbeat IPC: 0.812624 cumulative IPC: 0.835455 (Simulation time: 0 hr 46 min 6 sec) 

Region of Interest Statistics
cpu0_DTLB TOTAL     ACCESS:    6917659  HIT:    6882409  MISS:      35250
cpu0_DTLB LOAD      ACCESS:    4897143  HIT:    4865262  MISS:      31881
cpu0_DTLB RFO       ACCESS:    2020516  HIT:    2017147  MISS:       3369
cpu0_DTLB PREFETCH  ACCESS:          0  HIT:          0  MISS:          0
cpu0_DTLB WRITEBACK ACCESS:          0  HIT:          0  MISS:          0
cpu0_ITLB TOTAL     ACCESS:    2974713  HIT:    2974578  MISS:        135
cpu0_ITLB LOAD      ACCESS:    2974713  HIT:    2974578  MISS:        135
cpu0_ITLB RFO       ACCESS:          0  HIT:          0  MISS:          0
cpu0_ITLB PREFETCH  ACCESS:          0  HIT:          0  MISS:          0
cpu0_ITLB WRITEBACK ACCESS:          0  HIT:          0  MISS:          0
cpu0_L1I TOTAL     ACCESS:    2591149  HIT:    2486874  MISS:     104275
cpu0_L1I LOAD      ACCESS:    2591149  HIT:    2486874  MISS:     104275
cpu0_L1I RFO       ACCESS:          0  HIT:          0  MISS:          0
cpu0_L1I PREFETCH  ACCESS:          0  HIT:          0  MISS:          0
cpu0_L1I WRITEBACK ACCESS:          0  HIT:          0  MISS:          0
cpu0_STLB TOTAL     ACCESS:      35385  HIT:      33637  MISS:       1748
cpu0_STLB LOAD      ACCESS:      32016  HIT:      30349  MISS:       1667
cpu0_STLB RFO       ACCESS:       3369  HIT:       3288  MISS:         81
cpu0_STLB PREFETCH  ACCESS:          0  HIT:          0  MISS:          0
cpu0_STLB WRITEBACK ACCESS:          0  HIT:          0  MISS:          0
cpu0_L1D TOTAL     ACCESS:    8384377  HIT:    8235871  MISS:     148506
cpu0_L1D LOAD      ACCESS:    4830891  HIT:    4729937  MISS:     100954
cpu0_L1D RFO       ACCESS:    3551739  HIT:    3504352  MISS:      47387
cpu0_L1D PREFETCH  ACCESS:          0  HIT:          0  MISS:          0
cpu0_L1D WRITEBACK ACCESS:          0  HIT:          0  MISS:          0
cpu0_L2C TOTAL     ACCESS:     320607  HIT:     268376  MISS:      52231
cpu0_L2C LOAD      ACCESS:     205227  HIT:     163110  MISS:      42117
cpu0_L2C RFO       ACCESS:      47386  HIT:      37302  MISS:      10084
cpu0_L2C PREFETCH  ACCESS:          0  HIT:          0  MISS:          0
cpu0_L2C WRITEBACK ACCESS:      67829  HIT:      67816  MISS:         13
LLC TOTAL     ACCESS:      76065  HIT:      66923  MISS:       9142
LLC LOAD      ACCESS:      42117  HIT:      34210  MISS:       7907
LLC RFO       ACCESS:      10084  HIT:       9127  MISS:        957
LLC PREFETCH  ACCESS:          0  HIT:          0  MISS:          0
LLC WRITEBACK ACCESS:      23847  HIT:      23569  MISS:        278
Heartbeat CPU 0 instructions: 84000000 cycles: 53543251 heartbeat IPC: 0.865685 cumulative IPC: 0.837175 (Simulation time: 0 hr 47 min 9 sec) 

Region of Interest Statistics
cpu0_DTLB TOTAL     ACCESS:    7343483  HIT:    7305421  MISS:      38062
cpu0_DTLB LOAD      ACCESS:    5205357  HIT:    5170901  MISS:      34456
cpu0_DTLB RFO       ACCESS:    2138126  HIT:    2134520  MISS:       3606
cpu0_DTLB PREFETCH  ACCESS:          0  HIT:          0  MISS:          0
cpu0_DTLB WRITEBACK ACCESS:          0  HIT:          0  MISS:          0
cpu0_ITLB TOTAL     ACCESS:    3164925  HIT:    3164784  MISS:        141
cpu0_ITLB LOAD      ACCESS:    3164925  HIT:    3164784  MISS:        141
cpu0_ITLB RFO       ACCESS:          0  HIT:          0  MISS:          0
cpu0_ITLB PREFETCH  ACCESS:          0  HIT:          0  MISS:          0
cpu0_ITLB WRITEBACK ACCESS:          0  HIT:          0  MISS:          0
cpu0_L1I TOTAL     ACCESS:    2739266  HIT:    2628779  MISS:     110487
cpu0_L1I LOAD      ACCESS:    2739266  HIT:    2628779  MISS:     110487
cpu0_L1I RFO       ACCESS:          0  HIT:          0  MISS:          0
cpu0_L1I PREFETCH  ACCESS:          0  HIT:          0  MISS:          0
cpu0_L1I WRITEBACK ACCESS:          0  HIT:          0  MISS:          0
cpu0_STLB TOTAL     ACCESS:      38203  HIT:      36397  MISS:       1806
cpu0_STLB LOAD      ACCESS:      34597  HIT:      32873  MISS:       1724
cpu0_STLB RFO       ACCESS:       3606  HIT:       3524  MISS:         82
cpu0_STLB PREFETCH  ACCESS:          0  HIT:          0  MISS:          0
cpu0_STLB WRITEBACK ACCESS:          0  HIT:          0  MISS:          0
cpu0_L1D TOTAL     ACCESS:    8892413  HIT:    8736682  MISS:     155731
cpu0_L1D LOAD      ACCESS:    5131241  HIT:    5025622  MISS:     105619
cpu0_L1D RFO       ACCESS:    3759367  HIT:    3709427  MISS:      49940
cpu0_L1D PREFETCH  ACCESS:          0  HIT:          0  MISS:          0
cpu0_L1D WRITEBACK ACCESS:          0  HIT:          0  MISS:          0
cpu0_L2C TOTAL     ACCESS:     337615  HIT:     283646  MISS:      53969
cpu0_L2C LOAD      ACCESS:     216104  HIT:     172511  MISS:      43593
cpu0_L2C RFO       ACCESS:      49939  HIT:      39593  MISS:      10346
cpu0_L2C PREFETCH  ACCESS:          0  HIT:          0  MISS:          0
cpu0_L2C WRITEBACK ACCESS:      71400  HIT:      71387  MISS:         13
LLC TOTAL     ACCESS:      78633  HIT:      69092  MISS:       9541
LLC LOAD      ACCESS:      43593  HIT:      35315  MISS:       8278
LLC RFO       ACCESS:      10346  HIT:       9371  MISS:        975
LLC PREFETCH  ACCESS:          0  HIT:          0  MISS:          0
LLC WRITEBACK ACCESS:      24677  HIT:      24389  MISS:        288
Heartbeat CPU 0 instructions: 86000001 cycles: 55963770 heartbeat IPC: 0.82627 cumulative IPC: 0.836562 (Simulation time: 0 hr 48 min 15 sec) 

Region of Interest Statistics
cpu0_DTLB TOTAL     ACCESS:    7788807  HIT:    7748702  MISS:      40105
cpu0_DTLB LOAD      ACCESS:    5514087  HIT:    5477766  MISS:      36321
cpu0_DTLB RFO       ACCESS:    2274720  HIT:    2270936  MISS:       3784
cpu0_DTLB PREFETCH  ACCESS:          0  HIT:          0  MISS:          0
cpu0_DTLB WRITEBACK ACCESS:          0  HIT:          0  MISS:          0
cpu0_ITLB TOTAL     ACCESS:    3348630  HIT:    3348484  MISS:        146
cpu0_ITLB LOAD      ACCESS:    3348630  HIT:    3348484  MISS:        146
cpu0_ITLB RFO       ACCESS:          0  HIT:          0  MISS:          0
cpu0_ITLB PREFETCH  ACCESS:          0  HIT:          0  MISS:          0
cpu0_ITLB WRITEBACK ACCESS:          0  HIT:          0  MISS:          0
cpu0_L1I TOTAL     ACCESS:    2917549  HIT:    2799923  MISS:     117626
cpu0_L1I LOAD      ACCESS:    2917549  HIT:    2799923  MISS:     117626
cpu0_L1I RFO       ACCESS:          0  HIT:          0  MISS:          0
cpu0_L1I PREFETCH  ACCESS:          0  HIT:          0  MISS:          0
cpu0_L1I WRITEBACK ACCESS:          0  HIT:          0  MISS:          0
cpu0_STLB TOTAL     ACCESS:      40251  HIT:      38332  MISS:       1919
cpu0_STLB LOAD      ACCESS:      36467  HIT:      34634  MISS:       1833
cpu0_STLB RFO       ACCESS:       3784  HIT:       3698  MISS:         86
cpu0_STLB PREFETCH  ACCESS:          0  HIT:          0  MISS:          0
cpu0_STLB WRITEBACK ACCESS:          0  HIT:          0  MISS:          0
cpu0_L1D TOTAL     ACCESS:    9437246  HIT:    9272220  MISS:     165026
cpu0_L1D LOAD      ACCESS:    5436850  HIT:    5325538  MISS:     111312
cpu0_L1D RFO       ACCESS:    3998478  HIT:    3944947  MISS:      53531
cpu0_L1D PREFETCH  ACCESS:          0  HIT:          0  MISS:          0
cpu0_L1D WRITEBACK ACCESS:          0  HIT:          0  MISS:          0
cpu0_L2C TOTAL     ACCESS:     359132  HIT:     302354  MISS:      56778
cpu0_L2C LOAD      ACCESS:     228936  HIT:     183167  MISS:      45769
cpu0_L2C RFO       ACCESS:      53530  HIT:      42552  MISS:      10978
cpu0_L2C PREFETCH  ACCESS:          0  HIT:          0  MISS:          0
cpu0_L2C WRITEBACK ACCESS:      76483  HIT:      76470  MISS:         13
LLC TOTAL     ACCESS:      82776  HIT:      72723  MISS:      10053
LLC LOAD      ACCESS:      45769  HIT:      37032  MISS:       8737
LLC RFO       ACCESS:      10978  HIT:       9972  MISS:       1006
LLC PREFETCH  ACCESS:          0  HIT:          0  MISS:          0
LLC WRITEBACK ACCESS:      26011  HIT:      25701  MISS:        310
Heartbeat CPU 0 instructions: 88000000 cycles: 58319933 heartbeat IPC: 0.848837 cumulative IPC: 0.837199 (Simulation time: 0 hr 49 min 24 sec) 

Region of Interest Statistics
cpu0_DTLB TOTAL     ACCESS:    8228141  HIT:    8185101  MISS:      43040
cpu0_DTLB LOAD      ACCESS:    5829640  HIT:    5790635  MISS:      39005
cpu0_DTLB RFO       ACCESS:    2398501  HIT:    2394466  MISS:       4035
cpu0_DTLB PREFETCH  ACCESS:          0  HIT:          0  MISS:          0
cpu0_DTLB WRITEBACK ACCESS:          0  HIT:          0  MISS:          0
cpu0_ITLB TOTAL     ACCESS:    3536827  HIT:    3536675  MISS:        152
cpu0_ITLB LOAD      ACCESS:    3536827  HIT:    3536675  MISS:        152
cpu0_ITLB RFO       ACCESS:          0  HIT:          0  MISS:          0
cpu0_ITLB PREFETCH  ACCESS:          0  HIT:          0  MISS:          0
cpu0_ITLB WRITEBACK ACCESS:          0  HIT:          0  MISS:          0
cpu0_L1I TOTAL     ACCESS:    3057703  HIT:    2933562  MISS:     124141
cpu0_L1I LOAD      ACCESS:    3057703  HIT:    2933562  MISS:     124141
cpu0_L1I RFO       ACCESS:          0  HIT:          0  MISS:          0
cpu0_L1I PREFETCH  ACCESS:          0  HIT:          0  MISS:          0
cpu0_L1I WRITEBACK ACCESS:          0  HIT:          0  MISS:          0
cpu0_STLB TOTAL     ACCESS:      43192  HIT:      41177  MISS:       2015
cpu0_STLB LOAD      ACCESS:      39157  HIT:      37233  MISS:       1924
cpu0_STLB RFO       ACCESS:       4035  HIT:       3944  MISS:         91
cpu0_STLB PREFETCH  ACCESS:          0  HIT:          0  MISS:          0
cpu0_STLB WRITEBACK ACCESS:          0  HIT:          0  MISS:          0
cpu0_L1D TOTAL     ACCESS:    9951769  HIT:    9775064  MISS:     176705
cpu0_L1D LOAD      ACCESS:    5742881  HIT:    5623988  MISS:     118893
cpu0_L1D RFO       ACCESS:    4206874  HIT:    4149257  MISS:      57617
cpu0_L1D PREFETCH  ACCESS:          0  HIT:          0  MISS:          0
cpu0_L1D WRITEBACK ACCESS:          0  HIT:          0  MISS:          0
cpu0_L2C TOTAL     ACCESS:     382914  HIT:     322737  MISS:      60177
cpu0_L2C LOAD      ACCESS:     243032  HIT:     194533  MISS:      48499
cpu0_L2C RFO       ACCESS:      57616  HIT:      45970  MISS:      11646
cpu0_L2C PREFETCH  ACCESS:          0  HIT:          0  MISS:          0
cpu0_L2C WRITEBACK ACCESS:      82071  HIT:      82058  MISS:         13
LLC TOTAL     ACCESS:      87935  HIT:      77406  MISS:      10529
LLC LOAD      ACCESS:      48499  HIT:      39379  MISS:       9120
LLC RFO       ACCESS:      11646  HIT:      10566  MISS:       1080
LLC PREFETCH  ACCESS:          0  HIT:          0  MISS:          0
LLC WRITEBACK ACCESS:      27771  HIT:      27442  MISS:        329
Heartbeat CPU 0 instructions: 90000002 cycles: 60704404 heartbeat IPC: 0.838761 cumulative IPC: 0.837277 (Simulation time: 0 hr 50 min 33 sec) 

Region of Interest Statistics
cpu0_DTLB TOTAL     ACCESS:    8661584  HIT:    8616331  MISS:      45253
cpu0_DTLB LOAD      ACCESS:    6137883  HIT:    6096858  MISS:      41025
cpu0_DTLB RFO       ACCESS:    2523701  HIT:    2519473  MISS:       4228
cpu0_DTLB PREFETCH  ACCESS:          0  HIT:          0  MISS:          0
cpu0_DTLB WRITEBACK ACCESS:          0  HIT:          0  MISS:          0
cpu0_ITLB TOTAL     ACCESS:    3723225  HIT:    3723057  MISS:        168
cpu0_ITLB LOAD      ACCESS:    3723225  HIT:    3723057  MISS:        168
cpu0_ITLB RFO       ACCESS:          0  HIT:          0  MISS:          0
cpu0_ITLB PREFETCH  ACCESS:          0  HIT:          0  MISS:          0
cpu0_ITLB WRITEBACK ACCESS:          0  HIT:          0  MISS:          0
cpu0_L1I TOTAL     ACCESS:    3208557  HIT:    3077959  MISS:     130598
cpu0_L1I LOAD      ACCESS:    3208557  HIT:    3077959  MISS:     130598
cpu0_L1I RFO       ACCESS:          0  HIT:          0  MISS:          0
cpu0_L1I PREFETCH  ACCESS:          0  HIT:          0  MISS:          0
cpu0_L1I WRITEBACK ACCESS:          0  HIT:          0  MISS:          0
cpu0_STLB TOTAL     ACCESS:      45421  HIT:      43296  MISS:       2125
cpu0_STLB LOAD      ACCESS:      41193  HIT:      39169  MISS:       2024
cpu0_STLB RFO       ACCESS:       4228  HIT:       4127  MISS:        101
cpu0_STLB PREFETCH  ACCESS:          0  HIT:          0  MISS:          0
cpu0_STLB WRITEBACK ACCESS:          0  HIT:          0  MISS:          0
cpu0_L1D TOTAL     ACCESS:   10471355  HIT:   10283623  MISS:     187732
cpu0_L1D LOAD      ACCESS:    6045423  HIT:    5918771  MISS:     126652
cpu0_L1D RFO       ACCESS:    4423808  HIT:    4362938  MISS:      60870
cpu0_L1D PREFETCH  ACCESS:          0  HIT:          0  MISS:          0
cpu0_L1D WRITEBACK ACCESS:          0  HIT:          0  MISS:          0
cpu0_L2C TOTAL     ACCESS:     405333  HIT:     340266  MISS:      65067
cpu0_L2C LOAD      ACCESS:     257248  HIT:     204857  MISS:      52391
cpu0_L2C RFO       ACCESS:      60869  HIT:      48226  MISS:      12643
cpu0_L2C PREFETCH  ACCESS:          0  HIT:          0  MISS:          0
cpu0_L2C WRITEBACK ACCESS:      87006  HIT:      86993  MISS:         13
LLC TOTAL     ACCESS:      95365  HIT:      84342  MISS:      11023
LLC LOAD      ACCESS:      52391  HIT:      42851  MISS:       9540
LLC RFO       ACCESS:      12643  HIT:      11514  MISS:       1129
LLC PREFETCH  ACCESS:          0  HIT:          0  MISS:          0
LLC WRITEBACK ACCESS:      30311  HIT:      29957  MISS:        354
Heartbeat CPU 0 instructions: 92000000 cycles: 63142402 heartbeat IPC: 0.820344 cumulative IPC: 0.836455 (Simulation time: 0 hr 51 min 38 sec) 

Region of Interest Statistics
cpu0_DTLB TOTAL     ACCESS:    9102257  HIT:    9055096  MISS:      47161
cpu0_DTLB LOAD      ACCESS:    6446214  HIT:    6403438  MISS:      42776
cpu0_DTLB RFO       ACCESS:    2656043  HIT:    2651658  MISS:       4385
cpu0_DTLB PREFETCH  ACCESS:          0  HIT:          0  MISS:          0
cpu0_DTLB WRITEBACK ACCESS:          0  HIT:          0  MISS:          0
cpu0_ITLB TOTAL     ACCESS:    3907686  HIT:    3907511  MISS:        175
cpu0_ITLB LOAD      ACCESS:    3907686  HIT:    3907511  MISS:        175
cpu0_ITLB RFO       ACCESS:          0  HIT:          0  MISS:          0
cpu0_ITLB PREFETCH  ACCESS:          0  HIT:          0  MISS:          0
cpu0_ITLB WRITEBACK ACCESS:          0  HIT:          0  MISS:          0
cpu0_L1I TOTAL     ACCESS:    3385409  HIT:    3247654  MISS:     137755
cpu0_L1I LOAD      ACCESS:    3385409  HIT:    3247654  MISS:     137755
cpu0_L1I RFO       ACCESS:          0  HIT:          0  MISS:          0
cpu0_L1I PREFETCH  ACCESS:          0  HIT:          0  MISS:          0
cpu0_L1I WRITEBACK ACCESS:          0  HIT:          0  MISS:          0
cpu0_STLB TOTAL     ACCESS:      47336  HIT:      45102  MISS:       2234
cpu0_STLB LOAD      ACCESS:      42951  HIT:      40820  MISS:       2131
cpu0_STLB RFO       ACCESS:       4385  HIT:       4282  MISS:        103
cpu0_STLB PREFETCH  ACCESS:          0  HIT:          0  MISS:          0
cpu0_STLB WRITEBACK ACCESS:          0  HIT:          0  MISS:          0
cpu0_L1D TOTAL     ACCESS:   11008745  HIT:   10813645  MISS:     195100
cpu0_L1D LOAD      ACCESS:    6348960  HIT:    6217378  MISS:     131582
cpu0_L1D RFO       ACCESS:    4657552  HIT:    4594251  MISS:      63301
cpu0_L1D PREFETCH  ACCESS:          0  HIT:          0  MISS:          0
cpu0_L1D WRITEBACK ACCESS:          0  HIT:          0  MISS:          0
cpu0_L2C TOTAL     ACCESS:     423199  HIT:     355697  MISS:      67502
cpu0_L2C LOAD      ACCESS:     269334  HIT:     214890  MISS:      54444
cpu0_L2C RFO       ACCESS:      63300  HIT:      50275  MISS:      13025
cpu0_L2C PREFETCH  ACCESS:          0  HIT:          0  MISS:          0
cpu0_L2C WRITEBACK ACCESS:      90348  HIT:      90335  MISS:         13
LLC TOTAL     ACCESS:      98761  HIT:      87202  MISS:      11559
LLC LOAD      ACCESS:      54444  HIT:      44404  MISS:      10040
LLC RFO       ACCESS:      13025  HIT:      11869  MISS:       1156
LLC PREFETCH  ACCESS:          0  HIT:          0  MISS:          0
LLC WRITEBACK ACCESS:      31272  HIT:      30909  MISS:        363
Heartbeat CPU 0 instructions: 94000000 cycles: 65517199 heartbeat IPC: 0.842177 cumulative IPC: 0.836713 (Simulation time: 0 hr 52 min 49 sec) 

Region of Interest Statistics
cpu0_DTLB TOTAL     ACCESS:    9530238  HIT:    9480514  MISS:      49724
cpu0_DTLB LOAD      ACCESS:    6757613  HIT:    6712488  MISS:      45125
cpu0_DTLB RFO       ACCESS:    2772625  HIT:    2768026  MISS:       4599
cpu0_DTLB PREFETCH  ACCESS:          0  HIT:          0  MISS:          0
cpu0_DTLB WRITEBACK ACCESS:          0  HIT:          0  MISS:          0
cpu0_ITLB TOTAL     ACCESS:    4097742  HIT:    4097559  MISS:        183
cpu0_ITLB LOAD      ACCESS:    4097742  HIT:    4097559  MISS:        183
cpu0_ITLB RFO       ACCESS:          0  HIT:          0  MISS:          0
cpu0_ITLB PREFETCH  ACCESS:          0  HIT:          0  MISS:          0
cpu0_ITLB WRITEBACK ACCESS:          0  HIT:          0  MISS:          0
cpu0_L1I TOTAL     ACCESS:    3524678  HIT:    3380239  MISS:     144439
cpu0_L1I LOAD      ACCESS:    3524678  HIT:    3380239  MISS:     144439
cpu0_L1I RFO       ACCESS:          0  HIT:          0  MISS:          0
cpu0_L1I PREFETCH  ACCESS:          0  HIT:          0  MISS:          0
cpu0_L1I WRITEBACK ACCESS:          0  HIT:          0  MISS:          0
cpu0_STLB TOTAL     ACCESS:      49907  HIT:      47603  MISS:       2304
cpu0_STLB LOAD      ACCESS:      45308  HIT:      43109  MISS:       2199
cpu0_STLB RFO       ACCESS:       4599  HIT:       4494  MISS:        105
cpu0_STLB PREFETCH  ACCESS:          0  HIT:          0  MISS:          0
cpu0_STLB WRITEBACK ACCESS:          0  HIT:          0  MISS:          0
cpu0_L1D TOTAL     ACCESS:   11515294  HIT:   11308886  MISS:     206408
cpu0_L1D LOAD      ACCESS:    6653550  HIT:    6513758  MISS:     139792
cpu0_L1D RFO       ACCESS:    4859441  HIT:    4793051  MISS:      66390
cpu0_L1D PREFETCH  ACCESS:          0  HIT:          0  MISS:          0
cpu0_L1D WRITEBACK ACCESS:          0  HIT:          0  MISS:          0
cpu0_L2C TOTAL     ACCESS:     446035  HIT:     374649  MISS:      71386
cpu0_L2C LOAD      ACCESS:     284228  HIT:     226399  MISS:      57829
cpu0_L2C RFO       ACCESS:      66389  HIT:      52867  MISS:      13522
cpu0_L2C PREFETCH  ACCESS:          0  HIT:          0  MISS:          0
cpu0_L2C WRITEBACK ACCESS:      95192  HIT:      95178  MISS:         14
LLC TOTAL     ACCESS:     104013  HIT:      92023  MISS:      11990
LLC LOAD      ACCESS:      57829  HIT:      47386  MISS:      10443
LLC RFO       ACCESS:      13522  HIT:      12347  MISS:       1175
LLC PREFETCH  ACCESS:          0  HIT:          0  MISS:          0
LLC WRITEBACK ACCESS:      32641  HIT:      32269  MISS:        372
Heartbeat CPU 0 instructions: 96000002 cycles: 67927013 heartbeat IPC: 0.82994 cumulative IPC: 0.836416 (Simulation time: 0 hr 54 min 0 sec) 

Region of Interest Statistics
cpu0_DTLB TOTAL     ACCESS:    9967992  HIT:    9915700  MISS:      52292
cpu0_DTLB LOAD      ACCESS:    7071525  HIT:    7024082  MISS:      47443
cpu0_DTLB RFO       ACCESS:    2896467  HIT:    2891618  MISS:       4849
cpu0_DTLB PREFETCH  ACCESS:          0  HIT:          0  MISS:          0
cpu0_DTLB WRITEBACK ACCESS:          0  HIT:          0  MISS:          0
cpu0_ITLB TOTAL     ACCESS:    4285775  HIT:    4285582  MISS:        193
cpu0_ITLB LOAD      ACCESS:    4285775  HIT:    4285582  MISS:        193
cpu0_ITLB RFO       ACCESS:          0  HIT:          0  MISS:          0
cpu0_ITLB PREFETCH  ACCESS:          0  HIT:          0  MISS:          0
cpu0_ITLB WRITEBACK ACCESS:          0  HIT:          0  MISS:          0
cpu0_L1I TOTAL     ACCESS:    3677583  HIT:    3526147  MISS:     151436
cpu0_L1I LOAD      ACCESS:    3677583  HIT:    3526147  MISS:     151436
cpu0_L1I RFO       ACCESS:          0  HIT:          0  MISS:          0
cpu0_L1I PREFETCH  ACCESS:          0  HIT:          0  MISS:          0
cpu0_L1I WRITEBACK ACCESS:          0  HIT:          0  MISS:          0
cpu0_STLB TOTAL     ACCESS:      52485  HIT:      50080  MISS:       2405
cpu0_STLB LOAD      ACCESS:      47636  HIT:      45338  MISS:       2298
cpu0_STLB RFO       ACCESS:       4849  HIT:       4742  MISS:        107
cpu0_STLB PREFETCH  ACCESS:          0  HIT:          0  MISS:          0
cpu0_STLB WRITEBACK ACCESS:          0  HIT:          0  MISS:          0
cpu0_L1D TOTAL     ACCESS:   12036255  HIT:   11819618  MISS:     216637
cpu0_L1D LOAD      ACCESS:    6959453  HIT:    6812436  MISS:     147017
cpu0_L1D RFO       ACCESS:    5074398  HIT:    5005014  MISS:      69384
cpu0_L1D PREFETCH  ACCESS:          0  HIT:          0  MISS:          0
cpu0_L1D WRITEBACK ACCESS:          0  HIT:          0  MISS:          0
cpu0_L2C TOTAL     ACCESS:     467604  HIT:     393081  MISS:      74523
cpu0_L2C LOAD      ACCESS:     298450  HIT:     237998  MISS:      60452
cpu0_L2C RFO       ACCESS:      69383  HIT:      55348  MISS:      14035
cpu0_L2C PREFETCH  ACCESS:          0  HIT:          0  MISS:          0
cpu0_L2C WRITEBACK ACCESS:      99535  HIT:      99521  MISS:         14
LLC TOTAL     ACCESS:     108024  HIT:      95606  MISS:      12418
LLC LOAD      ACCESS:      60452  HIT:      49615  MISS:      10837
LLC RFO       ACCESS:      14035  HIT:      12837  MISS:       1198
LLC PREFETCH  ACCESS:          0  HIT:          0  MISS:          0
LLC WRITEBACK ACCESS:      33515  HIT:      33132  MISS:        383
Heartbeat CPU 0 instructions: 98000000 cycles: 70277888 heartbeat IPC: 0.850746 cumulative IPC: 0.837004 (Simulation time: 0 hr 55 min 7 sec) 

Region of Interest Statistics
cpu0_DTLB TOTAL     ACCESS:   10400112  HIT:   10345048  MISS:      55064
cpu0_DTLB LOAD      ACCESS:    7389237  HIT:    7339273  MISS:      49964
cpu0_DTLB RFO       ACCESS:    3010875  HIT:    3005775  MISS:       5100
cpu0_DTLB PREFETCH  ACCESS:          0  HIT:          0  MISS:          0
cpu0_DTLB WRITEBACK ACCESS:          0  HIT:          0  MISS:          0
cpu0_ITLB TOTAL     ACCESS:    4479336  HIT:    4479124  MISS:        212
cpu0_ITLB LOAD      ACCESS:    4479336  HIT:    4479124  MISS:        212
cpu0_ITLB RFO       ACCESS:          0  HIT:          0  MISS:          0
cpu0_ITLB PREFETCH  ACCESS:          0  HIT:          0  MISS:          0
cpu0_ITLB WRITEBACK ACCESS:          0  HIT:          0  MISS:          0
cpu0_L1I TOTAL     ACCESS:    3806022  HIT:    3647929  MISS:     158093
cpu0_L1I LOAD      ACCESS:    3806022  HIT:    3647929  MISS:     158093
cpu0_L1I RFO       ACCESS:          0  HIT:          0  MISS:          0
cpu0_L1I PREFETCH  ACCESS:          0  HIT:          0  MISS:          0
cpu0_L1I WRITEBACK ACCESS:          0  HIT:          0  MISS:          0
cpu0_STLB TOTAL     ACCESS:      55276  HIT:      52806  MISS:       2470
cpu0_STLB LOAD      ACCESS:      50176  HIT:      47816  MISS:       2360
cpu0_STLB RFO       ACCESS:       5100  HIT:       4990  MISS:        110
cpu0_STLB PREFETCH  ACCESS:          0  HIT:          0  MISS:          0
cpu0_STLB WRITEBACK ACCESS:          0  HIT:          0  MISS:          0
cpu0_L1D TOTAL     ACCESS:   12531692  HIT:   12304449  MISS:     227243
cpu0_L1D LOAD      ACCESS:    7263152  HIT:    7109009  MISS:     154143
cpu0_L1D RFO       ACCESS:    5266071  HIT:    5193219  MISS:      72852
cpu0_L1D PREFETCH  ACCESS:          0  HIT:          0  MISS:          0
cpu0_L1D WRITEBACK ACCESS:          0  HIT:          0  MISS:          0
cpu0_L2C TOTAL     ACCESS:     489136  HIT:     411393  MISS:      77743
cpu0_L2C LOAD      ACCESS:     312233  HIT:     249220  MISS:      63013
cpu0_L2C RFO       ACCESS:      72851  HIT:      58159  MISS:      14692
cpu0_L2C PREFETCH  ACCESS:          0  HIT:          0  MISS:          0
cpu0_L2C WRITEBACK ACCESS:     103804  HIT:     103790  MISS:         14
LLC TOTAL     ACCESS:     112607  HIT:      99858  MISS:      12749
LLC LOAD      ACCESS:      63013  HIT:      51877  MISS:      11136
LLC RFO       ACCESS:      14692  HIT:      13473  MISS:       1219
LLC PREFETCH  ACCESS:          0  HIT:          0  MISS:          0
LLC WRITEBACK ACCESS:      34878  HIT:      34484  MISS:        394
Heartbeat CPU 0 instructions: 100000000 cycles: 72533291 heartbeat IPC: 0.886759 cumulative IPC: 0.838887 (Simulation time: 0 hr 56 min 12 sec) 

Region of Interest Statistics
cpu0_DTLB TOTAL     ACCESS:   10807484  HIT:   10749214  MISS:      58270
cpu0_DTLB LOAD      ACCESS:    7700429  HIT:    7647468  MISS:      52961
cpu0_DTLB RFO       ACCESS:    3107055  HIT:    3101746  MISS:       5309
cpu0_DTLB PREFETCH  ACCESS:          0  HIT:          0  MISS:          0
cpu0_DTLB WRITEBACK ACCESS:          0  HIT:          0  MISS:          0
cpu0_ITLB TOTAL     ACCESS:    4678431  HIT:    4678201  MISS:        230
cpu0_ITLB LOAD      ACCESS:    4678431  HIT:    4678201  MISS:        230
cpu0_ITLB RFO       ACCESS:          0  HIT:          0  MISS:          0
cpu0_ITLB PREFETCH  ACCESS:          0  HIT:          0  MISS:          0
cpu0_ITLB WRITEBACK ACCESS:          0  HIT:          0  MISS:          0
cpu0_L1I TOTAL     ACCESS:    3897345  HIT:    3733847  MISS:     163498
cpu0_L1I LOAD      ACCESS:    3897345  HIT:    3733847  MISS:     163498
cpu0_L1I RFO       ACCESS:          0  HIT:          0  MISS:          0
cpu0_L1I PREFETCH  ACCESS:          0  HIT:          0  MISS:          0
cpu0_L1I WRITEBACK ACCESS:          0  HIT:          0  MISS:          0
cpu0_STLB TOTAL     ACCESS:      58500  HIT:      55987  MISS:       2513
cpu0_STLB LOAD      ACCESS:      53191  HIT:      50794  MISS:       2397
cpu0_STLB RFO       ACCESS:       5309  HIT:       5193  MISS:        116
cpu0_STLB PREFETCH  ACCESS:          0  HIT:          0  MISS:          0
cpu0_STLB WRITEBACK ACCESS:          0  HIT:          0  MISS:          0
cpu0_L1D TOTAL     ACCESS:   12995955  HIT:   12757337  MISS:     238618
cpu0_L1D LOAD      ACCESS:    7565457  HIT:    7402728  MISS:     162729
cpu0_L1D RFO       ACCESS:    5427986  HIT:    5352358  MISS:      75628
cpu0_L1D PREFETCH  ACCESS:          0  HIT:          0  MISS:          0
cpu0_L1D WRITEBACK ACCESS:          0  HIT:          0  MISS:          0
cpu0_L2C TOTAL     ACCESS:     510079  HIT:     429564  MISS:      80515
cpu0_L2C LOAD      ACCESS:     326224  HIT:     261062  MISS:      65162
cpu0_L2C RFO       ACCESS:      75627  HIT:      60314  MISS:      15313
cpu0_L2C PREFETCH  ACCESS:          0  HIT:          0  MISS:          0
cpu0_L2C WRITEBACK ACCESS:     107967  HIT:     107953  MISS:         14
LLC TOTAL     ACCESS:     116553  HIT:     103374  MISS:      13179
LLC LOAD      ACCESS:      65162  HIT:      53753  MISS:      11409
LLC RFO       ACCESS:      15313  HIT:      13953  MISS:       1360
LLC PREFETCH  ACCESS:          0  HIT:          0  MISS:          0
LLC WRITEBACK ACCESS:      36052  HIT:      35642  MISS:        410
Heartbeat CPU 0 instructions: 102000000 cycles: 74731554 heartbeat IPC: 0.909809 cumulative IPC: 0.841409 (Simulation time: 0 hr 57 min 19 sec) 

Region of Interest Statistics
cpu0_DTLB TOTAL     ACCESS:   11218058  HIT:   11157904  MISS:      60154
cpu0_DTLB LOAD      ACCESS:    8012232  HIT:    7957570  MISS:      54662
cpu0_DTLB RFO       ACCESS:    3205826  HIT:    3200334  MISS:       5492
cpu0_DTLB PREFETCH  ACCESS:          0  HIT:          0  MISS:          0
cpu0_DTLB WRITEBACK ACCESS:          0  HIT:          0  MISS:          0
cpu0_ITLB TOTAL     ACCESS:    4875477  HIT:    4875230  MISS:        247
cpu0_ITLB LOAD      ACCESS:    4875477  HIT:    4875230  MISS:        247
cpu0_ITLB RFO       ACCESS:          0  HIT:          0  MISS:          0
cpu0_ITLB PREFETCH  ACCESS:          0  HIT:          0  MISS:          0
cpu0_ITLB WRITEBACK ACCESS:          0  HIT:          0  MISS:          0
cpu0_L1I TOTAL     ACCESS:    3986599  HIT:    3818709  MISS:     167890
cpu0_L1I LOAD      ACCESS:    3986599  HIT:    3818709  MISS:     167890
cpu0_L1I RFO       ACCESS:          0  HIT:          0  MISS:          0
cpu0_L1I PREFETCH  ACCESS:          0  HIT:          0  MISS:          0
cpu0_L1I WRITEBACK ACCESS:          0  HIT:          0  MISS:          0
cpu0_STLB TOTAL     ACCESS:      60401  HIT:      57853  MISS:       2548
cpu0_STLB LOAD      ACCESS:      54909  HIT:      52489  MISS:       2420
cpu0_STLB RFO       ACCESS:       5492  HIT:       5364  MISS:        128
cpu0_STLB PREFETCH  ACCESS:          0  HIT:          0  MISS:          0
cpu0_STLB WRITEBACK ACCESS:          0  HIT:          0  MISS:          0
cpu0_L1D TOTAL     ACCESS:   13453455  HIT:   13202847  MISS:     250608
cpu0_L1D LOAD      ACCESS:    7863111  HIT:    7692314  MISS:     170797
cpu0_L1D RFO       ACCESS:    5587797  HIT:    5508255  MISS:      79542
cpu0_L1D PREFETCH  ACCESS:          0  HIT:          0  MISS:          0
cpu0_L1D WRITEBACK ACCESS:          0  HIT:          0  MISS:          0
cpu0_L2C TOTAL     ACCESS:     531696  HIT:     448056  MISS:      83640
cpu0_L2C LOAD      ACCESS:     338683  HIT:     271358  MISS:      67325
cpu0_L2C RFO       ACCESS:      79541  HIT:      63266  MISS:      16275
cpu0_L2C PREFETCH  ACCESS:          0  HIT:          0  MISS:          0
cpu0_L2C WRITEBACK ACCESS:     113203  HIT:     113189  MISS:         14
LLC TOTAL     ACCESS:     121128  HIT:     107271  MISS:      13857
LLC LOAD      ACCESS:      67325  HIT:      55508  MISS:      11817
LLC RFO       ACCESS:      16275  HIT:      14671  MISS:       1604
LLC PREFETCH  ACCESS:          0  HIT:          0  MISS:          0
LLC WRITEBACK ACCESS:      37502  HIT:      37066  MISS:        436
Heartbeat CPU 0 instructions: 104000003 cycles: 77047284 heartbeat IPC: 0.86366 cumulative IPC: 0.842213 (Simulation time: 0 hr 58 min 22 sec) 

Region of Interest Statistics
cpu0_DTLB TOTAL     ACCESS:   11634861  HIT:   11572637  MISS:      62224
cpu0_DTLB LOAD      ACCESS:    8311651  HIT:    8255092  MISS:      56559
cpu0_DTLB RFO       ACCESS:    3323210  HIT:    3317545  MISS:       5665
cpu0_DTLB PREFETCH  ACCESS:          0  HIT:          0  MISS:          0
cpu0_DTLB WRITEBACK ACCESS:          0  HIT:          0  MISS:          0
cpu0_ITLB TOTAL     ACCESS:    5063557  HIT:    5063298  MISS:        259
cpu0_ITLB LOAD      ACCESS:    5063557  HIT:    5063298  MISS:        259
cpu0_ITLB RFO       ACCESS:          0  HIT:          0  MISS:          0
cpu0_ITLB PREFETCH  ACCESS:          0  HIT:          0  MISS:          0
cpu0_ITLB WRITEBACK ACCESS:          0  HIT:          0  MISS:          0
cpu0_L1I TOTAL     ACCESS:    4134727  HIT:    3961073  MISS:     173654
cpu0_L1I LOAD      ACCESS:    4134727  HIT:    3961073  MISS:     173654
cpu0_L1I RFO       ACCESS:          0  HIT:          0  MISS:          0
cpu0_L1I PREFETCH  ACCESS:          0  HIT:          0  MISS:          0
cpu0_L1I WRITEBACK ACCESS:          0  HIT:          0  MISS:          0
cpu0_STLB TOTAL     ACCESS:      62483  HIT:      59812  MISS:       2671
cpu0_STLB LOAD      ACCESS:      56818  HIT:      54283  MISS:       2535
cpu0_STLB RFO       ACCESS:       5665  HIT:       5529  MISS:        136
cpu0_STLB PREFETCH  ACCESS:          0  HIT:          0  MISS:          0
cpu0_STLB WRITEBACK ACCESS:          0  HIT:          0  MISS:          0
cpu0_L1D TOTAL     ACCESS:   13958550  HIT:   13698677  MISS:     259873
cpu0_L1D LOAD      ACCESS:    8159219  HIT:    7981787  MISS:     177432
cpu0_L1D RFO       ACCESS:    5796661  HIT:    5714501  MISS:      82160
cpu0_L1D PREFETCH  ACCESS:          0  HIT:          0  MISS:          0
cpu0_L1D WRITEBACK ACCESS:          0  HIT:          0  MISS:          0
cpu0_L2C TOTAL     ACCESS:     550684  HIT:     462797  MISS:      87887
cpu0_L2C LOAD      ACCESS:     351082  HIT:     280352  MISS:      70730
cpu0_L2C RFO       ACCESS:      82159  HIT:      65046  MISS:      17113
cpu0_L2C PREFETCH  ACCESS:          0  HIT:          0  MISS:          0
cpu0_L2C WRITEBACK ACCESS:     117162  HIT:     117147  MISS:         15
LLC TOTAL     ACCESS:     127622  HIT:     113275  MISS:      14347
LLC LOAD      ACCESS:      70730  HIT:      58519  MISS:      12211
LLC RFO       ACCESS:      17113  HIT:      15458  MISS:       1655
LLC PREFETCH  ACCESS:          0  HIT:          0  MISS:          0
LLC WRITEBACK ACCESS:      39750  HIT:      39269  MISS:        481
Heartbeat CPU 0 instructions: 106000004 cycles: 79471483 heartbeat IPC: 0.825015 cumulative IPC: 0.841586 (Simulation time: 0 hr 59 min 30 sec) 

Region of Interest Statistics
cpu0_DTLB TOTAL     ACCESS:   12076533  HIT:   12012362  MISS:      64171
cpu0_DTLB LOAD      ACCESS:    8618452  HIT:    8560190  MISS:      58262
cpu0_DTLB RFO       ACCESS:    3458081  HIT:    3452172  MISS:       5909
cpu0_DTLB PREFETCH  ACCESS:          0  HIT:          0  MISS:          0
cpu0_DTLB WRITEBACK ACCESS:          0  HIT:          0  MISS:          0
cpu0_ITLB TOTAL     ACCESS:    5246211  HIT:    5245946  MISS:        265
cpu0_ITLB LOAD      ACCESS:    5246211  HIT:    5245946  MISS:        265
cpu0_ITLB RFO       ACCESS:          0  HIT:          0  MISS:          0
cpu0_ITLB PREFETCH  ACCESS:          0  HIT:          0  MISS:          0
cpu0_ITLB WRITEBACK ACCESS:          0  HIT:          0  MISS:          0
cpu0_L1I TOTAL     ACCESS:    4313655  HIT:    4132529  MISS:     181126
cpu0_L1I LOAD      ACCESS:    4313655  HIT:    4132529  MISS:     181126
cpu0_L1I RFO       ACCESS:          0  HIT:          0  MISS:          0
cpu0_L1I PREFETCH  ACCESS:          0  HIT:          0  MISS:          0
cpu0_L1I WRITEBACK ACCESS:          0  HIT:          0  MISS:          0
cpu0_STLB TOTAL     ACCESS:      64436  HIT:      61642  MISS:       2794
cpu0_STLB LOAD      ACCESS:      58527  HIT:      55876  MISS:       2651
cpu0_STLB RFO       ACCESS:       5909  HIT:       5766  MISS:        143
cpu0_STLB PREFETCH  ACCESS:          0  HIT:          0  MISS:          0
cpu0_STLB WRITEBACK ACCESS:          0  HIT:          0  MISS:          0
cpu0_L1D TOTAL     ACCESS:   14497982  HIT:   14229013  MISS:     268969
cpu0_L1D LOAD      ACCESS:    8461246  HIT:    8278067  MISS:     183179
cpu0_L1D RFO       ACCESS:    6033943  HIT:    5948444  MISS:      85499
cpu0_L1D PREFETCH  ACCESS:          0  HIT:          0  MISS:          0
cpu0_L1D WRITEBACK ACCESS:          0  HIT:          0  MISS:          0
cpu0_L2C TOTAL     ACCESS:     571891  HIT:     480702  MISS:      91189
cpu0_L2C LOAD      ACCESS:     364301  HIT:     291052  MISS:      73249
cpu0_L2C RFO       ACCESS:      85498  HIT:      67602  MISS:      17896
cpu0_L2C PREFETCH  ACCESS:          0  HIT:          0  MISS:          0
[...]
cpu0_ITLB TOTAL     ACCESS:  133174777  HIT:  133169398  MISS:       5379
cpu0_ITLB LOAD      ACCESS:  133174777  HIT:  133169398  MISS:       5379
cpu0_ITLB RFO       ACCESS:          0  HIT:          0  MISS:          0
cpu0_ITLB PREFETCH  ACCESS:          0  HIT:          0  MISS:          0
cpu0_ITLB WRITEBACK ACCESS:          0  HIT:          0  MISS:          0
cpu0_ITLB TRANSLATION ACCESS:          0  HIT:          0  MISS:          0
cpu0_ITLB PREFETCH  REQUESTED:          0  ISSUED:          0  USEFUL:          0  USELESS:          0
cpu0_ITLB AVERAGE MISS LATENCY: 12.9768 cycles
cpu0_L1I TOTAL     ACCESS:  154534966  HIT:  149908742  MISS:    4626224
cpu0_L1I LOAD      ACCESS:  154534966  HIT:  149908742  MISS:    4626224
cpu0_L1I RFO       ACCESS:          0  HIT:          0  MISS:          0
cpu0_L1I PREFETCH  ACCESS:          0  HIT:          0  MISS:          0
cpu0_L1I WRITEBACK ACCESS:          0  HIT:          0  MISS:          0
cpu0_L1I TRANSLATION ACCESS:          0  HIT:          0  MISS:          0
cpu0_L1I PREFETCH  REQUESTED:          0  ISSUED:          0  USEFUL:          0  USELESS:          0
cpu0_L1I AVERAGE MISS LATENCY: 11.9139 cycles
cpu0_STLB TOTAL     ACCESS:     803480  HIT:     732675  MISS:      70805
cpu0_STLB LOAD      ACCESS:     701042  HIT:     632920  MISS:      68122
cpu0_STLB RFO       ACCESS:     102438  HIT:      99755  MISS:       2683
cpu0_STLB PREFETCH  ACCESS:          0  HIT:          0  MISS:          0
cpu0_STLB WRITEBACK ACCESS:          0  HIT:          0  MISS:          0
cpu0_STLB TRANSLATION ACCESS:          0  HIT:          0  MISS:          0
cpu0_STLB PREFETCH  REQUESTED:          0  ISSUED:          0  USEFUL:          0  USELESS:          0
cpu0_STLB AVERAGE MISS LATENCY: 15.5266 cycles
cpu0_L1D TOTAL     ACCESS:  429280754  HIT:  424782809  MISS:    4497945
cpu0_L1D LOAD      ACCESS:  227521624  HIT:  224815090  MISS:    2706534
cpu0_L1D RFO       ACCESS:  201688385  HIT:  199902082  MISS:    1786303
cpu0_L1D PREFETCH  ACCESS:          0  HIT:          0  MISS:          0
cpu0_L1D WRITEBACK ACCESS:          0  HIT:          0  MISS:          0
cpu0_L1D TRANSLATION ACCESS:      70745  HIT:      65637  MISS:       5108
cpu0_L1D PREFETCH  REQUESTED:          0  ISSUED:          0  USEFUL:          0  USELESS:          0
cpu0_L1D AVERAGE MISS LATENCY: 29.2356 cycles
cpu0_L2C TOTAL     ACCESS:   11596209  HIT:   10327211  MISS:    1268998
cpu0_L2C LOAD      ACCESS:    7332720  HIT:    6330851  MISS:    1001869
cpu0_L2C RFO       ACCESS:    1786270  HIT:    1520628  MISS:     265642
cpu0_L2C PREFETCH  ACCESS:          0  HIT:          0  MISS:          0
cpu0_L2C WRITEBACK ACCESS:    2472111  HIT:    2470884  MISS:       1227
cpu0_L2C TRANSLATION ACCESS:       5108  HIT:       4848  MISS:        260
cpu0_L2C PREFETCH  REQUESTED:          0  ISSUED:          0  USEFUL:          0  USELESS:          0
cpu0_L2C AVERAGE MISS LATENCY: 67.7075 cycles
LLC TOTAL     ACCESS:    1920503  HIT:    1592167  MISS:     328336
LLC LOAD      ACCESS:    1001869  HIT:     720835  MISS:     281034
LLC RFO       ACCESS:     265642  HIT:     234881  MISS:      30761
LLC PREFETCH  ACCESS:          0  HIT:          0  MISS:          0
LLC WRITEBACK ACCESS:     652732  HIT:     636207  MISS:      16525
LLC TRANSLATION ACCESS:        260  HIT:        244  MISS:         16
LLC PREFETCH  REQUESTED:          0  ISSUED:          0  USEFUL:          0  USELESS:          0
LLC AVERAGE MISS LATENCY: 180.599 cycles
~~~~~~~~~~Reuse Distance Profiler output~~~~~~~~~~
0	110485216	19697616
1	39076752	17855664
2	26553408	16628608
3	21478832	12937088
4	19394560	9083248
5	12996880	8199808
6	10140480	6484848
7	8512608	5315488
8	6709536	4607248
9	6842000	4725040
10	6040224	3680880
11	4884320	3296256
12	4341232	2867472
13	4458464	2915536
14	4195872	2805568
15	3948912	2780560
16	4275248	2467568
17	3415232	2327936
18	3093584	2206720
19	2949344	2108048
20	2844752	2153824
21	2653056	2009680
22	2297680	1730480
23	2069024	1612800
24	1984320	1562656
25	1918112	1506928
26	1797312	1426512
27	1710432	1367712
28	1627952	1298544
29	1923536	1327808
30	1588928	1220096
31	1502080	1132672
32	1445504	1064688
33	1416336	1090736
34	1263760	965376
35	1270272	967728
36	1220768	932736
37	1159008	845376
38	1157104	832800
39	1231776	914208
40	1208672	900464
41	994592	722000
42	997136	739136
43	974272	723920
44	924320	706224
45	909552	709216
46	857776	673920
47	876816	699824
48	911968	747504
49	845232	693328
50	849936	698592
51	850864	699216
52	850160	709600
53	859232	698528
54	846432	697632
55	822240	680608
56	780768	647536
57	757664	632512
58	728512	609968
59	708656	596864
60	655728	546432
61	623664	522032
62	605152	496592
63	551392	449312
64	1053584	866560
66	973136	792224
68	874448	696272
70	844768	657328
72	813488	632592
74	780144	604608
76	747776	579344
78	742656	577632
80	722704	565168
82	711808	560960
84	673744	526432
86	652176	514912
88	629600	509728
90	623680	508336
92	583264	474752
94	537456	442912
96	498544	407888
98	469712	385792
100	453296	375392
102	436016	359984
104	413136	341088
106	412112	343712
108	401376	335680
110	401680	336192
112	404912	335360
114	411088	343328
116	405056	338144
118	435840	363472
120	407056	336896
122	379264	311248
124	364160	296320
126	347872	285184
128	653216	528608
132	628800	507088
136	632496	511392
140	630880	517216
144	649472	528928
148	650448	514912
152	650576	502016
156	628288	480848
160	596352	455040
164	601888	455072
168	572832	444864
172	542688	424496
176	520816	406848
180	512096	403856
184	487568	387568
188	469296	381312
192	440736	357840
196	422656	336352
200	409680	328240
204	413968	338160
208	415936	344752
212	410400	340368
216	400208	331104
220	391056	320208
224	369648	296864
228	373888	303600
232	331168	259968
236	320992	253584
240	321264	256784
244	307120	242080
248	300736	239904
252	294304	233408
256	581600	460368
264	584624	445072
272	583200	435280
280	551824	406016
288	520912	388400
296	502768	378784
304	479568	363872
312	475888	356624
320	466064	347216
328	467952	350128
336	471952	357856
344	458752	350288
352	438224	335008
360	431472	330272
368	432832	326944
376	436880	327520
384	442656	342544
392	403648	307856
400	384704	295200
408	366768	284304
416	367472	288592
424	349600	272048
432	333248	254720
440	335136	255872
448	324432	247664
456	308624	235056
464	301696	226320
472	301808	232528
480	298480	227328
488	306352	230208
496	295120	221616
504	290688	216528
512	573584	428256
528	571232	426256
544	542144	389504
560	481584	347616
576	447232	326224
592	445072	327024
608	409376	296272
624	394688	286336
640	376864	275168
656	349344	258512
672	366960	265328
688	351616	253648
704	331152	241696
720	325152	237216
736	309904	223088
752	325504	230112
768	325712	231168
784	304192	218624
800	307424	220592
816	300560	213296
832	295824	214832
848	292944	210128
864	290144	208160
880	272656	193632
896	265120	184656
912	264576	187744
928	261216	182352
944	252784	175920
960	242160	167568
976	240688	168624
992	225968	158640
1008	225680	155984
1024	440368	305104
1056	429200	293280
1088	421472	289584
1120	427280	292768
1152	414016	285856
1184	392800	268112
1216	385424	263792
1248	369440	251504
1280	358640	242288
1312	351872	240736
1344	333360	227728
1376	317984	217328
1408	303712	198160
1440	287600	189376
1472	274352	180512
1504	257104	170720
1536	242160	157968
1568	237136	156640
1600	232544	153680
1632	222720	143872
1664	219616	140624
1696	215056	130416
1728	205408	129808
1760	196144	124528
1792	188480	121088
1824	179312	111728
1856	170736	107968
1888	160352	99648
1920	153248	94560
1952	155600	96656
1984	142912	86496
2016	133552	77920
2048	268224	152640
2112	251616	146304
2176	256528	153312
2240	242736	145584
2304	226736	128944
2368	219072	126240
2432	212112	121344
2496	201584	114368
2560	191968	112048
2624	190032	110096
2688	175616	97360
2752	161152	88992
2816	155584	89216
2880	153184	83568
2944	144896	77808
3008	141600	77008
3072	139792	75616
3136	139168	74656
3200	139968	75312
3264	135168	78752
3328	124256	67840
3392	115360	63584
3456	103376	55680
3520	98352	53616
3584	94912	49216
3648	100688	55600
3712	91088	50608
3776	92864	52208
3840	86608	46656
3904	83456	44416
3968	87456	47760
4032	88208	47296
4096	174176	91360
4224	153136	82176
4352	138096	70768
4480	131856	69536
4608	126240	66256
4736	120256	62352
4864	111760	56528
4992	115216	57808
5120	107312	55872
5248	106160	56912
5376	100960	51728
5504	103632	54784
5632	98064	49456
5760	95312	45648
5888	90528	46480
6016	85024	44768
6144	87328	46016
6272	80608	41280
6400	86288	44976
6528	88224	47248
6656	79376	42912
6784	78272	40976
6912	82272	43200
7040	77328	42368
7168	77456	41104
7296	76704	40848
7424	75600	40544
7552	74432	40016
7680	70000	38176
7808	72288	38352
7936	74592	42256
8064	73568	41152
8192	146672	85184
8448	136336	77088
8704	130000	77424
8960	118880	69040
9216	109600	62064
9472	99696	54528
9728	98288	51984
9984	94080	52896
10240	86896	46848
10496	80736	42512
10752	76960	42752
11008	71200	38544
11264	65264	36512
11520	66432	36400
11776	66144	37024
12032	61568	31648
12288	62608	32928
12544	60080	32928
12800	55088	28704
13056	53648	26752
13312	55760	27728
13568	56336	27888
13824	53360	25696
14080	52496	25008
14336	60144	26544
14592	66128	24624
14848	63184	23360
15104	51376	22672
15360	44208	21728
15616	40432	20928
15872	38656	19328
16128	42736	22944
16384	81584	45712
16896	80928	45952
17408	84800	44128
17920	73472	34096
18432	63488	30352
18944	59264	29760
19456	58832	29120
19968	54528	28352
20480	52944	28192
20992	50656	27360
21504	50464	26992
22016	49568	26736
22528	52384	27776
23040	58480	35504
23552	60736	38528
24064	53168	31744
24576	42944	23264
25088	43360	22896
25600	46736	25344
26112	39792	20352
26624	43120	23488
27136	38864	20416
27648	38496	19984
28160	37024	19424
28672	34912	17744
29184	35056	17792
29696	32672	15232
30208	31376	16192
30720	31456	15104
31232	31120	14816
31744	32960	15168
32256	31824	15824
32768	56368	27376
33792	54720	27760
34816	60944	32000
35840	58368	31344
36864	49504	24320
37888	49264	25392
38912	47936	24640
39936	45456	23312
40960	42560	21168
41984	43504	21248
43008	40640	18384
44032	38080	18688
45056	38352	18352
46080	38928	18224
47104	39616	18384
48128	37008	17760
49152	33392	14800
50176	34560	15232
51200	33552	15392
52224	32192	13232
53248	32512	13520
54272	30800	12400
55296	27152	10656
56320	28704	12736
57344	28400	11408
58368	25984	10976
59392	27888	13088
60416	29472	13728
61440	25632	10160
62464	24400	10272
63488	25776	9920
64512	26096	11248
65536	48800	19952
67584	49792	20992
69632	45920	19008
71680	47088	21248
73728	43760	18592
75776	43856	18144
77824	41152	17392
79872	45088	21936
81920	41536	19952
83968	37040	15840
86016	37840	17120
88064	41040	19408
90112	43248	21312
92160	38080	18224
94208	35184	16944
96256	38672	18704
98304	33968	15680
100352	35136	16512
102400	32800	15568
104448	29808	14176
106496	29376	14112
108544	26800	12288
110592	29072	13472
112640	29312	13920
114688	28064	13792
116736	24256	11312
118784	25952	11440
120832	27040	13680
122880	24960	11376
124928	24272	10944
126976	26624	13616
129024	21936	9776
131072	49808	23088
135168	46960	21504
139264	44016	20656
143360	40144	17888
147456	42112	19216
151552	39712	18640
155648	39920	18016
159744	35264	15920
163840	38864	20416
167936	33152	15952
172032	35424	17232
176128	31376	15264
180224	27872	13424
184320	28976	14352
188416	29792	14912
192512	25984	12864
196608	24976	13920
200704	25008	13472
204800	23536	13456
208896	24368	13872
212992	20704	10880
217088	20816	12304
221184	18768	9600
225280	17680	9456
229376	18000	10240
233472	18304	11264
237568	18912	12288
241664	16624	10224
245760	18480	11968
249856	17968	11616
253952	14672	9280
258048	17584	11600
262144	32320	19856
270336	34288	23296
278528	39936	27360
286720	33040	22000
294912	31008	21536
303104	33504	22768
311296	29792	20608
319488	23344	14720
327680	21280	14192
335872	21760	15248
344064	16944	10512
352256	20560	15040
360448	25600	19472
368640	23424	17152
376832	19328	13392
385024	16000	12032
393216	20544	15088
401408	20000	15232
409600	22704	18096
417792	11680	7280
425984	13344	8480
434176	13888	9760
442368	10816	7120
450560	14352	10992
458752	10944	7504
466944	13856	10336
475136	13296	9280
483328	12832	9008
491520	10320	7664
499712	8592	5552
507904	6304	3376
516096	10944	8416
524288	19872	12880
540672	18544	12704
557056	20192	13632
573440	21984	15792
589824	16768	11728
606208	13216	9408
622592	14752	10672
638976	15616	10720
655360	13248	9344
671744	11376	7872
688128	16880	12928
704512	12896	8528
720896	13040	7600
737280	12672	8208
753664	10544	7776
770048	13456	9408
786432	8576	4976
802816	8912	5776
819200	7904	5520
835584	9824	7040
851968	9632	7280
868352	5248	3344
884736	11216	8256
901120	7248	5392
917504	9936	7136
933888	8304	5888
950272	7248	5056
966656	6256	4048
983040	10624	8160
999424	5360	3200
1015808	8240	5168
1032192	5120	4048
1048576	11568	8176
1081344	9280	6304
1114112	10256	7136
1146880	8528	5632
1179648	5776	3728
1212416	10432	6832
1245184	12672	9968
1277952	7376	5552
1310720	7888	4688
1343488	17968	11856
1376256	7808	5456
1409024	14544	10544
1441792	10096	7184
1474560	13088	9856
1507328	11760	7600
1540096	12240	7952
1572864	8944	6464
1605632	8736	5872
1638400	6512	3968
1671168	7952	6080
1703936	8240	4768
1736704	6592	4112
1769472	8736	5648
1802240	6400	4336
1835008	8144	5168
1867776	5952	4784
1900544	7728	5456
1933312	4688	3168
1966080	4240	2672
1998848	6320	4400
2031616	5328	4256
2064384	5056	3664
2097152	6528	3696
2162688	12064	8464
2228224	7936	6656
2293760	10624	8208
2359296	8288	5520
2424832	4816	3376
2490368	11856	7952
2555904	7744	5328
2621440	6032	3488
2686976	5280	4016
2752512	7264	6192
2818048	3776	2576
2883584	4784	3920
2949120	2192	1600
3014656	6096	4384
3080192	6464	4288
3145728	5040	3856
3211264	4400	2880
3276800	4816	3200
3342336	2688	2080
3407872	5360	4352
3473408	5424	4272
3538944	2560	1648
3604480	3312	1936
3670016	3776	2992
3735552	3136	2080
3801088	1120	864
3866624	1360	816
3932160	1792	1136
3997696	2912	2064
4063232	5584	3696
4128768	1536	1232
4194304	8912	5520
4325376	7200	5040
4456448	5968	4032
4587520	4464	3568
4718592	5952	4000
4849664	5328	3536
4980736	4928	3056
5111808	8016	5728
5242880	5296	3840
5373952	7488	5184
5505024	6720	4112
5636096	5312	3008
5767168	9920	6112
5898240	5136	3792
6029312	2688	1856
6160384	3424	2256
6291456	2912	1984
6422528	2672	1504
6553600	2288	1424
6684672	7840	4608
6815744	2912	1904
6946816	1968	1584
7077888	3584	2080
7208960	2336	1440
7340032	736	512
7471104	2912	1664
7602176	2256	1712
7733248	816	448
7864320	1744	1040
7995392	1680	1040
8126464	1536	1360
8257536	1200	944
8388608	3504	2496
8650752	2112	1344
8912896	3632	2784
9175040	3856	3376
9437184	1504	1200
9699328	3056	2240
9961472	1472	1264
10223616	896	608
10485760	3376	2416
10747904	1248	816
11010048	2080	1760
11272192	1328	1264
11534336	608	576
11796480	592	480
12058624	512	432
12320768	1696	1088
12582912	1680	1280
12845056	2112	1280
13107200	2080	1232
13369344	896	880
13631488	1296	1152
13893632	2016	1840
14155776	1520	960
14417920	512	432
14680064	1184	736
14942208	1504	1024
15204352	544	448
15466496	672	560
15728640	3312	2144
15990784	1184	656
16252928	736	688
16515072	1472	1120
16777216	2736	1552
17301504	3648	2704
17825792	2016	1616
18350080	2112	1328
18874368	1088	864
19398656	3424	2784
19922944	2976	2576
20447232	3072	2256
20971520	2112	1904
21495808	1488	1008
22020096	3536	2368
22544384	2832	1776
23068672	736	656
23592960	1504	880
24117248	1264	800
24641536	2480	1920
25165824	672	576
25690112	480	384
26214400	544	448
26738688	2736	1600
27262976	1664	976
27787264	656	624
28311552	1296	944
28835840	1136	784
29360128	1632	1296
29884416	752	640
30408704	2304	1904
30932992	464	448
31457280	528	400
31981568	576	560
32505856	544	512
33030144	368	368
33554432	2000	1536
34603008	1520	1456
35651584	864	816
36700160	3008	2912
37748736	1648	1584
38797312	1920	1392
39845888	1792	1248
40894464	1104	880
41943040	2416	1808
42991616	1744	1232
44040192	1024	752
45088768	1616	1504
46137344	1504	1216
47185920	1056	1008
48234496	992	992
49283072	480	480
50331648	624	624
51380224	672	640
52428800	2384	1568
53477376	2048	1408
54525952	704	704
55574528	608	592
56623104	560	560
57671680	3360	1920
58720256	576	560
59768832	704	624
60817408	3328	2192
61865984	2336	1600
62914560	1744	1456
63963136	448	448
65011712	656	656
66060288	400	400
67108864	736	736
69206016	1232	1200
71303168	752	720
73400320	832	816
75497472	1200	1088
77594624	1088	1088
79691776	816	816
81788928	656	656
83886080	944	864
85983232	912	896
88080384	640	624
90177536	688	688
92274688	608	608
94371840	1392	1072
96468992	688	688
98566144	832	800
100663296	1600	1552
102760448	1072	1008
104857600	944	912
106954752	1520	1088
109051904	656	656
111149056	704	688
113246208	624	624
115343360	752	752
117440512	624	608
119537664	592	576
121634816	624	624
123731968	560	544
125829120	528	512
127926272	576	576
130023424	448	448
132120576	496	496
134217728	880	880
138412032	736	736
142606336	736	736
146800640	880	880
150994944	736	736
155189248	960	960
159383552	816	816
163577856	624	624
167772160	656	656
171966464	736	736
176160768	1312	1008
180355072	768	768
184549376	704	704
188743680	720	720
192937984	752	752
197132288	528	528
201326592	656	656
205520896	672	672
209715200	624	624
213909504	512	512
218103808	576	576
222298112	656	656
226492416	432	432
230686720	496	496
234881024	528	528
239075328	512	512
243269632	384	384
247463936	288	288
251658240	288	288
255852544	432	432
260046848	368	368
264241152	256	256
268435456	688	688
276824064	704	704
285212672	576	576
293601280	768	768
301989888	608	608
310378496	432	432
318767104	432	432
327155712	224	224
335544320	208	208
343932928	272	272
352321536	160	160
360710144	208	208
369098752	304	304
377487360	96	96
385875968	144	144
394264576	112	112
402653184	32	32
411041792	0	0
419430400	0	0
427819008	0	0
436207616	0	0
444596224	0	0
452984832	0	0
461373440	0	0
469762048	0	0
478150656	0	0
486539264	0	0
494927872	0	0
503316480	0	0
511705088	0	0
520093696	0	0
528482304	0	0
536870912	0	0
553648128	0	0
570425344	0	0
587202560	0	0
603979776	0	0
620756992	0	0
637534208	0	0
654311424	0	0
671088640	0	0
687865856	0	0
704643072	0	0
721420288	0	0
738197504	0	0
754974720	0	0
771751936	0	0
788529152	0	0
805306368	0	0
822083584	0	0
838860800	0	0
855638016	0	0
872415232	0	0
889192448	0	0
905969664	0	0
922746880	0	0
939524096	0	0
956301312	0	0
973078528	0	0
989855744	0	0
1006632960	0	0
1023410176	0	0
1040187392	0	0
1056964608	0	0
1073741824	0	0
1107296256	0	0
1140850688	0	0
1174405120	0	0
1207959552	0	0
1241513984	0	0
1275068416	0	0
1308622848	0	0
1342177280	0	0
1375731712	0	0
1409286144	0	0
1442840576	0	0
1476395008	0	0
1509949440	0	0
1543503872	0	0
1577058304	0	0
1610612736	0	0
1644167168	0	0
1677721600	0	0
1711276032	0	0
1744830464	0	0
1778384896	0	0
1811939328	0	0
1845493760	0	0
1879048192	0	0
1912602624	0	0
1946157056	0	0
1979711488	0	0
2013265920	0	0
2046820352	0	0
2080374784	0	0
2113929216	0	0
2147483648	0	0
2214592512	0	0
2281701376	0	0
2348810240	0	0
2415919104	0	0
2483027968	0	0
2550136832	0	0
2617245696	0	0
2684354560	0	0
2751463424	0	0
2818572288	0	0
2885681152	0	0
2952790016	0	0
3019898880	0	0
3087007744	0	0
3154116608	0	0
3221225472	0	0
3288334336	0	0
3355443200	0	0
3422552064	0	0
3489660928	0	0
3556769792	0	0
3623878656	0	0
3690987520	0	0
3758096384	0	0
3825205248	0	0
3892314112	0	0
3959422976	0	0
4026531840	0	0
4093640704	0	0
4160749568	0	0
4227858432	0	0
~~~~~~~~~~Reuse Distance Profiler output end~~~~~~~~~~

Sampler size:12287

DRAM Statistics
 CHANNEL 0
 RQ ROW_BUFFER_HIT:      12235  ROW_BUFFER_MISS:     299525
 DBUS AVG_CONGESTED_CYCLE:    3.83727
 WQ ROW_BUFFER_HIT:      49298  ROW_BUFFER_MISS:     154108  FULL:          0


CPU 0 Branch Prediction Accuracy: 86.1257% MPKI: 25.8481 Average ROB Occupancy at Mispredict: 14.0358
Branch type MPKI
BRANCH_DIRECT_JUMP: 0.000570667
BRANCH_INDIRECT: 0.000119333
BRANCH_CONDITIONAL: 25.8207
BRANCH_DIRECT_CALL: 0.00116933
BRANCH_INDIRECT_CALL: 0.0238013
BRANCH_RETURN: 0.00171867

