
*** ChampSim Multicore Out-of-Order Simulator ***

Warmup Instructions: 50000000
Simulation Instructions: 1500000000
Number of CPUs: 1
Off-chip DRAM Size: 4 GiB Channels: 1 Width: 64-bit Data Rate: 3200 MT/s

VirtualMemory physical capacity: 8588881920 num_ppages: 2096895
VirtualMemory page size: 4096 log2_page_size: 12

CPU 0 runs /s/traces/champsim_traces/445.gobmk-30B.champsimtrace.xz
CPU 0 Bimodal branch predictor
Basic BTB sets: 1024 ways: 8 indirect buffer size: 4096 RAS size: 64
Initializing LRU.
Initializing LRU.
Initializing LRU.
Initializing LRU.
Initializing rdLRU.
Initializing LRU.
Heartbeat CPU 0 instructions: 2000001 cycles: 512942 heartbeat IPC: 3.89908 cumulative IPC: 3.89908 (Simulation time: 0 hr 1 min 5 sec) 
Heartbeat CPU 0 instructions: 4000003 cycles: 1015840 heartbeat IPC: 3.97695 cumulative IPC: 3.93763 (Simulation time: 0 hr 2 min 10 sec) 
Heartbeat CPU 0 instructions: 6000000 cycles: 1518535 heartbeat IPC: 3.97855 cumulative IPC: 3.95118 (Simulation time: 0 hr 3 min 12 sec) 
Heartbeat CPU 0 instructions: 8000000 cycles: 2029186 heartbeat IPC: 3.91657 cumulative IPC: 3.94247 (Simulation time: 0 hr 4 min 15 sec) 
Heartbeat CPU 0 instructions: 10000002 cycles: 2535548 heartbeat IPC: 3.94975 cumulative IPC: 3.94392 (Simulation time: 0 hr 5 min 19 sec) 
Heartbeat CPU 0 instructions: 12000000 cycles: 3038182 heartbeat IPC: 3.97903 cumulative IPC: 3.94973 (Simulation time: 0 hr 6 min 20 sec) 
Heartbeat CPU 0 instructions: 14000001 cycles: 3543828 heartbeat IPC: 3.95534 cumulative IPC: 3.95053 (Simulation time: 0 hr 7 min 23 sec) 
Heartbeat CPU 0 instructions: 16000003 cycles: 4057501 heartbeat IPC: 3.89353 cumulative IPC: 3.94331 (Simulation time: 0 hr 8 min 32 sec) 
Heartbeat CPU 0 instructions: 18000002 cycles: 4560273 heartbeat IPC: 3.97794 cumulative IPC: 3.94713 (Simulation time: 0 hr 9 min 40 sec) 
Heartbeat CPU 0 instructions: 20000000 cycles: 5071254 heartbeat IPC: 3.91404 cumulative IPC: 3.9438 (Simulation time: 0 hr 10 min 45 sec) 
Heartbeat CPU 0 instructions: 22000001 cycles: 5578351 heartbeat IPC: 3.94402 cumulative IPC: 3.94382 (Simulation time: 0 hr 11 min 49 sec) 
Heartbeat CPU 0 instructions: 24000002 cycles: 6084904 heartbeat IPC: 3.94826 cumulative IPC: 3.94419 (Simulation time: 0 hr 12 min 53 sec) 
Heartbeat CPU 0 instructions: 26000000 cycles: 6597968 heartbeat IPC: 3.89815 cumulative IPC: 3.94061 (Simulation time: 0 hr 13 min 53 sec) 
Heartbeat CPU 0 instructions: 28000003 cycles: 7100705 heartbeat IPC: 3.97823 cumulative IPC: 3.94327 (Simulation time: 0 hr 14 min 51 sec) 
Heartbeat CPU 0 instructions: 30000000 cycles: 7604301 heartbeat IPC: 3.97143 cumulative IPC: 3.94514 (Simulation time: 0 hr 15 min 57 sec) 
Heartbeat CPU 0 instructions: 32000001 cycles: 8107737 heartbeat IPC: 3.9727 cumulative IPC: 3.94685 (Simulation time: 0 hr 16 min 59 sec) 
Heartbeat CPU 0 instructions: 34000001 cycles: 8610719 heartbeat IPC: 3.97629 cumulative IPC: 3.94857 (Simulation time: 0 hr 18 min 4 sec) 
Heartbeat CPU 0 instructions: 36000000 cycles: 9119496 heartbeat IPC: 3.93099 cumulative IPC: 3.94759 (Simulation time: 0 hr 19 min 8 sec) 
Heartbeat CPU 0 instructions: 38000002 cycles: 9629150 heartbeat IPC: 3.92423 cumulative IPC: 3.94635 (Simulation time: 0 hr 20 min 17 sec) 
Heartbeat CPU 0 instructions: 40000001 cycles: 10143514 heartbeat IPC: 3.8883 cumulative IPC: 3.94341 (Simulation time: 0 hr 21 min 18 sec) 
Heartbeat CPU 0 instructions: 42000002 cycles: 10646176 heartbeat IPC: 3.97882 cumulative IPC: 3.94508 (Simulation time: 0 hr 22 min 24 sec) 
Heartbeat CPU 0 instructions: 44000001 cycles: 11149512 heartbeat IPC: 3.97349 cumulative IPC: 3.94636 (Simulation time: 0 hr 23 min 26 sec) 
Heartbeat CPU 0 instructions: 46000003 cycles: 11652699 heartbeat IPC: 3.97467 cumulative IPC: 3.94758 (Simulation time: 0 hr 24 min 28 sec) 
Heartbeat CPU 0 instructions: 48000002 cycles: 12154439 heartbeat IPC: 3.98613 cumulative IPC: 3.94917 (Simulation time: 0 hr 25 min 32 sec) 
Heartbeat CPU 0 instructions: 50000001 cycles: 12658321 heartbeat IPC: 3.96918 cumulative IPC: 3.94997 (Simulation time: 0 hr 26 min 35 sec) 

Warmup complete CPU 0 instructions: 50000001 cycles: 12658321 (Simulation time: 0 hr 26 min 35 sec) 

Heartbeat CPU 0 instructions: 52000000 cycles: 15068164 heartbeat IPC: 0.829929 cumulative IPC: 0.829929 (Simulation time: 0 hr 27 min 45 sec) 

Region of Interest Statistics
cpu0_DTLB TOTAL     ACCESS:     456992  HIT:     456371  MISS:        621
cpu0_DTLB LOAD      ACCESS:     299659  HIT:     299138  MISS:        521
cpu0_DTLB RFO       ACCESS:     157333  HIT:     157233  MISS:        100
cpu0_DTLB PREFETCH  ACCESS:          0  HIT:          0  MISS:          0
cpu0_DTLB WRITEBACK ACCESS:          0  HIT:          0  MISS:          0
cpu0_ITLB TOTAL     ACCESS:     171800  HIT:     171800  MISS:          0
cpu0_ITLB LOAD      ACCESS:     171800  HIT:     171800  MISS:          0
cpu0_ITLB RFO       ACCESS:          0  HIT:          0  MISS:          0
cpu0_ITLB PREFETCH  ACCESS:          0  HIT:          0  MISS:          0
cpu0_ITLB WRITEBACK ACCESS:          0  HIT:          0  MISS:          0
cpu0_L1I TOTAL     ACCESS:     260861  HIT:     254091  MISS:       6770
cpu0_L1I LOAD      ACCESS:     260861  HIT:     254091  MISS:       6770
cpu0_L1I RFO       ACCESS:          0  HIT:          0  MISS:          0
cpu0_L1I PREFETCH  ACCESS:          0  HIT:          0  MISS:          0
cpu0_L1I WRITEBACK ACCESS:          0  HIT:          0  MISS:          0
cpu0_STLB TOTAL     ACCESS:        621  HIT:        465  MISS:        156
cpu0_STLB LOAD      ACCESS:        521  HIT:        369  MISS:        152
cpu0_STLB RFO       ACCESS:        100  HIT:         96  MISS:          4
cpu0_STLB PREFETCH  ACCESS:          0  HIT:          0  MISS:          0
cpu0_STLB WRITEBACK ACCESS:          0  HIT:          0  MISS:          0
cpu0_L1D TOTAL     ACCESS:     590760  HIT:     588168  MISS:       2592
cpu0_L1D LOAD      ACCESS:     296532  HIT:     295190  MISS:       1342
cpu0_L1D RFO       ACCESS:     294072  HIT:     292834  MISS:       1238
cpu0_L1D PREFETCH  ACCESS:          0  HIT:          0  MISS:          0
cpu0_L1D WRITEBACK ACCESS:          0  HIT:          0  MISS:          0
cpu0_L2C TOTAL     ACCESS:      11372  HIT:      10726  MISS:        646
cpu0_L2C LOAD      ACCESS:       8112  HIT:       7531  MISS:        581
cpu0_L2C RFO       ACCESS:       1238  HIT:       1174  MISS:         64
cpu0_L2C PREFETCH  ACCESS:          0  HIT:          0  MISS:          0
cpu0_L2C WRITEBACK ACCESS:       2010  HIT:       2009  MISS:          1
LLC TOTAL     ACCESS:       1013  HIT:        432  MISS:        581
LLC LOAD      ACCESS:        581  HIT:         45  MISS:        536
LLC RFO       ACCESS:         64  HIT:         23  MISS:         41
LLC PREFETCH  ACCESS:          0  HIT:          0  MISS:          0
LLC WRITEBACK ACCESS:        368  HIT:        364  MISS:          4
Heartbeat CPU 0 instructions: 54000003 cycles: 17555166 heartbeat IPC: 0.804182 cumulative IPC: 0.816853 (Simulation time: 0 hr 28 min 53 sec) 

Region of Interest Statistics
cpu0_DTLB TOTAL     ACCESS:     914741  HIT:     912932  MISS:       1809
cpu0_DTLB LOAD      ACCESS:     607666  HIT:     606199  MISS:       1467
cpu0_DTLB RFO       ACCESS:     307075  HIT:     306733  MISS:        342
cpu0_DTLB PREFETCH  ACCESS:          0  HIT:          0  MISS:          0
cpu0_DTLB WRITEBACK ACCESS:          0  HIT:          0  MISS:          0
cpu0_ITLB TOTAL     ACCESS:     347699  HIT:     347697  MISS:          2
cpu0_ITLB LOAD      ACCESS:     347699  HIT:     347697  MISS:          2
cpu0_ITLB RFO       ACCESS:          0  HIT:          0  MISS:          0
cpu0_ITLB PREFETCH  ACCESS:          0  HIT:          0  MISS:          0
cpu0_ITLB WRITEBACK ACCESS:          0  HIT:          0  MISS:          0
cpu0_L1I TOTAL     ACCESS:     505705  HIT:     489135  MISS:      16570
cpu0_L1I LOAD      ACCESS:     505705  HIT:     489135  MISS:      16570
cpu0_L1I RFO       ACCESS:          0  HIT:          0  MISS:          0
cpu0_L1I PREFETCH  ACCESS:          0  HIT:          0  MISS:          0
cpu0_L1I WRITEBACK ACCESS:          0  HIT:          0  MISS:          0
cpu0_STLB TOTAL     ACCESS:       1811  HIT:       1467  MISS:        344
cpu0_STLB LOAD      ACCESS:       1469  HIT:       1131  MISS:        338
cpu0_STLB RFO       ACCESS:        342  HIT:        336  MISS:          6
cpu0_STLB PREFETCH  ACCESS:          0  HIT:          0  MISS:          0
cpu0_STLB WRITEBACK ACCESS:          0  HIT:          0  MISS:          0
cpu0_L1D TOTAL     ACCESS:    1173875  HIT:    1166802  MISS:       7073
cpu0_L1D LOAD      ACCESS:     603817  HIT:     599524  MISS:       4293
cpu0_L1D RFO       ACCESS:     569714  HIT:     566958  MISS:       2756
cpu0_L1D PREFETCH  ACCESS:          0  HIT:          0  MISS:          0
cpu0_L1D WRITEBACK ACCESS:          0  HIT:          0  MISS:          0
cpu0_L2C TOTAL     ACCESS:      27771  HIT:      26046  MISS:       1725
cpu0_L2C LOAD      ACCESS:      20863  HIT:      19258  MISS:       1605
cpu0_L2C RFO       ACCESS:       2756  HIT:       2644  MISS:        112
cpu0_L2C PREFETCH  ACCESS:          0  HIT:          0  MISS:          0
cpu0_L2C WRITEBACK ACCESS:       4128  HIT:       4120  MISS:          8
LLC TOTAL     ACCESS:       2745  HIT:       1523  MISS:       1222
LLC LOAD      ACCESS:       1605  HIT:        473  MISS:       1132
LLC RFO       ACCESS:        112  HIT:         38  MISS:         74
LLC PREFETCH  ACCESS:          0  HIT:          0  MISS:          0
LLC WRITEBACK ACCESS:       1028  HIT:       1012  MISS:         16
Heartbeat CPU 0 instructions: 56000004 cycles: 19957174 heartbeat IPC: 0.832637 cumulative IPC: 0.822047 (Simulation time: 0 hr 30 min 3 sec) 

Region of Interest Statistics
cpu0_DTLB TOTAL     ACCESS:    1366374  HIT:    1363591  MISS:       2783
cpu0_DTLB LOAD      ACCESS:     913954  HIT:     911671  MISS:       2283
cpu0_DTLB RFO       ACCESS:     452420  HIT:     451920  MISS:        500
cpu0_DTLB PREFETCH  ACCESS:          0  HIT:          0  MISS:          0
cpu0_DTLB WRITEBACK ACCESS:          0  HIT:          0  MISS:          0
cpu0_ITLB TOTAL     ACCESS:     522308  HIT:     522285  MISS:         23
cpu0_ITLB LOAD      ACCESS:     522308  HIT:     522285  MISS:         23
cpu0_ITLB RFO       ACCESS:          0  HIT:          0  MISS:          0
cpu0_ITLB PREFETCH  ACCESS:          0  HIT:          0  MISS:          0
cpu0_ITLB WRITEBACK ACCESS:          0  HIT:          0  MISS:          0
cpu0_L1I TOTAL     ACCESS:     741983  HIT:     717535  MISS:      24448
cpu0_L1I LOAD      ACCESS:     741983  HIT:     717535  MISS:      24448
cpu0_L1I RFO       ACCESS:          0  HIT:          0  MISS:          0
cpu0_L1I PREFETCH  ACCESS:          0  HIT:          0  MISS:          0
cpu0_L1I WRITEBACK ACCESS:          0  HIT:          0  MISS:          0
cpu0_STLB TOTAL     ACCESS:       2806  HIT:       2287  MISS:        519
cpu0_STLB LOAD      ACCESS:       2306  HIT:       1795  MISS:        511
cpu0_STLB RFO       ACCESS:        500  HIT:        492  MISS:          8
cpu0_STLB PREFETCH  ACCESS:          0  HIT:          0  MISS:          0
cpu0_STLB WRITEBACK ACCESS:          0  HIT:          0  MISS:          0
cpu0_L1D TOTAL     ACCESS:    1742849  HIT:    1731550  MISS:      11299
cpu0_L1D LOAD      ACCESS:     904049  HIT:     896839  MISS:       7210
cpu0_L1D RFO       ACCESS:     838281  HIT:     834227  MISS:       4054
cpu0_L1D PREFETCH  ACCESS:          0  HIT:          0  MISS:          0
cpu0_L1D WRITEBACK ACCESS:          0  HIT:          0  MISS:          0
cpu0_L2C TOTAL     ACCESS:      41940  HIT:      39486  MISS:       2454
cpu0_L2C LOAD      ACCESS:      31658  HIT:      29368  MISS:       2290
cpu0_L2C RFO       ACCESS:       4054  HIT:       3899  MISS:        155
cpu0_L2C PREFETCH  ACCESS:          0  HIT:          0  MISS:          0
cpu0_L2C WRITEBACK ACCESS:       6193  HIT:       6184  MISS:          9
LLC TOTAL     ACCESS:       3892  HIT:       2126  MISS:       1766
LLC LOAD      ACCESS:       2290  HIT:        650  MISS:       1640
LLC RFO       ACCESS:        155  HIT:         49  MISS:        106
LLC PREFETCH  ACCESS:          0  HIT:          0  MISS:          0
LLC WRITEBACK ACCESS:       1447  HIT:       1427  MISS:         20
Heartbeat CPU 0 instructions: 58000001 cycles: 22385844 heartbeat IPC: 0.823495 cumulative IPC: 0.822409 (Simulation time: 0 hr 31 min 10 sec) 

Region of Interest Statistics
cpu0_DTLB TOTAL     ACCESS:    1816582  HIT:    1812727  MISS:       3855
cpu0_DTLB LOAD      ACCESS:    1216635  HIT:    1213507  MISS:       3128
cpu0_DTLB RFO       ACCESS:     599947  HIT:     599220  MISS:        727
cpu0_DTLB PREFETCH  ACCESS:          0  HIT:          0  MISS:          0
cpu0_DTLB WRITEBACK ACCESS:          0  HIT:          0  MISS:          0
cpu0_ITLB TOTAL     ACCESS:     698251  HIT:     698218  MISS:         33
cpu0_ITLB LOAD      ACCESS:     698251  HIT:     698218  MISS:         33
cpu0_ITLB RFO       ACCESS:          0  HIT:          0  MISS:          0
cpu0_ITLB PREFETCH  ACCESS:          0  HIT:          0  MISS:          0
cpu0_ITLB WRITEBACK ACCESS:          0  HIT:          0  MISS:          0
cpu0_L1I TOTAL     ACCESS:     981897  HIT:     948883  MISS:      33014
cpu0_L1I LOAD      ACCESS:     981897  HIT:     948883  MISS:      33014
cpu0_L1I RFO       ACCESS:          0  HIT:          0  MISS:          0
cpu0_L1I PREFETCH  ACCESS:          0  HIT:          0  MISS:          0
cpu0_L1I WRITEBACK ACCESS:          0  HIT:          0  MISS:          0
cpu0_STLB TOTAL     ACCESS:       3888  HIT:       3204  MISS:        684
cpu0_STLB LOAD      ACCESS:       3161  HIT:       2489  MISS:        672
cpu0_STLB RFO       ACCESS:        727  HIT:        715  MISS:         12
cpu0_STLB PREFETCH  ACCESS:          0  HIT:          0  MISS:          0
cpu0_STLB WRITEBACK ACCESS:          0  HIT:          0  MISS:          0
cpu0_L1D TOTAL     ACCESS:    2320967  HIT:    2305647  MISS:      15320
cpu0_L1D LOAD      ACCESS:    1207183  HIT:    1197239  MISS:       9944
cpu0_L1D RFO       ACCESS:    1113100  HIT:    1107774  MISS:       5326
cpu0_L1D PREFETCH  ACCESS:          0  HIT:          0  MISS:          0
cpu0_L1D WRITEBACK ACCESS:          0  HIT:          0  MISS:          0
cpu0_L2C TOTAL     ACCESS:      56428  HIT:      53229  MISS:       3199
cpu0_L2C LOAD      ACCESS:      42958  HIT:      39976  MISS:       2982
cpu0_L2C RFO       ACCESS:       5326  HIT:       5120  MISS:        206
cpu0_L2C PREFETCH  ACCESS:          0  HIT:          0  MISS:          0
cpu0_L2C WRITEBACK ACCESS:       8094  HIT:       8083  MISS:         11
LLC TOTAL     ACCESS:       5141  HIT:       2780  MISS:       2361
LLC LOAD      ACCESS:       2982  HIT:        784  MISS:       2198
LLC RFO       ACCESS:        206  HIT:         67  MISS:        139
LLC PREFETCH  ACCESS:          0  HIT:          0  MISS:          0
LLC WRITEBACK ACCESS:       1953  HIT:       1929  MISS:         24
Heartbeat CPU 0 instructions: 60000001 cycles: 24770223 heartbeat IPC: 0.838793 cumulative IPC: 0.825634 (Simulation time: 0 hr 32 min 16 sec) 

Region of Interest Statistics
cpu0_DTLB TOTAL     ACCESS:    2239958  HIT:    2235682  MISS:       4276
cpu0_DTLB LOAD      ACCESS:    1546337  HIT:    1542886  MISS:       3451
cpu0_DTLB RFO       ACCESS:     693621  HIT:     692796  MISS:        825
cpu0_DTLB PREFETCH  ACCESS:          0  HIT:          0  MISS:          0
cpu0_DTLB WRITEBACK ACCESS:          0  HIT:          0  MISS:          0
cpu0_ITLB TOTAL     ACCESS:     900768  HIT:     900730  MISS:         38
cpu0_ITLB LOAD      ACCESS:     900768  HIT:     900730  MISS:         38
cpu0_ITLB RFO       ACCESS:          0  HIT:          0  MISS:          0
cpu0_ITLB PREFETCH  ACCESS:          0  HIT:          0  MISS:          0
cpu0_ITLB WRITEBACK ACCESS:          0  HIT:          0  MISS:          0
cpu0_L1I TOTAL     ACCESS:    1068077  HIT:    1031780  MISS:      36297
cpu0_L1I LOAD      ACCESS:    1068077  HIT:    1031780  MISS:      36297
cpu0_L1I RFO       ACCESS:          0  HIT:          0  MISS:          0
cpu0_L1I PREFETCH  ACCESS:          0  HIT:          0  MISS:          0
cpu0_L1I WRITEBACK ACCESS:          0  HIT:          0  MISS:          0
cpu0_STLB TOTAL     ACCESS:       4314  HIT:       3514  MISS:        800
cpu0_STLB LOAD      ACCESS:       3489  HIT:       2715  MISS:        774
cpu0_STLB RFO       ACCESS:        825  HIT:        799  MISS:         26
cpu0_STLB PREFETCH  ACCESS:          0  HIT:          0  MISS:          0
cpu0_STLB WRITEBACK ACCESS:          0  HIT:          0  MISS:          0
cpu0_L1D TOTAL     ACCESS:    2796722  HIT:    2777929  MISS:      18793
cpu0_L1D LOAD      ACCESS:    1536270  HIT:    1524020  MISS:      12250
cpu0_L1D RFO       ACCESS:    1259654  HIT:    1253167  MISS:       6487
cpu0_L1D PREFETCH  ACCESS:          0  HIT:          0  MISS:          0
cpu0_L1D WRITEBACK ACCESS:          0  HIT:          0  MISS:          0
cpu0_L2C TOTAL     ACCESS:      64984  HIT:      59782  MISS:       5202
cpu0_L2C LOAD      ACCESS:      48547  HIT:      44012  MISS:       4535
cpu0_L2C RFO       ACCESS:       6487  HIT:       5838  MISS:        649
cpu0_L2C PREFETCH  ACCESS:          0  HIT:          0  MISS:          0
cpu0_L2C WRITEBACK ACCESS:       9894  HIT:       9876  MISS:         18
LLC TOTAL     ACCESS:       8406  HIT:       5743  MISS:       2663
LLC LOAD      ACCESS:       4535  HIT:       2066  MISS:       2469
LLC RFO       ACCESS:        649  HIT:        498  MISS:        151
LLC PREFETCH  ACCESS:          0  HIT:          0  MISS:          0
LLC WRITEBACK ACCESS:       3222  HIT:       3179  MISS:         43
Heartbeat CPU 0 instructions: 62000002 cycles: 27211769 heartbeat IPC: 0.819154 cumulative IPC: 0.824547 (Simulation time: 0 hr 33 min 23 sec) 

Region of Interest Statistics
cpu0_DTLB TOTAL     ACCESS:    2686039  HIT:    2680780  MISS:       5259
cpu0_DTLB LOAD      ACCESS:    1842410  HIT:    1838142  MISS:       4268
cpu0_DTLB RFO       ACCESS:     843629  HIT:     842638  MISS:        991
cpu0_DTLB PREFETCH  ACCESS:          0  HIT:          0  MISS:          0
cpu0_DTLB WRITEBACK ACCESS:          0  HIT:          0  MISS:          0
cpu0_ITLB TOTAL     ACCESS:    1073949  HIT:    1073887  MISS:         62
cpu0_ITLB LOAD      ACCESS:    1073949  HIT:    1073887  MISS:         62
cpu0_ITLB RFO       ACCESS:          0  HIT:          0  MISS:          0
cpu0_ITLB PREFETCH  ACCESS:          0  HIT:          0  MISS:          0
cpu0_ITLB WRITEBACK ACCESS:          0  HIT:          0  MISS:          0
cpu0_L1I TOTAL     ACCESS:    1308838  HIT:    1264692  MISS:      44146
cpu0_L1I LOAD      ACCESS:    1308838  HIT:    1264692  MISS:      44146
cpu0_L1I RFO       ACCESS:          0  HIT:          0  MISS:          0
cpu0_L1I PREFETCH  ACCESS:          0  HIT:          0  MISS:          0
cpu0_L1I WRITEBACK ACCESS:          0  HIT:          0  MISS:          0
cpu0_STLB TOTAL     ACCESS:       5321  HIT:       4226  MISS:       1095
cpu0_STLB LOAD      ACCESS:       4330  HIT:       3276  MISS:       1054
cpu0_STLB RFO       ACCESS:        991  HIT:        950  MISS:         41
cpu0_STLB PREFETCH  ACCESS:          0  HIT:          0  MISS:          0
cpu0_STLB WRITEBACK ACCESS:          0  HIT:          0  MISS:          0
cpu0_L1D TOTAL     ACCESS:    3365897  HIT:    3343276  MISS:      22621
cpu0_L1D LOAD      ACCESS:    1830208  HIT:    1815595  MISS:      14613
cpu0_L1D RFO       ACCESS:    1534604  HIT:    1526661  MISS:       7943
cpu0_L1D PREFETCH  ACCESS:          0  HIT:          0  MISS:          0
cpu0_L1D WRITEBACK ACCESS:          0  HIT:          0  MISS:          0
cpu0_L2C TOTAL     ACCESS:      78756  HIT:      71541  MISS:       7215
cpu0_L2C LOAD      ACCESS:      58759  HIT:      52629  MISS:       6130
cpu0_L2C RFO       ACCESS:       7943  HIT:       6876  MISS:       1067
cpu0_L2C PREFETCH  ACCESS:          0  HIT:          0  MISS:          0
cpu0_L2C WRITEBACK ACCESS:      11989  HIT:      11971  MISS:         18
LLC TOTAL     ACCESS:      11542  HIT:       7556  MISS:       3986
LLC LOAD      ACCESS:       6130  HIT:       2504  MISS:       3626
LLC RFO       ACCESS:       1067  HIT:        763  MISS:        304
LLC PREFETCH  ACCESS:          0  HIT:          0  MISS:          0
LLC WRITEBACK ACCESS:       4345  HIT:       4289  MISS:         56
Heartbeat CPU 0 instructions: 64000000 cycles: 29712357 heartbeat IPC: 0.799811 cumulative IPC: 0.82092 (Simulation time: 0 hr 34 min 30 sec) 

Region of Interest Statistics
cpu0_DTLB TOTAL     ACCESS:    3142778  HIT:    3136667  MISS:       6111
cpu0_DTLB LOAD      ACCESS:    2146168  HIT:    2141133  MISS:       5035
cpu0_DTLB RFO       ACCESS:     996610  HIT:     995534  MISS:       1076
cpu0_DTLB PREFETCH  ACCESS:          0  HIT:          0  MISS:          0
cpu0_DTLB WRITEBACK ACCESS:          0  HIT:          0  MISS:          0
cpu0_ITLB TOTAL     ACCESS:    1248759  HIT:    1248697  MISS:         62
cpu0_ITLB LOAD      ACCESS:    1248759  HIT:    1248697  MISS:         62
cpu0_ITLB RFO       ACCESS:          0  HIT:          0  MISS:          0
cpu0_ITLB PREFETCH  ACCESS:          0  HIT:          0  MISS:          0
cpu0_ITLB WRITEBACK ACCESS:          0  HIT:          0  MISS:          0
cpu0_L1I TOTAL     ACCESS:    1572746  HIT:    1521458  MISS:      51288
cpu0_L1I LOAD      ACCESS:    1572746  HIT:    1521458  MISS:      51288
cpu0_L1I RFO       ACCESS:          0  HIT:          0  MISS:          0
cpu0_L1I PREFETCH  ACCESS:          0  HIT:          0  MISS:          0
cpu0_L1I WRITEBACK ACCESS:          0  HIT:          0  MISS:          0
cpu0_STLB TOTAL     ACCESS:       6173  HIT:       4829  MISS:       1344
cpu0_STLB LOAD      ACCESS:       5097  HIT:       3801  MISS:       1296
cpu0_STLB RFO       ACCESS:       1076  HIT:       1028  MISS:         48
cpu0_STLB PREFETCH  ACCESS:          0  HIT:          0  MISS:          0
cpu0_STLB WRITEBACK ACCESS:          0  HIT:          0  MISS:          0
cpu0_L1D TOTAL     ACCESS:    3963710  HIT:    3938858  MISS:      24852
cpu0_L1D LOAD      ACCESS:    2136758  HIT:    2120748  MISS:      16010
cpu0_L1D RFO       ACCESS:    1825618  HIT:    1816844  MISS:       8774
cpu0_L1D PREFETCH  ACCESS:          0  HIT:          0  MISS:          0
cpu0_L1D WRITEBACK ACCESS:          0  HIT:          0  MISS:          0
cpu0_L2C TOTAL     ACCESS:      89878  HIT:      81532  MISS:       8346
cpu0_L2C LOAD      ACCESS:      67298  HIT:      60283  MISS:       7015
cpu0_L2C RFO       ACCESS:       8774  HIT:       7461  MISS:       1313
cpu0_L2C PREFETCH  ACCESS:          0  HIT:          0  MISS:          0
cpu0_L2C WRITEBACK ACCESS:      13738  HIT:      13720  MISS:         18
LLC TOTAL     ACCESS:      13330  HIT:       8529  MISS:       4801
LLC LOAD      ACCESS:       7015  HIT:       2663  MISS:       4352
LLC RFO       ACCESS:       1313  HIT:        943  MISS:        370
LLC PREFETCH  ACCESS:          0  HIT:          0  MISS:          0
LLC WRITEBACK ACCESS:       5002  HIT:       4923  MISS:         79
Heartbeat CPU 0 instructions: 66000001 cycles: 32090391 heartbeat IPC: 0.841031 cumulative IPC: 0.823381 (Simulation time: 0 hr 35 min 37 sec) 

Region of Interest Statistics
cpu0_DTLB TOTAL     ACCESS:    3599917  HIT:    3593193  MISS:       6724
cpu0_DTLB LOAD      ACCESS:    2444710  HIT:    2439117  MISS:       5593
cpu0_DTLB RFO       ACCESS:    1155207  HIT:    1154076  MISS:       1131
cpu0_DTLB PREFETCH  ACCESS:          0  HIT:          0  MISS:          0
cpu0_DTLB WRITEBACK ACCESS:          0  HIT:          0  MISS:          0
cpu0_ITLB TOTAL     ACCESS:    1419972  HIT:    1419910  MISS:         62
cpu0_ITLB LOAD      ACCESS:    1419972  HIT:    1419910  MISS:         62
cpu0_ITLB RFO       ACCESS:          0  HIT:          0  MISS:          0
cpu0_ITLB PREFETCH  ACCESS:          0  HIT:          0  MISS:          0
cpu0_ITLB WRITEBACK ACCESS:          0  HIT:          0  MISS:          0
cpu0_L1I TOTAL     ACCESS:    1830808  HIT:    1772878  MISS:      57930
cpu0_L1I LOAD      ACCESS:    1830808  HIT:    1772878  MISS:      57930
cpu0_L1I RFO       ACCESS:          0  HIT:          0  MISS:          0
cpu0_L1I PREFETCH  ACCESS:          0  HIT:          0  MISS:          0
cpu0_L1I WRITEBACK ACCESS:          0  HIT:          0  MISS:          0
cpu0_STLB TOTAL     ACCESS:       6786  HIT:       5296  MISS:       1490
cpu0_STLB LOAD      ACCESS:       5655  HIT:       4214  MISS:       1441
cpu0_STLB RFO       ACCESS:       1131  HIT:       1082  MISS:         49
cpu0_STLB PREFETCH  ACCESS:          0  HIT:          0  MISS:          0
cpu0_STLB WRITEBACK ACCESS:          0  HIT:          0  MISS:          0
cpu0_L1D TOTAL     ACCESS:    4555497  HIT:    4528654  MISS:      26843
cpu0_L1D LOAD      ACCESS:    2432995  HIT:    2415863  MISS:      17132
cpu0_L1D RFO       ACCESS:    2121022  HIT:    2111382  MISS:       9640
cpu0_L1D PREFETCH  ACCESS:          0  HIT:          0  MISS:          0
cpu0_L1D WRITEBACK ACCESS:          0  HIT:          0  MISS:          0
cpu0_L2C TOTAL     ACCESS:      99784  HIT:      90639  MISS:       9145
cpu0_L2C LOAD      ACCESS:      75062  HIT:      67309  MISS:       7753
cpu0_L2C RFO       ACCESS:       9640  HIT:       8266  MISS:       1374
cpu0_L2C PREFETCH  ACCESS:          0  HIT:          0  MISS:          0
cpu0_L2C WRITEBACK ACCESS:      15011  HIT:      14993  MISS:         18
LLC TOTAL     ACCESS:      14551  HIT:       9428  MISS:       5123
LLC LOAD      ACCESS:       7753  HIT:       3126  MISS:       4627
LLC RFO       ACCESS:       1374  HIT:        973  MISS:        401
LLC PREFETCH  ACCESS:          0  HIT:          0  MISS:          0
LLC WRITEBACK ACCESS:       5424  HIT:       5329  MISS:         95
Heartbeat CPU 0 instructions: 68000000 cycles: 34559226 heartbeat IPC: 0.810098 cumulative IPC: 0.821884 (Simulation time: 0 hr 36 min 46 sec) 

Region of Interest Statistics
cpu0_DTLB TOTAL     ACCESS:    4054254  HIT:    4046629  MISS:       7625
cpu0_DTLB LOAD      ACCESS:    2743580  HIT:    2737196  MISS:       6384
cpu0_DTLB RFO       ACCESS:    1310674  HIT:    1309433  MISS:       1241
cpu0_DTLB PREFETCH  ACCESS:          0  HIT:          0  MISS:          0
cpu0_DTLB WRITEBACK ACCESS:          0  HIT:          0  MISS:          0
cpu0_ITLB TOTAL     ACCESS:    1591430  HIT:    1591368  MISS:         62
cpu0_ITLB LOAD      ACCESS:    1591430  HIT:    1591368  MISS:         62
cpu0_ITLB RFO       ACCESS:          0  HIT:          0  MISS:          0
cpu0_ITLB PREFETCH  ACCESS:          0  HIT:          0  MISS:          0
cpu0_ITLB WRITEBACK ACCESS:          0  HIT:          0  MISS:          0
cpu0_L1I TOTAL     ACCESS:    2083503  HIT:    2017749  MISS:      65754
cpu0_L1I LOAD      ACCESS:    2083503  HIT:    2017749  MISS:      65754
cpu0_L1I RFO       ACCESS:          0  HIT:          0  MISS:          0
cpu0_L1I PREFETCH  ACCESS:          0  HIT:          0  MISS:          0
cpu0_L1I WRITEBACK ACCESS:          0  HIT:          0  MISS:          0
cpu0_STLB TOTAL     ACCESS:       7687  HIT:       6010  MISS:       1677
cpu0_STLB LOAD      ACCESS:       6446  HIT:       4825  MISS:       1621
cpu0_STLB RFO       ACCESS:       1241  HIT:       1185  MISS:         56
cpu0_STLB PREFETCH  ACCESS:          0  HIT:          0  MISS:          0
cpu0_STLB WRITEBACK ACCESS:          0  HIT:          0  MISS:          0
cpu0_L1D TOTAL     ACCESS:    5144840  HIT:    5115136  MISS:      29704
cpu0_L1D LOAD      ACCESS:    2733507  HIT:    2715044  MISS:      18463
cpu0_L1D RFO       ACCESS:    2409666  HIT:    2398506  MISS:      11160
cpu0_L1D PREFETCH  ACCESS:          0  HIT:          0  MISS:          0
cpu0_L1D WRITEBACK ACCESS:          0  HIT:          0  MISS:          0
cpu0_L2C TOTAL     ACCESS:     112409  HIT:     102257  MISS:      10152
cpu0_L2C LOAD      ACCESS:      84217  HIT:      75551  MISS:       8666
cpu0_L2C RFO       ACCESS:      11160  HIT:       9695  MISS:       1465
cpu0_L2C PREFETCH  ACCESS:          0  HIT:          0  MISS:          0
cpu0_L2C WRITEBACK ACCESS:      16951  HIT:      16930  MISS:         21
LLC TOTAL     ACCESS:      16068  HIT:      10137  MISS:       5931
LLC LOAD      ACCESS:       8666  HIT:       3286  MISS:       5380
LLC RFO       ACCESS:       1465  HIT:       1036  MISS:        429
LLC PREFETCH  ACCESS:          0  HIT:          0  MISS:          0
LLC WRITEBACK ACCESS:       5937  HIT:       5815  MISS:        122
Heartbeat CPU 0 instructions: 70000000 cycles: 37015894 heartbeat IPC: 0.814111 cumulative IPC: 0.8211 (Simulation time: 0 hr 37 min 51 sec) 

Region of Interest Statistics
cpu0_DTLB TOTAL     ACCESS:    4521005  HIT:    4512550  MISS:       8455
cpu0_DTLB LOAD      ACCESS:    3048972  HIT:    3041863  MISS:       7109
cpu0_DTLB RFO       ACCESS:    1472033  HIT:    1470687  MISS:       1346
cpu0_DTLB PREFETCH  ACCESS:          0  HIT:          0  MISS:          0
cpu0_DTLB WRITEBACK ACCESS:          0  HIT:          0  MISS:          0
cpu0_ITLB TOTAL     ACCESS:    1761052  HIT:    1760990  MISS:         62
cpu0_ITLB LOAD      ACCESS:    1761052  HIT:    1760990  MISS:         62
cpu0_ITLB RFO       ACCESS:          0  HIT:          0  MISS:          0
cpu0_ITLB PREFETCH  ACCESS:          0  HIT:          0  MISS:          0
cpu0_ITLB WRITEBACK ACCESS:          0  HIT:          0  MISS:          0
cpu0_L1I TOTAL     ACCESS:    2347542  HIT:    2275967  MISS:      71575
cpu0_L1I LOAD      ACCESS:    2347542  HIT:    2275967  MISS:      71575
cpu0_L1I RFO       ACCESS:          0  HIT:          0  MISS:          0
cpu0_L1I PREFETCH  ACCESS:          0  HIT:          0  MISS:          0
cpu0_L1I WRITEBACK ACCESS:          0  HIT:          0  MISS:          0
cpu0_STLB TOTAL     ACCESS:       8517  HIT:       6688  MISS:       1829
cpu0_STLB LOAD      ACCESS:       7171  HIT:       5401  MISS:       1770
cpu0_STLB RFO       ACCESS:       1346  HIT:       1287  MISS:         59
cpu0_STLB PREFETCH  ACCESS:          0  HIT:          0  MISS:          0
cpu0_STLB WRITEBACK ACCESS:          0  HIT:          0  MISS:          0
cpu0_L1D TOTAL     ACCESS:    5752345  HIT:    5720534  MISS:      31811
cpu0_L1D LOAD      ACCESS:    3039526  HIT:    3019892  MISS:      19634
cpu0_L1D RFO       ACCESS:    2711000  HIT:    2698913  MISS:      12087
cpu0_L1D PREFETCH  ACCESS:          0  HIT:          0  MISS:          0
cpu0_L1D WRITEBACK ACCESS:          0  HIT:          0  MISS:          0
cpu0_L2C TOTAL     ACCESS:     121779  HIT:     110769  MISS:      11010
cpu0_L2C LOAD      ACCESS:      91209  HIT:      81710  MISS:       9499
cpu0_L2C RFO       ACCESS:      12087  HIT:      10598  MISS:       1489
cpu0_L2C PREFETCH  ACCESS:          0  HIT:          0  MISS:          0
cpu0_L2C WRITEBACK ACCESS:      18393  HIT:      18371  MISS:         22
LLC TOTAL     ACCESS:      17346  HIT:      10643  MISS:       6703
LLC LOAD      ACCESS:       9499  HIT:       3367  MISS:       6132
LLC RFO       ACCESS:       1489  HIT:       1053  MISS:        436
LLC PREFETCH  ACCESS:          0  HIT:          0  MISS:          0
LLC WRITEBACK ACCESS:       6358  HIT:       6223  MISS:        135
Heartbeat CPU 0 instructions: 72000000 cycles: 39407054 heartbeat IPC: 0.836414 cumulative IPC: 0.822469 (Simulation time: 0 hr 38 min 55 sec) 

Region of Interest Statistics
cpu0_DTLB TOTAL     ACCESS:    4985348  HIT:    4975965  MISS:       9383
cpu0_DTLB LOAD      ACCESS:    3352803  HIT:    3344866  MISS:       7937
cpu0_DTLB RFO       ACCESS:    1632545  HIT:    1631099  MISS:       1446
cpu0_DTLB PREFETCH  ACCESS:          0  HIT:          0  MISS:          0
cpu0_DTLB WRITEBACK ACCESS:          0  HIT:          0  MISS:          0
cpu0_ITLB TOTAL     ACCESS:    1929399  HIT:    1929337  MISS:         62
cpu0_ITLB LOAD      ACCESS:    1929399  HIT:    1929337  MISS:         62
cpu0_ITLB RFO       ACCESS:          0  HIT:          0  MISS:          0
cpu0_ITLB PREFETCH  ACCESS:          0  HIT:          0  MISS:          0
cpu0_ITLB WRITEBACK ACCESS:          0  HIT:          0  MISS:          0
cpu0_L1I TOTAL     ACCESS:    2600279  HIT:    2522630  MISS:      77649
cpu0_L1I LOAD      ACCESS:    2600279  HIT:    2522630  MISS:      77649
cpu0_L1I RFO       ACCESS:          0  HIT:          0  MISS:          0
cpu0_L1I PREFETCH  ACCESS:          0  HIT:          0  MISS:          0
cpu0_L1I WRITEBACK ACCESS:          0  HIT:          0  MISS:          0
cpu0_STLB TOTAL     ACCESS:       9445  HIT:       7393  MISS:       2052
cpu0_STLB LOAD      ACCESS:       7999  HIT:       6012  MISS:       1987
cpu0_STLB RFO       ACCESS:       1446  HIT:       1381  MISS:         65
cpu0_STLB PREFETCH  ACCESS:          0  HIT:          0  MISS:          0
cpu0_STLB WRITEBACK ACCESS:          0  HIT:          0  MISS:          0
cpu0_L1D TOTAL     ACCESS:    6351461  HIT:    6316188  MISS:      35273
cpu0_L1D LOAD      ACCESS:    3341421  HIT:    3320144  MISS:      21277
cpu0_L1D RFO       ACCESS:    3007999  HIT:    2994105  MISS:      13894
cpu0_L1D PREFETCH  ACCESS:          0  HIT:          0  MISS:          0
cpu0_L1D WRITEBACK ACCESS:          0  HIT:          0  MISS:          0
cpu0_L2C TOTAL     ACCESS:     134098  HIT:     121940  MISS:      12158
cpu0_L2C LOAD      ACCESS:      98926  HIT:      88455  MISS:      10471
cpu0_L2C RFO       ACCESS:      13894  HIT:      12236  MISS:       1658
cpu0_L2C PREFETCH  ACCESS:          0  HIT:          0  MISS:          0
cpu0_L2C WRITEBACK ACCESS:      21176  HIT:      21147  MISS:         29
LLC TOTAL     ACCESS:      19040  HIT:      11394  MISS:       7646
LLC LOAD      ACCESS:      10471  HIT:       3560  MISS:       6911
LLC RFO       ACCESS:       1658  HIT:       1099  MISS:        559
LLC PREFETCH  ACCESS:          0  HIT:          0  MISS:          0
LLC WRITEBACK ACCESS:       6911  HIT:       6735  MISS:        176
Heartbeat CPU 0 instructions: 74000004 cycles: 41769284 heartbeat IPC: 0.846659 cumulative IPC: 0.824432 (Simulation time: 0 hr 40 min 0 sec) 

Region of Interest Statistics
cpu0_DTLB TOTAL     ACCESS:    5441349  HIT:    5431363  MISS:       9986
cpu0_DTLB LOAD      ACCESS:    3651099  HIT:    3642613  MISS:       8486
cpu0_DTLB RFO       ACCESS:    1790250  HIT:    1788750  MISS:       1500
cpu0_DTLB PREFETCH  ACCESS:          0  HIT:          0  MISS:          0
cpu0_DTLB WRITEBACK ACCESS:          0  HIT:          0  MISS:          0
cpu0_ITLB TOTAL     ACCESS:    2099296  HIT:    2099234  MISS:         62
cpu0_ITLB LOAD      ACCESS:    2099296  HIT:    2099234  MISS:         62
cpu0_ITLB RFO       ACCESS:          0  HIT:          0  MISS:          0
cpu0_ITLB PREFETCH  ACCESS:          0  HIT:          0  MISS:          0
cpu0_ITLB WRITEBACK ACCESS:          0  HIT:          0  MISS:          0
cpu0_L1I TOTAL     ACCESS:    2859796  HIT:    2776299  MISS:      83497
cpu0_L1I LOAD      ACCESS:    2859796  HIT:    2776299  MISS:      83497
cpu0_L1I RFO       ACCESS:          0  HIT:          0  MISS:          0
cpu0_L1I PREFETCH  ACCESS:          0  HIT:          0  MISS:          0
cpu0_L1I WRITEBACK ACCESS:          0  HIT:          0  MISS:          0
cpu0_STLB TOTAL     ACCESS:      10048  HIT:       7872  MISS:       2176
cpu0_STLB LOAD      ACCESS:       8548  HIT:       6447  MISS:       2101
cpu0_STLB RFO       ACCESS:       1500  HIT:       1425  MISS:         75
cpu0_STLB PREFETCH  ACCESS:          0  HIT:          0  MISS:          0
cpu0_STLB WRITEBACK ACCESS:          0  HIT:          0  MISS:          0
cpu0_L1D TOTAL     ACCESS:    6943816  HIT:    6906403  MISS:      37413
cpu0_L1D LOAD      ACCESS:    3638883  HIT:    3616712  MISS:      22171
cpu0_L1D RFO       ACCESS:    3302768  HIT:    3287638  MISS:      15130
cpu0_L1D PREFETCH  ACCESS:          0  HIT:          0  MISS:          0
cpu0_L1D WRITEBACK ACCESS:          0  HIT:          0  MISS:          0
cpu0_L2C TOTAL     ACCESS:     143552  HIT:     130390  MISS:      13162
cpu0_L2C LOAD      ACCESS:     105668  HIT:      94711  MISS:      10957
cpu0_L2C RFO       ACCESS:      15130  HIT:      12956  MISS:       2174
cpu0_L2C PREFETCH  ACCESS:          0  HIT:          0  MISS:          0
cpu0_L2C WRITEBACK ACCESS:      22642  HIT:      22611  MISS:         31
LLC TOTAL     ACCESS:      20594  HIT:      12060  MISS:       8534
LLC LOAD      ACCESS:      10957  HIT:       3641  MISS:       7316
LLC RFO       ACCESS:       2174  HIT:       1166  MISS:       1008
LLC PREFETCH  ACCESS:          0  HIT:          0  MISS:          0
LLC WRITEBACK ACCESS:       7463  HIT:       7253  MISS:        210
Heartbeat CPU 0 instructions: 76000003 cycles: 43929414 heartbeat IPC: 0.92587 cumulative IPC: 0.831439 (Simulation time: 0 hr 41 min 1 sec) 

Region of Interest Statistics
cpu0_DTLB TOTAL     ACCESS:    5899734  HIT:    5889667  MISS:      10067
cpu0_DTLB LOAD      ACCESS:    3951409  HIT:    3942855  MISS:       8554
cpu0_DTLB RFO       ACCESS:    1948325  HIT:    1946812  MISS:       1513
cpu0_DTLB PREFETCH  ACCESS:          0  HIT:          0  MISS:          0
cpu0_DTLB WRITEBACK ACCESS:          0  HIT:          0  MISS:          0
cpu0_ITLB TOTAL     ACCESS:    2269390  HIT:    2269328  MISS:         62
cpu0_ITLB LOAD      ACCESS:    2269390  HIT:    2269328  MISS:         62
cpu0_ITLB RFO       ACCESS:          0  HIT:          0  MISS:          0
cpu0_ITLB PREFETCH  ACCESS:          0  HIT:          0  MISS:          0
cpu0_ITLB WRITEBACK ACCESS:          0  HIT:          0  MISS:          0
cpu0_L1I TOTAL     ACCESS:    3125752  HIT:    3038367  MISS:      87385
cpu0_L1I LOAD      ACCESS:    3125752  HIT:    3038367  MISS:      87385
cpu0_L1I RFO       ACCESS:          0  HIT:          0  MISS:          0
cpu0_L1I PREFETCH  ACCESS:          0  HIT:          0  MISS:          0
cpu0_L1I WRITEBACK ACCESS:          0  HIT:          0  MISS:          0
cpu0_STLB TOTAL     ACCESS:      10129  HIT:       7929  MISS:       2200
cpu0_STLB LOAD      ACCESS:       8616  HIT:       6493  MISS:       2123
cpu0_STLB RFO       ACCESS:       1513  HIT:       1436  MISS:         77
cpu0_STLB PREFETCH  ACCESS:          0  HIT:          0  MISS:          0
cpu0_STLB WRITEBACK ACCESS:          0  HIT:          0  MISS:          0
cpu0_L1D TOTAL     ACCESS:    7544067  HIT:    7506245  MISS:      37822
cpu0_L1D LOAD      ACCESS:    3937631  HIT:    3915313  MISS:      22318
cpu0_L1D RFO       ACCESS:    3604247  HIT:    3588860  MISS:      15387
cpu0_L1D PREFETCH  ACCESS:          0  HIT:          0  MISS:          0
cpu0_L1D WRITEBACK ACCESS:          0  HIT:          0  MISS:          0
cpu0_L2C TOTAL     ACCESS:     148231  HIT:     134930  MISS:      13301
cpu0_L2C LOAD      ACCESS:     109703  HIT:      98661  MISS:      11042
cpu0_L2C RFO       ACCESS:      15387  HIT:      13160  MISS:       2227
cpu0_L2C PREFETCH  ACCESS:          0  HIT:          0  MISS:          0
cpu0_L2C WRITEBACK ACCESS:      23024  HIT:      22992  MISS:         32
LLC TOTAL     ACCESS:      20803  HIT:      12135  MISS:       8668
LLC LOAD      ACCESS:      11042  HIT:       3649  MISS:       7393
LLC RFO       ACCESS:       2227  HIT:       1166  MISS:       1061
LLC PREFETCH  ACCESS:          0  HIT:          0  MISS:          0
LLC WRITEBACK ACCESS:       7534  HIT:       7320  MISS:        214
Heartbeat CPU 0 instructions: 78000001 cycles: 46281180 heartbeat IPC: 0.850424 cumulative IPC: 0.832767 (Simulation time: 0 hr 42 min 4 sec) 

Region of Interest Statistics
cpu0_DTLB TOTAL     ACCESS:    6363852  HIT:    6352874  MISS:      10978
cpu0_DTLB LOAD      ACCESS:    4256600  HIT:    4247276  MISS:       9324
cpu0_DTLB RFO       ACCESS:    2107252  HIT:    2105598  MISS:       1654
cpu0_DTLB PREFETCH  ACCESS:          0  HIT:          0  MISS:          0
cpu0_DTLB WRITEBACK ACCESS:          0  HIT:          0  MISS:          0
cpu0_ITLB TOTAL     ACCESS:    2439460  HIT:    2439398  MISS:         62
cpu0_ITLB LOAD      ACCESS:    2439460  HIT:    2439398  MISS:         62
cpu0_ITLB RFO       ACCESS:          0  HIT:          0  MISS:          0
cpu0_ITLB PREFETCH  ACCESS:          0  HIT:          0  MISS:          0
cpu0_ITLB WRITEBACK ACCESS:          0  HIT:          0  MISS:          0
cpu0_L1I TOTAL     ACCESS:    3385846  HIT:    3293029  MISS:      92817
cpu0_L1I LOAD      ACCESS:    3385846  HIT:    3293029  MISS:      92817
cpu0_L1I RFO       ACCESS:          0  HIT:          0  MISS:          0
cpu0_L1I PREFETCH  ACCESS:          0  HIT:          0  MISS:          0
cpu0_L1I WRITEBACK ACCESS:          0  HIT:          0  MISS:          0
cpu0_STLB TOTAL     ACCESS:      11040  HIT:       8742  MISS:       2298
cpu0_STLB LOAD      ACCESS:       9386  HIT:       7168  MISS:       2218
cpu0_STLB RFO       ACCESS:       1654  HIT:       1574  MISS:         80
cpu0_STLB PREFETCH  ACCESS:          0  HIT:          0  MISS:          0
cpu0_STLB WRITEBACK ACCESS:          0  HIT:          0  MISS:          0
cpu0_L1D TOTAL     ACCESS:    8145289  HIT:    8105321  MISS:      39968
cpu0_L1D LOAD      ACCESS:    4241376  HIT:    4217886  MISS:      23490
cpu0_L1D RFO       ACCESS:    3901626  HIT:    3885272  MISS:      16354
cpu0_L1D PREFETCH  ACCESS:          0  HIT:          0  MISS:          0
cpu0_L1D WRITEBACK ACCESS:          0  HIT:          0  MISS:          0
cpu0_L2C TOTAL     ACCESS:     157437  HIT:     143641  MISS:      13796
cpu0_L2C LOAD      ACCESS:     116307  HIT:     104801  MISS:      11506
cpu0_L2C RFO       ACCESS:      16354  HIT:      14096  MISS:       2258
cpu0_L2C PREFETCH  ACCESS:          0  HIT:          0  MISS:          0
cpu0_L2C WRITEBACK ACCESS:      24652  HIT:      24620  MISS:         32
LLC TOTAL     ACCESS:      21563  HIT:      12470  MISS:       9093
LLC LOAD      ACCESS:      11506  HIT:       3737  MISS:       7769
LLC RFO       ACCESS:       2258  HIT:       1171  MISS:       1087
LLC PREFETCH  ACCESS:          0  HIT:          0  MISS:          0
LLC WRITEBACK ACCESS:       7799  HIT:       7562  MISS:        237
Heartbeat CPU 0 instructions: 80000002 cycles: 48706201 heartbeat IPC: 0.824736 cumulative IPC: 0.832227 (Simulation time: 0 hr 43 min 5 sec) 

Region of Interest Statistics
cpu0_DTLB TOTAL     ACCESS:    6829266  HIT:    6817596  MISS:      11670
cpu0_DTLB LOAD      ACCESS:    4560834  HIT:    4550881  MISS:       9953
cpu0_DTLB RFO       ACCESS:    2268432  HIT:    2266715  MISS:       1717
cpu0_DTLB PREFETCH  ACCESS:          0  HIT:          0  MISS:          0
cpu0_DTLB WRITEBACK ACCESS:          0  HIT:          0  MISS:          0
cpu0_ITLB TOTAL     ACCESS:    2612544  HIT:    2612482  MISS:         62
cpu0_ITLB LOAD      ACCESS:    2612544  HIT:    2612482  MISS:         62
cpu0_ITLB RFO       ACCESS:          0  HIT:          0  MISS:          0
cpu0_ITLB PREFETCH  ACCESS:          0  HIT:          0  MISS:          0
cpu0_ITLB WRITEBACK ACCESS:          0  HIT:          0  MISS:          0
cpu0_L1I TOTAL     ACCESS:    3639364  HIT:    3540165  MISS:      99199
cpu0_L1I LOAD      ACCESS:    3639364  HIT:    3540165  MISS:      99199
cpu0_L1I RFO       ACCESS:          0  HIT:          0  MISS:          0
cpu0_L1I PREFETCH  ACCESS:          0  HIT:          0  MISS:          0
cpu0_L1I WRITEBACK ACCESS:          0  HIT:          0  MISS:          0
cpu0_STLB TOTAL     ACCESS:      11732  HIT:       9272  MISS:       2460
cpu0_STLB LOAD      ACCESS:      10015  HIT:       7640  MISS:       2375
cpu0_STLB RFO       ACCESS:       1717  HIT:       1632  MISS:         85
cpu0_STLB PREFETCH  ACCESS:          0  HIT:          0  MISS:          0
cpu0_STLB WRITEBACK ACCESS:          0  HIT:          0  MISS:          0
cpu0_L1D TOTAL     ACCESS:    8743857  HIT:    8701767  MISS:      42090
cpu0_L1D LOAD      ACCESS:    4543430  HIT:    4518801  MISS:      24629
cpu0_L1D RFO       ACCESS:    4197978  HIT:    4180647  MISS:      17331
cpu0_L1D PREFETCH  ACCESS:          0  HIT:          0  MISS:          0
cpu0_L1D WRITEBACK ACCESS:          0  HIT:          0  MISS:          0
cpu0_L2C TOTAL     ACCESS:     167614  HIT:     153054  MISS:      14560
cpu0_L2C LOAD      ACCESS:     123828  HIT:     111613  MISS:      12215
cpu0_L2C RFO       ACCESS:      17331  HIT:      15020  MISS:       2311
cpu0_L2C PREFETCH  ACCESS:          0  HIT:          0  MISS:          0
cpu0_L2C WRITEBACK ACCESS:      26325  HIT:      26291  MISS:         34
LLC TOTAL     ACCESS:      22744  HIT:      12931  MISS:       9813
LLC LOAD      ACCESS:      12215  HIT:       3813  MISS:       8402
LLC RFO       ACCESS:       2311  HIT:       1176  MISS:       1135
LLC PREFETCH  ACCESS:          0  HIT:          0  MISS:          0
LLC WRITEBACK ACCESS:       8218  HIT:       7942  MISS:        276
Heartbeat CPU 0 instructions: 82000003 cycles: 51148207 heartbeat IPC: 0.818999 cumulative IPC: 0.831387 (Simulation time: 0 hr 44 min 10 sec) 

Region of Interest Statistics
cpu0_DTLB TOTAL     ACCESS:    7286742  HIT:    7274340  MISS:      12402
cpu0_DTLB LOAD      ACCESS:    4862227  HIT:    4851626  MISS:      10601
cpu0_DTLB RFO       ACCESS:    2424515  HIT:    2422714  MISS:       1801
cpu0_DTLB PREFETCH  ACCESS:          0  HIT:          0  MISS:          0
cpu0_DTLB WRITEBACK ACCESS:          0  HIT:          0  MISS:          0
cpu0_ITLB TOTAL     ACCESS:    2785093  HIT:    2785031  MISS:         62
cpu0_ITLB LOAD      ACCESS:    2785093  HIT:    2785031  MISS:         62
cpu0_ITLB RFO       ACCESS:          0  HIT:          0  MISS:          0
cpu0_ITLB PREFETCH  ACCESS:          0  HIT:          0  MISS:          0
cpu0_ITLB WRITEBACK ACCESS:          0  HIT:          0  MISS:          0
cpu0_L1I TOTAL     ACCESS:    3893588  HIT:    3786863  MISS:     106725
cpu0_L1I LOAD      ACCESS:    3893588  HIT:    3786863  MISS:     106725
cpu0_L1I RFO       ACCESS:          0  HIT:          0  MISS:          0
cpu0_L1I PREFETCH  ACCESS:          0  HIT:          0  MISS:          0
cpu0_L1I WRITEBACK ACCESS:          0  HIT:          0  MISS:          0
cpu0_STLB TOTAL     ACCESS:      12464  HIT:       9825  MISS:       2639
cpu0_STLB LOAD      ACCESS:      10663  HIT:       8118  MISS:       2545
cpu0_STLB RFO       ACCESS:       1801  HIT:       1707  MISS:         94
cpu0_STLB PREFETCH  ACCESS:          0  HIT:          0  MISS:          0
cpu0_STLB WRITEBACK ACCESS:          0  HIT:          0  MISS:          0
cpu0_L1D TOTAL     ACCESS:    9335154  HIT:    9290669  MISS:      44485
cpu0_L1D LOAD      ACCESS:    4844350  HIT:    4818457  MISS:      25893
cpu0_L1D RFO       ACCESS:    4488176  HIT:    4469723  MISS:      18453
cpu0_L1D PREFETCH  ACCESS:          0  HIT:          0  MISS:          0
cpu0_L1D WRITEBACK ACCESS:          0  HIT:          0  MISS:          0
cpu0_L2C TOTAL     ACCESS:     179564  HIT:     164136  MISS:      15428
cpu0_L2C LOAD      ACCESS:     132618  HIT:     119629  MISS:      12989
cpu0_L2C RFO       ACCESS:      18453  HIT:      16055  MISS:       2398
cpu0_L2C PREFETCH  ACCESS:          0  HIT:          0  MISS:          0
cpu0_L2C WRITEBACK ACCESS:      28354  HIT:      28313  MISS:         41
LLC TOTAL     ACCESS:      24078  HIT:      13505  MISS:      10573
LLC LOAD      ACCESS:      12989  HIT:       3928  MISS:       9061
LLC RFO       ACCESS:       2398  HIT:       1219  MISS:       1179
LLC PREFETCH  ACCESS:          0  HIT:          0  MISS:          0
LLC WRITEBACK ACCESS:       8691  HIT:       8358  MISS:        333
Heartbeat CPU 0 instructions: 84000001 cycles: 53546994 heartbeat IPC: 0.833754 cumulative IPC: 0.831526 (Simulation time: 0 hr 45 min 16 sec) 

Region of Interest Statistics
cpu0_DTLB TOTAL     ACCESS:    7748897  HIT:    7735637  MISS:      13260
cpu0_DTLB LOAD      ACCESS:    5165085  HIT:    5153716  MISS:      11369
cpu0_DTLB RFO       ACCESS:    2583812  HIT:    2581921  MISS:       1891
cpu0_DTLB PREFETCH  ACCESS:          0  HIT:          0  MISS:          0
cpu0_DTLB WRITEBACK ACCESS:          0  HIT:          0  MISS:          0
cpu0_ITLB TOTAL     ACCESS:    2955425  HIT:    2955363  MISS:         62
cpu0_ITLB LOAD      ACCESS:    2955425  HIT:    2955363  MISS:         62
cpu0_ITLB RFO       ACCESS:          0  HIT:          0  MISS:          0
cpu0_ITLB PREFETCH  ACCESS:          0  HIT:          0  MISS:          0
cpu0_ITLB WRITEBACK ACCESS:          0  HIT:          0  MISS:          0
cpu0_L1I TOTAL     ACCESS:    4153831  HIT:    4040652  MISS:     113179
cpu0_L1I LOAD      ACCESS:    4153831  HIT:    4040652  MISS:     113179
cpu0_L1I RFO       ACCESS:          0  HIT:          0  MISS:          0
cpu0_L1I PREFETCH  ACCESS:          0  HIT:          0  MISS:          0
cpu0_L1I WRITEBACK ACCESS:          0  HIT:          0  MISS:          0
cpu0_STLB TOTAL     ACCESS:      13322  HIT:      10542  MISS:       2780
cpu0_STLB LOAD      ACCESS:      11431  HIT:       8748  MISS:       2683
cpu0_STLB RFO       ACCESS:       1891  HIT:       1794  MISS:         97
cpu0_STLB PREFETCH  ACCESS:          0  HIT:          0  MISS:          0
cpu0_STLB WRITEBACK ACCESS:          0  HIT:          0  MISS:          0
cpu0_L1D TOTAL     ACCESS:    9936108  HIT:    9889335  MISS:      46773
cpu0_L1D LOAD      ACCESS:    5147176  HIT:    5120012  MISS:      27164
cpu0_L1D RFO       ACCESS:    4786163  HIT:    4766698  MISS:      19465
cpu0_L1D PREFETCH  ACCESS:          0  HIT:          0  MISS:          0
cpu0_L1D WRITEBACK ACCESS:          0  HIT:          0  MISS:          0
cpu0_L2C TOTAL     ACCESS:     189750  HIT:     173623  MISS:      16127
cpu0_L2C LOAD      ACCESS:     140343  HIT:     126697  MISS:      13646
cpu0_L2C RFO       ACCESS:      19465  HIT:      17025  MISS:       2440
cpu0_L2C PREFETCH  ACCESS:          0  HIT:          0  MISS:          0
cpu0_L2C WRITEBACK ACCESS:      29798  HIT:      29757  MISS:         41
LLC TOTAL     ACCESS:      25203  HIT:      14140  MISS:      11063
LLC LOAD      ACCESS:      13646  HIT:       4170  MISS:       9476
LLC RFO       ACCESS:       2440  HIT:       1241  MISS:       1199
LLC PREFETCH  ACCESS:          0  HIT:          0  MISS:          0
LLC WRITEBACK ACCESS:       9117  HIT:       8729  MISS:        388
Heartbeat CPU 0 instructions: 86000000 cycles: 55903223 heartbeat IPC: 0.848814 cumulative IPC: 0.832468 (Simulation time: 0 hr 46 min 22 sec) 

Region of Interest Statistics
cpu0_DTLB TOTAL     ACCESS:    8218262  HIT:    8204154  MISS:      14108
cpu0_DTLB LOAD      ACCESS:    5470003  HIT:    5457876  MISS:      12127
cpu0_DTLB RFO       ACCESS:    2748259  HIT:    2746278  MISS:       1981
cpu0_DTLB PREFETCH  ACCESS:          0  HIT:          0  MISS:          0
cpu0_DTLB WRITEBACK ACCESS:          0  HIT:          0  MISS:          0
cpu0_ITLB TOTAL     ACCESS:    3124680  HIT:    3124618  MISS:         62
cpu0_ITLB LOAD      ACCESS:    3124680  HIT:    3124618  MISS:         62
cpu0_ITLB RFO       ACCESS:          0  HIT:          0  MISS:          0
cpu0_ITLB PREFETCH  ACCESS:          0  HIT:          0  MISS:          0
cpu0_ITLB WRITEBACK ACCESS:          0  HIT:          0  MISS:          0
cpu0_L1I TOTAL     ACCESS:    4405219  HIT:    4286004  MISS:     119215
cpu0_L1I LOAD      ACCESS:    4405219  HIT:    4286004  MISS:     119215
cpu0_L1I RFO       ACCESS:          0  HIT:          0  MISS:          0
cpu0_L1I PREFETCH  ACCESS:          0  HIT:          0  MISS:          0
cpu0_L1I WRITEBACK ACCESS:          0  HIT:          0  MISS:          0
cpu0_STLB TOTAL     ACCESS:      14170  HIT:      11243  MISS:       2927
cpu0_STLB LOAD      ACCESS:      12189  HIT:       9363  MISS:       2826
cpu0_STLB RFO       ACCESS:       1981  HIT:       1880  MISS:        101
cpu0_STLB PREFETCH  ACCESS:          0  HIT:          0  MISS:          0
cpu0_STLB WRITEBACK ACCESS:          0  HIT:          0  MISS:          0
cpu0_L1D TOTAL     ACCESS:   10538836  HIT:   10488733  MISS:      50103
cpu0_L1D LOAD      ACCESS:    5449604  HIT:    5420813  MISS:      28791
cpu0_L1D RFO       ACCESS:    5086316  HIT:    5065163  MISS:      21153
cpu0_L1D PREFETCH  ACCESS:          0  HIT:          0  MISS:          0
cpu0_L1D WRITEBACK ACCESS:          0  HIT:          0  MISS:          0
cpu0_L2C TOTAL     ACCESS:     201645  HIT:     184684  MISS:      16961
cpu0_L2C LOAD      ACCESS:     148006  HIT:     133592  MISS:      14414
cpu0_L2C RFO       ACCESS:      21153  HIT:      18654  MISS:       2499
cpu0_L2C PREFETCH  ACCESS:          0  HIT:          0  MISS:          0
cpu0_L2C WRITEBACK ACCESS:      32327  HIT:      32279  MISS:         48
LLC TOTAL     ACCESS:      26541  HIT:      14941  MISS:      11600
LLC LOAD      ACCESS:      14414  HIT:       4502  MISS:       9912
LLC RFO       ACCESS:       2499  HIT:       1272  MISS:       1227
LLC PREFETCH  ACCESS:          0  HIT:          0  MISS:          0
LLC WRITEBACK ACCESS:       9628  HIT:       9167  MISS:        461
Heartbeat CPU 0 instructions: 88000001 cycles: 58328890 heartbeat IPC: 0.824516 cumulative IPC: 0.832046 (Simulation time: 0 hr 47 min 24 sec) 

Region of Interest Statistics
cpu0_DTLB TOTAL     ACCESS:    8680504  HIT:    8665723  MISS:      14781
cpu0_DTLB LOAD      ACCESS:    5773523  HIT:    5760821  MISS:      12702
cpu0_DTLB RFO       ACCESS:    2906981  HIT:    2904902  MISS:       2079
cpu0_DTLB PREFETCH  ACCESS:          0  HIT:          0  MISS:          0
cpu0_DTLB WRITEBACK ACCESS:          0  HIT:          0  MISS:          0
cpu0_ITLB TOTAL     ACCESS:    3298695  HIT:    3298633  MISS:         62
cpu0_ITLB LOAD      ACCESS:    3298695  HIT:    3298633  MISS:         62
cpu0_ITLB RFO       ACCESS:          0  HIT:          0  MISS:          0
cpu0_ITLB PREFETCH  ACCESS:          0  HIT:          0  MISS:          0
cpu0_ITLB WRITEBACK ACCESS:          0  HIT:          0  MISS:          0
cpu0_L1I TOTAL     ACCESS:    4663366  HIT:    4536882  MISS:     126484
cpu0_L1I LOAD      ACCESS:    4663366  HIT:    4536882  MISS:     126484
cpu0_L1I RFO       ACCESS:          0  HIT:          0  MISS:          0
cpu0_L1I PREFETCH  ACCESS:          0  HIT:          0  MISS:          0
cpu0_L1I WRITEBACK ACCESS:          0  HIT:          0  MISS:          0
cpu0_STLB TOTAL     ACCESS:      14843  HIT:      11770  MISS:       3073
cpu0_STLB LOAD      ACCESS:      12764  HIT:       9795  MISS:       2969
cpu0_STLB RFO       ACCESS:       2079  HIT:       1975  MISS:        104
cpu0_STLB PREFETCH  ACCESS:          0  HIT:          0  MISS:          0
cpu0_STLB WRITEBACK ACCESS:          0  HIT:          0  MISS:          0
cpu0_L1D TOTAL     ACCESS:   11136126  HIT:   11083944  MISS:      52182
cpu0_L1D LOAD      ACCESS:    5753079  HIT:    5723371  MISS:      29708
cpu0_L1D RFO       ACCESS:    5379985  HIT:    5357673  MISS:      22312
cpu0_L1D PREFETCH  ACCESS:          0  HIT:          0  MISS:          0
cpu0_L1D WRITEBACK ACCESS:          0  HIT:          0  MISS:          0
cpu0_L2C TOTAL     ACCESS:     212675  HIT:     194965  MISS:      17710
cpu0_L2C LOAD      ACCESS:     156192  HIT:     141087  MISS:      15105
cpu0_L2C RFO       ACCESS:      22312  HIT:      19756  MISS:       2556
cpu0_L2C PREFETCH  ACCESS:          0  HIT:          0  MISS:          0
cpu0_L2C WRITEBACK ACCESS:      34009  HIT:      33960  MISS:         49
LLC TOTAL     ACCESS:      27753  HIT:      15452  MISS:      12301
LLC LOAD      ACCESS:      15105  HIT:       4580  MISS:      10525
LLC RFO       ACCESS:       2556  HIT:       1286  MISS:       1270
LLC PREFETCH  ACCESS:          0  HIT:          0  MISS:          0
LLC WRITEBACK ACCESS:      10092  HIT:       9586  MISS:        506
Heartbeat CPU 0 instructions: 90000003 cycles: 60717768 heartbeat IPC: 0.837214 cumulative IPC: 0.832303 (Simulation time: 0 hr 48 min 29 sec) 

Region of Interest Statistics
cpu0_DTLB TOTAL     ACCESS:    9134983  HIT:    9119526  MISS:      15457
cpu0_DTLB LOAD      ACCESS:    6073815  HIT:    6060514  MISS:      13301
cpu0_DTLB RFO       ACCESS:    3061168  HIT:    3059012  MISS:       2156
cpu0_DTLB PREFETCH  ACCESS:          0  HIT:          0  MISS:          0
cpu0_DTLB WRITEBACK ACCESS:          0  HIT:          0  MISS:          0
cpu0_ITLB TOTAL     ACCESS:    3471631  HIT:    3471569  MISS:         62
cpu0_ITLB LOAD      ACCESS:    3471631  HIT:    3471569  MISS:         62
cpu0_ITLB RFO       ACCESS:          0  HIT:          0  MISS:          0
cpu0_ITLB PREFETCH  ACCESS:          0  HIT:          0  MISS:          0
cpu0_ITLB WRITEBACK ACCESS:          0  HIT:          0  MISS:          0
cpu0_L1I TOTAL     ACCESS:    4909881  HIT:    4775389  MISS:     134492
cpu0_L1I LOAD      ACCESS:    4909881  HIT:    4775389  MISS:     134492
cpu0_L1I RFO       ACCESS:          0  HIT:          0  MISS:          0
cpu0_L1I PREFETCH  ACCESS:          0  HIT:          0  MISS:          0
cpu0_L1I WRITEBACK ACCESS:          0  HIT:          0  MISS:          0
cpu0_STLB TOTAL     ACCESS:      15519  HIT:      12352  MISS:       3167
cpu0_STLB LOAD      ACCESS:      13363  HIT:      10303  MISS:       3060
cpu0_STLB RFO       ACCESS:       2156  HIT:       2049  MISS:        107
cpu0_STLB PREFETCH  ACCESS:          0  HIT:          0  MISS:          0
cpu0_STLB WRITEBACK ACCESS:          0  HIT:          0  MISS:          0
cpu0_L1D TOTAL     ACCESS:   11718126  HIT:   11663282  MISS:      54844
cpu0_L1D LOAD      ACCESS:    6051041  HIT:    6020148  MISS:      30893
cpu0_L1D RFO       ACCESS:    5663929  HIT:    5640151  MISS:      23778
cpu0_L1D PREFETCH  ACCESS:          0  HIT:          0  MISS:          0
cpu0_L1D WRITEBACK ACCESS:          0  HIT:          0  MISS:          0
cpu0_L2C TOTAL     ACCESS:     225378  HIT:     207092  MISS:      18286
cpu0_L2C LOAD      ACCESS:     165385  HIT:     149795  MISS:      15590
cpu0_L2C RFO       ACCESS:      23778  HIT:      21135  MISS:       2643
cpu0_L2C PREFETCH  ACCESS:          0  HIT:          0  MISS:          0
cpu0_L2C WRITEBACK ACCESS:      36042  HIT:      35989  MISS:         53
LLC TOTAL     ACCESS:      28707  HIT:      15944  MISS:      12763
LLC LOAD      ACCESS:      15590  HIT:       4675  MISS:      10915
LLC RFO       ACCESS:       2643  HIT:       1345  MISS:       1298
LLC PREFETCH  ACCESS:          0  HIT:          0  MISS:          0
LLC WRITEBACK ACCESS:      10474  HIT:       9924  MISS:        550
Heartbeat CPU 0 instructions: 92000003 cycles: 63080285 heartbeat IPC: 0.846555 cumulative IPC: 0.83297 (Simulation time: 0 hr 49 min 33 sec) 

Region of Interest Statistics
cpu0_DTLB TOTAL     ACCESS:    9591498  HIT:    9575552  MISS:      15946
cpu0_DTLB LOAD      ACCESS:    6376228  HIT:    6362498  MISS:      13730
cpu0_DTLB RFO       ACCESS:    3215270  HIT:    3213054  MISS:       2216
cpu0_DTLB PREFETCH  ACCESS:          0  HIT:          0  MISS:          0
cpu0_DTLB WRITEBACK ACCESS:          0  HIT:          0  MISS:          0
cpu0_ITLB TOTAL     ACCESS:    3645541  HIT:    3645479  MISS:         62
cpu0_ITLB LOAD      ACCESS:    3645541  HIT:    3645479  MISS:         62
cpu0_ITLB RFO       ACCESS:          0  HIT:          0  MISS:          0
cpu0_ITLB PREFETCH  ACCESS:          0  HIT:          0  MISS:          0
cpu0_ITLB WRITEBACK ACCESS:          0  HIT:          0  MISS:          0
cpu0_L1I TOTAL     ACCESS:    5165761  HIT:    5024160  MISS:     141601
cpu0_L1I LOAD      ACCESS:    5165761  HIT:    5024160  MISS:     141601
cpu0_L1I RFO       ACCESS:          0  HIT:          0  MISS:          0
cpu0_L1I PREFETCH  ACCESS:          0  HIT:          0  MISS:          0
cpu0_L1I WRITEBACK ACCESS:          0  HIT:          0  MISS:          0
cpu0_STLB TOTAL     ACCESS:      16008  HIT:      12769  MISS:       3239
cpu0_STLB LOAD      ACCESS:      13792  HIT:      10667  MISS:       3125
cpu0_STLB RFO       ACCESS:       2216  HIT:       2102  MISS:        114
cpu0_STLB PREFETCH  ACCESS:          0  HIT:          0  MISS:          0
cpu0_STLB WRITEBACK ACCESS:          0  HIT:          0  MISS:          0
cpu0_L1D TOTAL     ACCESS:   12307962  HIT:   12250882  MISS:      57080
cpu0_L1D LOAD      ACCESS:    6353311  HIT:    6321553  MISS:      31758
cpu0_L1D RFO       ACCESS:    5951423  HIT:    5926285  MISS:      25138
cpu0_L1D PREFETCH  ACCESS:          0  HIT:          0  MISS:          0
cpu0_L1D WRITEBACK ACCESS:          0  HIT:          0  MISS:          0
cpu0_L2C TOTAL     ACCESS:     236606  HIT:     217761  MISS:      18845
cpu0_L2C LOAD      ACCESS:     173359  HIT:     157439  MISS:      15920
cpu0_L2C RFO       ACCESS:      25138  HIT:      22268  MISS:       2870
cpu0_L2C PREFETCH  ACCESS:          0  HIT:          0  MISS:          0
cpu0_L2C WRITEBACK ACCESS:      37925  HIT:      37870  MISS:         55
LLC TOTAL     ACCESS:      29634  HIT:      16429  MISS:      13205
LLC LOAD      ACCESS:      15920  HIT:       4722  MISS:      11198
LLC RFO       ACCESS:       2870  HIT:       1442  MISS:       1428
LLC PREFETCH  ACCESS:          0  HIT:          0  MISS:          0
LLC WRITEBACK ACCESS:      10844  HIT:      10265  MISS:        579
Heartbeat CPU 0 instructions: 94000000 cycles: 65541182 heartbeat IPC: 0.812711 cumulative IPC: 0.832028 (Simulation time: 0 hr 50 min 37 sec) 

Region of Interest Statistics
cpu0_DTLB TOTAL     ACCESS:   10054807  HIT:   10038174  MISS:      16633
cpu0_DTLB LOAD      ACCESS:    6682094  HIT:    6667746  MISS:      14348
cpu0_DTLB RFO       ACCESS:    3372713  HIT:    3370428  MISS:       2285
cpu0_DTLB PREFETCH  ACCESS:          0  HIT:          0  MISS:          0
cpu0_DTLB WRITEBACK ACCESS:          0  HIT:          0  MISS:          0
cpu0_ITLB TOTAL     ACCESS:    3823778  HIT:    3823716  MISS:         62
cpu0_ITLB LOAD      ACCESS:    3823778  HIT:    3823716  MISS:         62
cpu0_ITLB RFO       ACCESS:          0  HIT:          0  MISS:          0
cpu0_ITLB PREFETCH  ACCESS:          0  HIT:          0  MISS:          0
cpu0_ITLB WRITEBACK ACCESS:          0  HIT:          0  MISS:          0
cpu0_L1I TOTAL     ACCESS:    5427067  HIT:    5277516  MISS:     149551
cpu0_L1I LOAD      ACCESS:    5427067  HIT:    5277516  MISS:     149551
cpu0_L1I RFO       ACCESS:          0  HIT:          0  MISS:          0
cpu0_L1I PREFETCH  ACCESS:          0  HIT:          0  MISS:          0
cpu0_L1I WRITEBACK ACCESS:          0  HIT:          0  MISS:          0
cpu0_STLB TOTAL     ACCESS:      16695  HIT:      13338  MISS:       3357
cpu0_STLB LOAD      ACCESS:      14410  HIT:      11169  MISS:       3241
cpu0_STLB RFO       ACCESS:       2285  HIT:       2169  MISS:        116
cpu0_STLB PREFETCH  ACCESS:          0  HIT:          0  MISS:          0
cpu0_STLB WRITEBACK ACCESS:          0  HIT:          0  MISS:          0
cpu0_L1D TOTAL     ACCESS:   12905444  HIT:   12846714  MISS:      58730
cpu0_L1D LOAD      ACCESS:    6658475  HIT:    6625852  MISS:      32623
cpu0_L1D RFO       ACCESS:    6243623  HIT:    6217707  MISS:      25916
cpu0_L1D PREFETCH  ACCESS:          0  HIT:          0  MISS:          0
cpu0_L1D WRITEBACK ACCESS:          0  HIT:          0  MISS:          0
cpu0_L2C TOTAL     ACCESS:     247473  HIT:     228096  MISS:      19377
cpu0_L2C LOAD      ACCESS:     182174  HIT:     165750  MISS:      16424
cpu0_L2C RFO       ACCESS:      25916  HIT:      23018  MISS:       2898
cpu0_L2C PREFETCH  ACCESS:          0  HIT:          0  MISS:          0
cpu0_L2C WRITEBACK ACCESS:      39192  HIT:      39137  MISS:         55
LLC TOTAL     ACCESS:      30521  HIT:      16821  MISS:      13700
LLC LOAD      ACCESS:      16424  HIT:       4801  MISS:      11623
LLC RFO       ACCESS:       2898  HIT:       1442  MISS:       1456
LLC PREFETCH  ACCESS:          0  HIT:          0  MISS:          0
LLC WRITEBACK ACCESS:      11199  HIT:      10578  MISS:        621
Heartbeat CPU 0 instructions: 96000000 cycles: 68029844 heartbeat IPC: 0.803645 cumulative IPC: 0.830752 (Simulation time: 0 hr 51 min 44 sec) 

Region of Interest Statistics
cpu0_DTLB TOTAL     ACCESS:   10505722  HIT:   10488435  MISS:      17287
cpu0_DTLB LOAD      ACCESS:    6981350  HIT:    6966428  MISS:      14922
cpu0_DTLB RFO       ACCESS:    3524372  HIT:    3522007  MISS:       2365
cpu0_DTLB PREFETCH  ACCESS:          0  HIT:          0  MISS:          0
cpu0_DTLB WRITEBACK ACCESS:          0  HIT:          0  MISS:          0
cpu0_ITLB TOTAL     ACCESS:    4000090  HIT:    4000028  MISS:         62
cpu0_ITLB LOAD      ACCESS:    4000090  HIT:    4000028  MISS:         62
cpu0_ITLB RFO       ACCESS:          0  HIT:          0  MISS:          0
cpu0_ITLB PREFETCH  ACCESS:          0  HIT:          0  MISS:          0
cpu0_ITLB WRITEBACK ACCESS:          0  HIT:          0  MISS:          0
cpu0_L1I TOTAL     ACCESS:    5689185  HIT:    5531772  MISS:     157413
cpu0_L1I LOAD      ACCESS:    5689185  HIT:    5531772  MISS:     157413
cpu0_L1I RFO       ACCESS:          0  HIT:          0  MISS:          0
cpu0_L1I PREFETCH  ACCESS:          0  HIT:          0  MISS:          0
cpu0_L1I WRITEBACK ACCESS:          0  HIT:          0  MISS:          0
cpu0_STLB TOTAL     ACCESS:      17349  HIT:      13858  MISS:       3491
cpu0_STLB LOAD      ACCESS:      14984  HIT:      11612  MISS:       3372
cpu0_STLB RFO       ACCESS:       2365  HIT:       2246  MISS:        119
cpu0_STLB PREFETCH  ACCESS:          0  HIT:          0  MISS:          0
cpu0_STLB WRITEBACK ACCESS:          0  HIT:          0  MISS:          0
cpu0_L1D TOTAL     ACCESS:   13487888  HIT:   13427533  MISS:      60355
cpu0_L1D LOAD      ACCESS:    6956357  HIT:    6922843  MISS:      33514
cpu0_L1D RFO       ACCESS:    6528051  HIT:    6501407  MISS:      26644
cpu0_L1D PREFETCH  ACCESS:          0  HIT:          0  MISS:          0
cpu0_L1D WRITEBACK ACCESS:          0  HIT:          0  MISS:          0
cpu0_L2C TOTAL     ACCESS:     258346  HIT:     238349  MISS:      19997
cpu0_L2C LOAD      ACCESS:     190927  HIT:     173920  MISS:      17007
cpu0_L2C RFO       ACCESS:      26644  HIT:      23710  MISS:       2934
cpu0_L2C PREFETCH  ACCESS:          0  HIT:          0  MISS:          0
cpu0_L2C WRITEBACK ACCESS:      40578  HIT:      40522  MISS:         56
LLC TOTAL     ACCESS:      31528  HIT:      17218  MISS:      14310
LLC LOAD      ACCESS:      17007  HIT:       4849  MISS:      12158
LLC RFO       ACCESS:       2934  HIT:       1442  MISS:       1492
LLC PREFETCH  ACCESS:          0  HIT:          0  MISS:          0
LLC WRITEBACK ACCESS:      11587  HIT:      10927  MISS:        660
Heartbeat CPU 0 instructions: 98000004 cycles: 70457293 heartbeat IPC: 0.823912 cumulative IPC: 0.830465 (Simulation time: 0 hr 52 min 50 sec) 

Region of Interest Statistics
cpu0_DTLB TOTAL     ACCESS:   10961044  HIT:   10942869  MISS:      18175
cpu0_DTLB LOAD      ACCESS:    7280090  HIT:    7264430  MISS:      15660
cpu0_DTLB RFO       ACCESS:    3680954  HIT:    3678439  MISS:       2515
cpu0_DTLB PREFETCH  ACCESS:          0  HIT:          0  MISS:          0
cpu0_DTLB WRITEBACK ACCESS:          0  HIT:          0  MISS:          0
cpu0_ITLB TOTAL     ACCESS:    4171811  HIT:    4171749  MISS:         62
cpu0_ITLB LOAD      ACCESS:    4171811  HIT:    4171749  MISS:         62
cpu0_ITLB RFO       ACCESS:          0  HIT:          0  MISS:          0
cpu0_ITLB PREFETCH  ACCESS:          0  HIT:          0  MISS:          0
cpu0_ITLB WRITEBACK ACCESS:          0  HIT:          0  MISS:          0
cpu0_L1I TOTAL     ACCESS:    5940358  HIT:    5774976  MISS:     165382
cpu0_L1I LOAD      ACCESS:    5940358  HIT:    5774976  MISS:     165382
cpu0_L1I RFO       ACCESS:          0  HIT:          0  MISS:          0
cpu0_L1I PREFETCH  ACCESS:          0  HIT:          0  MISS:          0
cpu0_L1I WRITEBACK ACCESS:          0  HIT:          0  MISS:          0
cpu0_STLB TOTAL     ACCESS:      18237  HIT:      14584  MISS:       3653
cpu0_STLB LOAD      ACCESS:      15722  HIT:      12195  MISS:       3527
cpu0_STLB RFO       ACCESS:       2515  HIT:       2389  MISS:        126
cpu0_STLB PREFETCH  ACCESS:          0  HIT:          0  MISS:          0
cpu0_STLB WRITEBACK ACCESS:          0  HIT:          0  MISS:          0
cpu0_L1D TOTAL     ACCESS:   14072882  HIT:   14009532  MISS:      63350
cpu0_L1D LOAD      ACCESS:    7254129  HIT:    7219290  MISS:      34839
cpu0_L1D RFO       ACCESS:    6815111  HIT:    6786808  MISS:      28303
cpu0_L1D PREFETCH  ACCESS:          0  HIT:          0  MISS:          0
cpu0_L1D WRITEBACK ACCESS:          0  HIT:          0  MISS:          0
cpu0_L2C TOTAL     ACCESS:     271581  HIT:     250619  MISS:      20962
cpu0_L2C LOAD      ACCESS:     200221  HIT:     182466  MISS:      17755
cpu0_L2C RFO       ACCESS:      28303  HIT:      25158  MISS:       3145
cpu0_L2C PREFETCH  ACCESS:          0  HIT:          0  MISS:          0
cpu0_L2C WRITEBACK ACCESS:      42849  HIT:      42787  MISS:         62
LLC TOTAL     ACCESS:      33099  HIT:      18144  MISS:      14955
LLC LOAD      ACCESS:      17755  HIT:       5040  MISS:      12715
LLC RFO       ACCESS:       3145  HIT:       1615  MISS:       1530
LLC PREFETCH  ACCESS:          0  HIT:          0  MISS:          0
LLC WRITEBACK ACCESS:      12199  HIT:      11489  MISS:        710
Heartbeat CPU 0 instructions: 100000004 cycles: 72925150 heartbeat IPC: 0.81042 cumulative IPC: 0.829644 (Simulation time: 0 hr 53 min 54 sec) 

Region of Interest Statistics
cpu0_DTLB TOTAL     ACCESS:   11419065  HIT:   11400070  MISS:      18995
cpu0_DTLB LOAD      ACCESS:    7583103  HIT:    7566762  MISS:      16341
cpu0_DTLB RFO       ACCESS:    3835962  HIT:    3833308  MISS:       2654
cpu0_DTLB PREFETCH  ACCESS:          0  HIT:          0  MISS:          0
cpu0_DTLB WRITEBACK ACCESS:          0  HIT:          0  MISS:          0
cpu0_ITLB TOTAL     ACCESS:    4347786  HIT:    4347724  MISS:         62
cpu0_ITLB LOAD      ACCESS:    4347786  HIT:    4347724  MISS:         62
cpu0_ITLB RFO       ACCESS:          0  HIT:          0  MISS:          0
cpu0_ITLB PREFETCH  ACCESS:          0  HIT:          0  MISS:          0
cpu0_ITLB WRITEBACK ACCESS:          0  HIT:          0  MISS:          0
cpu0_L1I TOTAL     ACCESS:    6193665  HIT:    6020455  MISS:     173210
cpu0_L1I LOAD      ACCESS:    6193665  HIT:    6020455  MISS:     173210
cpu0_L1I RFO       ACCESS:          0  HIT:          0  MISS:          0
cpu0_L1I PREFETCH  ACCESS:          0  HIT:          0  MISS:          0
cpu0_L1I WRITEBACK ACCESS:          0  HIT:          0  MISS:          0
cpu0_STLB TOTAL     ACCESS:      19057  HIT:      15222  MISS:       3835
cpu0_STLB LOAD      ACCESS:      16403  HIT:      12701  MISS:       3702
cpu0_STLB RFO       ACCESS:       2654  HIT:       2521  MISS:        133
cpu0_STLB PREFETCH  ACCESS:          0  HIT:          0  MISS:          0
cpu0_STLB WRITEBACK ACCESS:          0  HIT:          0  MISS:          0
cpu0_L1D TOTAL     ACCESS:   14662235  HIT:   14596640  MISS:      65595
cpu0_L1D LOAD      ACCESS:    7555735  HIT:    7519666  MISS:      36069
cpu0_L1D RFO       ACCESS:    7102677  HIT:    7073369  MISS:      29308
cpu0_L1D PREFETCH  ACCESS:          0  HIT:          0  MISS:          0
cpu0_L1D WRITEBACK ACCESS:          0  HIT:          0  MISS:          0
cpu0_L2C TOTAL     ACCESS:     283545  HIT:     261744  MISS:      21801
cpu0_L2C LOAD      ACCESS:     209279  HIT:     190776  MISS:      18503
cpu0_L2C RFO       ACCESS:      29308  HIT:      26080  MISS:       3228
cpu0_L2C PREFETCH  ACCESS:          0  HIT:          0  MISS:          0
cpu0_L2C WRITEBACK ACCESS:      44740  HIT:      44671  MISS:         69
LLC TOTAL     ACCESS:      34480  HIT:      18798  MISS:      15682
LLC LOAD      ACCESS:      18503  HIT:       5165  MISS:      13338
LLC RFO       ACCESS:       3228  HIT:       1658  MISS:       1570
LLC PREFETCH  ACCESS:          0  HIT:          0  MISS:          0
LLC WRITEBACK ACCESS:      12748  HIT:      11974  MISS:        774
Heartbeat CPU 0 instructions: 102000000 cycles: 75277094 heartbeat IPC: 0.850359 cumulative IPC: 0.830422 (Simulation time: 0 hr 54 min 58 sec) 

Region of Interest Statistics
cpu0_DTLB TOTAL     ACCESS:   11872530  HIT:   11853002  MISS:      19528
cpu0_DTLB LOAD      ACCESS:    7881742  HIT:    7864929  MISS:      16813
cpu0_DTLB RFO       ACCESS:    3990788  HIT:    3988073  MISS:       2715
cpu0_DTLB PREFETCH  ACCESS:          0  HIT:          0  MISS:          0
cpu0_DTLB WRITEBACK ACCESS:          0  HIT:          0  MISS:          0
cpu0_ITLB TOTAL     ACCESS:    4520173  HIT:    4520111  MISS:         62
cpu0_ITLB LOAD      ACCESS:    4520173  HIT:    4520111  MISS:         62
cpu0_ITLB RFO       ACCESS:          0  HIT:          0  MISS:          0
cpu0_ITLB PREFETCH  ACCESS:          0  HIT:          0  MISS:          0
cpu0_ITLB WRITEBACK ACCESS:          0  HIT:          0  MISS:          0
cpu0_L1I TOTAL     ACCESS:    6448278  HIT:    6267365  MISS:     180913
cpu0_L1I LOAD      ACCESS:    6448278  HIT:    6267365  MISS:     180913
cpu0_L1I RFO       ACCESS:          0  HIT:          0  MISS:          0
cpu0_L1I PREFETCH  ACCESS:          0  HIT:          0  MISS:          0
cpu0_L1I WRITEBACK ACCESS:          0  HIT:          0  MISS:          0
cpu0_STLB TOTAL     ACCESS:      19590  HIT:      15681  MISS:       3909
cpu0_STLB LOAD      ACCESS:      16875  HIT:      13102  MISS:       3773
cpu0_STLB RFO       ACCESS:       2715  HIT:       2579  MISS:        136
cpu0_STLB PREFETCH  ACCESS:          0  HIT:          0  MISS:          0
cpu0_STLB WRITEBACK ACCESS:          0  HIT:          0  MISS:          0
cpu0_L1D TOTAL     ACCESS:   15248773  HIT:   15180772  MISS:      68001
cpu0_L1D LOAD      ACCESS:    7853715  HIT:    7816798  MISS:      36917
cpu0_L1D RFO       ACCESS:    7391161  HIT:    7360308  MISS:      30853
cpu0_L1D PREFETCH  ACCESS:          0  HIT:          0  MISS:          0
cpu0_L1D WRITEBACK ACCESS:          0  HIT:          0  MISS:          0
cpu0_L2C TOTAL     ACCESS:     295427  HIT:     273165  MISS:      22262
cpu0_L2C LOAD      ACCESS:     217830  HIT:     198970  MISS:      18860
cpu0_L2C RFO       ACCESS:      30853  HIT:      27523  MISS:       3330
cpu0_L2C PREFETCH  ACCESS:          0  HIT:          0  MISS:          0
cpu0_L2C WRITEBACK ACCESS:      46513  HIT:      46442  MISS:         71
LLC TOTAL     ACCESS:      35250  HIT:      19208  MISS:      16042
LLC LOAD      ACCESS:      18860  HIT:       5206  MISS:      13654
LLC RFO       ACCESS:       3330  HIT:       1742  MISS:       1588
LLC PREFETCH  ACCESS:          0  HIT:          0  MISS:          0
LLC WRITEBACK ACCESS:      13059  HIT:      12259  MISS:        800
Heartbeat CPU 0 instructions: 104000001 cycles: 77704070 heartbeat IPC: 0.824071 cumulative IPC: 0.830185 (Simulation time: 0 hr 56 min 5 sec) 

Region of Interest Statistics
cpu0_DTLB TOTAL     ACCESS:   12339691  HIT:   12319622  MISS:      20069
cpu0_DTLB LOAD      ACCESS:    8189820  HIT:    8172512  MISS:      17308
cpu0_DTLB RFO       ACCESS:    4149871  HIT:    4147110  MISS:       2761
cpu0_DTLB PREFETCH  ACCESS:          0  HIT:          0  MISS:          0
cpu0_DTLB WRITEBACK ACCESS:          0  HIT:          0  MISS:          0
cpu0_ITLB TOTAL     ACCESS:    4698820  HIT:    4698758  MISS:         62
cpu0_ITLB LOAD      ACCESS:    4698820  HIT:    4698758  MISS:         62
cpu0_ITLB RFO       ACCESS:          0  HIT:          0  MISS:          0
cpu0_ITLB PREFETCH  ACCESS:          0  HIT:          0  MISS:          0
cpu0_ITLB WRITEBACK ACCESS:          0  HIT:          0  MISS:          0
cpu0_L1I TOTAL     ACCESS:    6708255  HIT:    6519758  MISS:     188497
cpu0_L1I LOAD      ACCESS:    6708255  HIT:    6519758  MISS:     188497
cpu0_L1I RFO       ACCESS:          0  HIT:          0  MISS:          0
cpu0_L1I PREFETCH  ACCESS:          0  HIT:          0  MISS:          0
cpu0_L1I WRITEBACK ACCESS:          0  HIT:          0  MISS:          0
cpu0_STLB TOTAL     ACCESS:      20131  HIT:      16128  MISS:       4003
cpu0_STLB LOAD      ACCESS:      17370  HIT:      13505  MISS:       3865
cpu0_STLB RFO       ACCESS:       2761  HIT:       2623  MISS:        138
cpu0_STLB PREFETCH  ACCESS:          0  HIT:          0  MISS:          0
cpu0_STLB WRITEBACK ACCESS:          0  HIT:          0  MISS:          0
cpu0_L1D TOTAL     ACCESS:   15850310  HIT:   15780510  MISS:      69800
cpu0_L1D LOAD      ACCESS:    8160882  HIT:    8123083  MISS:      37799
cpu0_L1D RFO       ACCESS:    7685437  HIT:    7653675  MISS:      31762
cpu0_L1D PREFETCH  ACCESS:          0  HIT:          0  MISS:          0
cpu0_L1D WRITEBACK ACCESS:          0  HIT:          0  MISS:          0
cpu0_L2C TOTAL     ACCESS:     306274  HIT:     283591  MISS:      22683
cpu0_L2C LOAD      ACCESS:     226296  HIT:     207045  MISS:      19251
cpu0_L2C RFO       ACCESS:      31762  HIT:      28403  MISS:       3359
cpu0_L2C PREFETCH  ACCESS:          0  HIT:          0  MISS:          0
cpu0_L2C WRITEBACK ACCESS:      47977  HIT:      47905  MISS:         72
LLC TOTAL     ACCESS:      35958  HIT:      19530  MISS:      16428
LLC LOAD      ACCESS:      19251  HIT:       5257  MISS:      13994
LLC RFO       ACCESS:       3359  HIT:       1751  MISS:       1608
LLC PREFETCH  ACCESS:          0  HIT:          0  MISS:          0
LLC WRITEBACK ACCESS:      13347  HIT:      12521  MISS:        826
Heartbeat CPU 0 instructions: 106000000 cycles: 80236126 heartbeat IPC: 0.789872 cumulative IPC: 0.828674 (Simulation time: 0 hr 57 min 11 sec) 

Region of Interest Statistics
cpu0_DTLB TOTAL     ACCESS:   12792268  HIT:   12771597  MISS:      20671
cpu0_DTLB LOAD      ACCESS:    8490367  HIT:    8472511  MISS:      17856
cpu0_DTLB RFO       ACCESS:    4301901  HIT:    4299086  MISS:       2815
cpu0_DTLB PREFETCH  ACCESS:          0  HIT:          0  MISS:          0
cpu0_DTLB WRITEBACK ACCESS:          0  HIT:          0  MISS:          0
cpu0_ITLB TOTAL     ACCESS:    4876744  HIT:    4876682  MISS:         62
cpu0_ITLB LOAD      ACCESS:    4876744  HIT:    4876682  MISS:         62
cpu0_ITLB RFO       ACCESS:          0  HIT:          0  MISS:          0
cpu0_ITLB PREFETCH  ACCESS:          0  HIT:          0  MISS:          0
cpu0_ITLB WRITEBACK ACCESS:          0  HIT:          0  MISS:          0
cpu0_L1I TOTAL     ACCESS:    6976880  HIT:    6779468  MISS:     197412
cpu0_L1I LOAD      ACCESS:    6976880  HIT:    6779468  MISS:     197412
cpu0_L1I RFO       ACCESS:          0  HIT:          0  MISS:          0
cpu0_L1I PREFETCH  ACCESS:          0  HIT:          0  MISS:          0
cpu0_L1I WRITEBACK ACCESS:          0  HIT:          0  MISS:          0
cpu0_STLB TOTAL     ACCESS:      20733  HIT:      16581  MISS:       4152
cpu0_STLB LOAD      ACCESS:      17918  HIT:      13907  MISS:       4011
cpu0_STLB RFO       ACCESS:       2815  HIT:       2674  MISS:        141
cpu0_STLB PREFETCH  ACCESS:          0  HIT:          0  MISS:          0
cpu0_STLB WRITEBACK ACCESS:          0  HIT:          0  MISS:          0
cpu0_L1D TOTAL     ACCESS:   16434547  HIT:   16362913  MISS:      71634
cpu0_L1D LOAD      ACCESS:    8459228  HIT:    8420473  MISS:      38755
cpu0_L1D RFO       ACCESS:    7971179  HIT:    7938544  MISS:      32635
cpu0_L1D PREFETCH  ACCESS:          0  HIT:          0  MISS:          0
cpu0_L1D WRITEBACK ACCESS:          0  HIT:          0  MISS:          0
cpu0_L2C TOTAL     ACCESS:     318538  HIT:     295212  MISS:      23326
cpu0_L2C LOAD      ACCESS:     236167  HIT:     216312  MISS:      19855
cpu0_L2C RFO       ACCESS:      32635  HIT:      29238  MISS:       3397
cpu0_L2C PREFETCH  ACCESS:          0  HIT:          0  MISS:          0
[...]
cpu0_ITLB PREFETCH  ACCESS:          0  HIT:          0  MISS:          0
cpu0_ITLB WRITEBACK ACCESS:          0  HIT:          0  MISS:          0
cpu0_ITLB TRANSLATION ACCESS:          0  HIT:          0  MISS:          0
cpu0_ITLB PREFETCH  REQUESTED:          0  ISSUED:          0  USEFUL:          0  USELESS:          0
cpu0_ITLB AVERAGE MISS LATENCY: 16.6286 cycles
cpu0_L1I TOTAL     ACCESS:  162773382  HIT:  157041144  MISS:    5732238
cpu0_L1I LOAD      ACCESS:  162773382  HIT:  157041144  MISS:    5732238
cpu0_L1I RFO       ACCESS:          0  HIT:          0  MISS:          0
cpu0_L1I PREFETCH  ACCESS:          0  HIT:          0  MISS:          0
cpu0_L1I WRITEBACK ACCESS:          0  HIT:          0  MISS:          0
cpu0_L1I TRANSLATION ACCESS:          0  HIT:          0  MISS:          0
cpu0_L1I PREFETCH  REQUESTED:          0  ISSUED:          0  USEFUL:          0  USELESS:          0
cpu0_L1I AVERAGE MISS LATENCY: 12.0636 cycles
cpu0_STLB TOTAL     ACCESS:     956269  HIT:     880628  MISS:      75641
cpu0_STLB LOAD      ACCESS:     830343  HIT:     769087  MISS:      61256
cpu0_STLB RFO       ACCESS:     125926  HIT:     111541  MISS:      14385
cpu0_STLB PREFETCH  ACCESS:          0  HIT:          0  MISS:          0
cpu0_STLB WRITEBACK ACCESS:          0  HIT:          0  MISS:          0
cpu0_STLB TRANSLATION ACCESS:          0  HIT:          0  MISS:          0
cpu0_STLB PREFETCH  REQUESTED:          0  ISSUED:          0  USEFUL:          0  USELESS:          0
cpu0_STLB AVERAGE MISS LATENCY: 20.7097 cycles
cpu0_L1D TOTAL     ACCESS:  419488543  HIT:  414128054  MISS:    5360489
cpu0_L1D LOAD      ACCESS:  226440489  HIT:  223509936  MISS:    2930553
cpu0_L1D RFO       ACCESS:  192972510  HIT:  190551751  MISS:    2420759
cpu0_L1D PREFETCH  ACCESS:          0  HIT:          0  MISS:          0
cpu0_L1D WRITEBACK ACCESS:          0  HIT:          0  MISS:          0
cpu0_L1D TRANSLATION ACCESS:      75544  HIT:      66367  MISS:       9177
cpu0_L1D PREFETCH  REQUESTED:          0  ISSUED:          0  USEFUL:          0  USELESS:          0
cpu0_L1D AVERAGE MISS LATENCY: 199.458 cycles
cpu0_L2C TOTAL     ACCESS:   14297299  HIT:   12036280  MISS:    2261019
cpu0_L2C LOAD      ACCESS:    8662748  HIT:    7425307  MISS:    1237441
cpu0_L2C RFO       ACCESS:    2420739  HIT:    1399171  MISS:    1021568
cpu0_L2C PREFETCH  ACCESS:          0  HIT:          0  MISS:          0
cpu0_L2C WRITEBACK ACCESS:    3204635  HIT:    3203277  MISS:       1358
cpu0_L2C TRANSLATION ACCESS:       9177  HIT:       8525  MISS:        652
cpu0_L2C PREFETCH  REQUESTED:          0  ISSUED:          0  USEFUL:          0  USELESS:          0
cpu0_L2C AVERAGE MISS LATENCY: 449.359 cycles
LLC TOTAL     ACCESS:    3781438  HIT:    2289448  MISS:    1491990
LLC LOAD      ACCESS:    1237440  HIT:     834436  MISS:     403004
LLC RFO       ACCESS:    1021568  HIT:     224929  MISS:     796639
LLC PREFETCH  ACCESS:          0  HIT:          0  MISS:          0
LLC WRITEBACK ACCESS:    1521778  HIT:    1229500  MISS:     292278
LLC TRANSLATION ACCESS:        652  HIT:        583  MISS:         69
LLC PREFETCH  REQUESTED:          0  ISSUED:          0  USEFUL:          0  USELESS:          0
LLC AVERAGE MISS LATENCY: 649.17 cycles
~~~~~~~~~~Reuse Distance Profiler output~~~~~~~~~~
0	113094336	21224912
1	38866576	16409072
2	25169568	15149424
3	20321776	12425120
4	15586144	9188800
5	12187696	7683888
6	9673520	6476240
7	8039792	5144080
8	6804272	4705696
9	6338896	4466816
10	5418768	3682400
11	5098656	3503024
12	4605328	2877248
13	4514384	3024560
14	4164352	2894944
15	3871008	2732544
16	3501280	2398224
17	3707184	2396480
18	3101216	2253088
19	2911040	2169872
20	2891552	2241936
21	2573472	1996560
22	2239536	1736704
23	2012096	1605840
24	1973472	1620848
25	1887776	1554000
26	1778032	1457152
27	1689584	1390048
28	1589104	1293968
29	1875616	1370432
30	1618528	1342384
31	1498496	1191696
32	1393536	1081856
33	1273136	1030864
34	1207376	981056
35	1156384	925344
36	1133360	904448
37	1106224	862336
38	1080256	823936
39	1063696	804688
40	1022656	778288
41	984192	740448
42	970336	739840
43	981584	743488
44	904880	685696
45	863216	682224
46	890464	712352
47	870912	695920
48	883456	719152
49	839168	694896
50	848816	696768
51	820160	683680
52	796560	668480
53	815888	672032
54	776368	641168
55	775440	648736
56	735248	616160
57	711280	599024
58	695280	588880
59	670944	563008
60	650704	549232
61	615696	522848
62	557392	465504
63	536896	446592
64	1017552	841584
66	979456	805840
68	871744	709456
70	845248	668320
72	837504	669712
74	843792	674912
76	797520	627552
78	797568	628560
80	758848	595936
82	716096	558016
84	699728	554064
86	673248	539408
88	637504	520848
90	620832	509360
92	585600	478400
94	540784	447072
96	512688	420064
98	491808	407648
100	450432	373296
102	412816	331680
104	412832	333136
106	392880	319520
108	387584	318352
110	388208	318496
112	391456	320048
114	387632	316816
116	392000	324672
118	399136	331456
120	402624	333728
122	364640	299744
124	371152	308320
126	347440	285056
128	654928	533968
132	618176	507456
136	607456	507568
140	601968	508368
144	590176	499408
148	573552	478976
152	571280	469584
156	542640	434320
160	512016	410576
164	499024	396336
168	484576	389600
172	476016	386416
176	476240	391904
180	446496	369024
184	439296	365232
188	432448	359664
192	406928	338688
196	407216	335792
200	402176	331408
204	390624	324288
208	389744	327664
212	383968	323280
216	378464	318832
220	369168	308208
224	349648	287280
228	342160	280576
232	324096	267440
236	302736	249712
240	309184	256640
244	293968	239856
248	285760	230640
252	278416	224576
256	542064	439936
264	521488	418576
272	513488	413072
280	493712	394608
288	474432	372944
296	479440	376496
304	463808	364976
312	454320	361136
320	449616	351680
328	463936	366416
336	459664	362688
344	433296	335056
352	433872	340304
360	417296	325040
368	418704	326560
376	438816	346352
384	426528	339168
392	415664	332592
400	380064	300640
408	373600	296544
416	358880	285168
424	344320	273232
432	334848	265584
440	317664	250784
448	320176	254288
456	303664	239408
464	278224	218272
472	268848	212368
480	262768	205072
488	254048	199008
496	253520	198640
504	245600	190720
512	471504	367696
528	437952	338688
544	420944	324672
560	392320	301888
576	378928	290416
592	376960	292320
608	357424	273728
624	356784	273728
640	341104	261392
656	325584	248496
672	307840	236352
688	304960	233904
704	293936	227536
720	287760	220416
736	286304	220176
752	286240	219488
768	288176	221504
784	290784	224032
800	279680	215232
816	282640	217520
832	281248	216032
848	266048	200688
864	258064	192000
880	258592	192928
896	261360	194512
912	261232	194176
928	266528	196176
944	258016	187936
960	262336	190432
976	262784	190320
992	261536	187872
1008	261776	186752
1024	514032	362224
1056	502064	352624
1088	498784	348320
1120	495200	344128
1152	481824	331888
1184	475392	329520
1216	472448	326432
1248	451104	309408
1280	438624	297952
1312	417872	283600
1344	413424	279808
1376	389568	260864
1408	376992	252240
1440	352224	233472
1472	338960	226512
1504	321312	214080
1536	302784	199648
1568	288992	190672
1600	273488	179648
1632	263392	172592
1664	253280	165744
1696	242832	157392
1728	238432	156224
1760	230336	149312
1792	219600	141168
1824	209856	134096
1856	198928	125984
1888	187648	120016
1920	180256	113664
1952	174528	109840
1984	168080	104032
2016	164416	101856
2048	316176	198720
2112	281968	174080
2176	266048	165408
2240	251440	153168
2304	235776	144448
2368	222960	134624
2432	210112	127808
2496	203984	122384
2560	194224	117312
2624	189008	114512
2688	179696	107040
2752	168336	98384
2816	158512	95072
2880	151696	88544
2944	146176	86768
3008	139744	81488
3072	132432	78144
3136	126768	73456
3200	117472	66336
3264	113440	64432
3328	113760	64720
3392	105984	60512
3456	97280	55184
3520	96016	55120
3584	93088	52304
3648	96096	54176
3712	93376	52752
3776	85968	48304
3840	91280	49408
3904	89776	47456
3968	83552	47408
4032	80944	43568
4096	154832	84464
4224	148192	77376
4352	139056	71808
4480	132784	65088
4608	128224	63712
4736	120736	62304
4864	113936	58800
4992	113536	57152
5120	109536	55168
5248	102128	47536
5376	100672	48048
5504	94688	46032
5632	86720	41632
5760	87424	43264
5888	82128	40576
6016	80880	40896
6144	80416	40832
6272	77616	40320
6400	77056	40464
6528	77280	41088
6656	80272	44240
6784	77440	43408
6912	76800	41984
7040	72544	39904
7168	74656	41008
7296	77472	42784
7424	74368	40944
7552	74960	42240
7680	73568	41152
7808	73600	41456
7936	69456	37472
8064	70816	39584
8192	149360	87456
8448	138480	79888
8704	130192	76832
8960	113616	62064
9216	110368	60512
9472	103376	54704
9728	95232	48624
9984	99504	53760
10240	94496	50864
10496	90160	46944
10752	81744	40336
11008	81264	41136
11264	75472	37680
11520	78048	40288
11776	70000	32640
12032	65392	31760
12288	61104	27808
12544	62496	29008
12800	60832	25680
13056	66272	27696
13312	60384	23920
13568	58256	22448
13824	55840	24032
14080	51392	23216
14336	52384	25552
14592	49008	24064
14848	51920	27856
15104	48400	25440
15360	47008	25408
15616	45024	23680
15872	42880	22096
16128	42320	20832
16384	78704	38208
16896	76496	36880
17408	68992	31168
17920	69536	33376
18432	62448	28400
18944	58416	26144
19456	57888	26736
19968	55248	26240
20480	56064	25952
20992	57536	28672
21504	63216	35808
22016	60704	32976
22528	53888	27376
23040	54944	29312
23552	50080	25648
24064	47248	22880
24576	42096	20416
25088	41120	18864
25600	41456	19568
26112	37504	17024
26624	36032	16192
27136	34480	15776
27648	33104	15200
28160	32592	14512
28672	32576	13808
29184	31696	14576
29696	32336	14800
30208	29872	13408
30720	28672	11888
31232	27360	12208
31744	31328	14368
32256	29584	14224
32768	56640	25632
33792	51104	21152
34816	49344	21760
35840	45760	20352
36864	45392	20160
37888	44848	18848
38912	41952	18448
39936	41680	18816
40960	39152	16592
41984	39616	18080
43008	39088	17440
44032	38624	16320
45056	37264	16464
46080	33824	13760
47104	33984	14928
48128	34192	14624
49152	31600	13744
50176	29696	11744
51200	28528	10896
52224	28560	11456
53248	26432	10464
54272	28784	12768
55296	26320	11408
56320	25952	11008
57344	22752	8672
58368	24960	10416
59392	23728	9792
60416	22528	8624
61440	23344	9632
62464	22336	8288
63488	20816	8480
64512	19856	8240
65536	39536	15952
67584	42160	17984
69632	39760	15680
71680	34784	14352
73728	36272	16560
75776	33536	14048
77824	32432	13552
79872	33808	15120
81920	29056	12704
83968	27472	11152
86016	31712	15024
88064	32368	16480
90112	31072	15024
92160	26288	11296
94208	25600	12272
96256	22704	9360
98304	23856	10512
100352	21680	9312
102400	20544	8256
104448	20192	8720
106496	23392	10816
108544	20896	8896
110592	19648	8224
112640	20128	8784
114688	20192	9056
116736	18752	8832
118784	19088	9248
120832	18960	9328
122880	17328	8256
124928	16816	8304
126976	17760	8640
129024	17600	9200
131072	36400	17776
135168	30992	14800
139264	31232	15680
143360	29904	14368
147456	26528	12512
151552	29888	15120
155648	26144	11680
159744	26416	12576
163840	23504	12240
167936	21792	9552
172032	20432	8608
176128	20720	9824
180224	22608	12064
184320	18896	9040
188416	23792	14512
192512	23392	14048
196608	21232	11296
200704	20960	11888
204800	22144	12832
208896	20048	11984
212992	20592	12352
217088	19040	11744
221184	19904	13408
225280	17200	10704
229376	20608	13552
233472	17504	10768
237568	17040	10880
241664	19472	13136
245760	14192	8624
249856	20208	13920
253952	15824	9904
258048	18016	11632
262144	39024	27504
270336	31360	21664
278528	37136	27488
286720	23856	15056
294912	27040	18720
303104	34080	23376
311296	30176	22112
319488	33952	25040
327680	26016	17728
335872	24048	16912
344064	29328	21856
352256	25136	18512
360448	30112	22736
368640	23616	17552
376832	22640	17664
385024	22416	17120
393216	19280	13920
401408	13744	9456
409600	14288	9744
417792	11968	7680
425984	12944	8816
434176	13344	9904
442368	14720	10304
450560	10112	6512
458752	14800	10192
466944	12512	9344
475136	14544	10416
483328	8400	5344
491520	9904	6352
499712	11904	9296
507904	12864	9392
516096	13760	9984
524288	22560	16672
540672	19248	13888
557056	17760	12768
573440	14944	9136
589824	15344	9696
606208	16528	12288
622592	17152	12672
638976	14624	9552
655360	13696	10224
671744	20320	16656
688128	15136	11808
704512	14144	10976
720896	10256	7440
737280	12544	9216
753664	10256	7104
770048	9472	6560
786432	12800	9808
802816	11184	8224
819200	11728	9344
835584	8160	5424
851968	8576	6320
868352	13232	10368
884736	9984	7056
901120	5168	3200
917504	7232	4656
933888	8960	6896
950272	9232	7632
966656	369024	4464
983040	8976	7104
999424	7984	5744
1015808	5808	4384
1032192	7264	5328
1048576	13104	10240
1081344	14064	10256
1114112	12544	8928
1146880	14368	10336
1179648	9744	7440
1212416	9840	6752
1245184	11152	8128
1277952	6176	4272
1310720	7520	4992
1343488	10176	7856
1376256	7648	5744
1409024	9648	6816
1441792	6848	5264
1474560	6816	5136
1507328	7520	5776
1540096	7872	6112
1572864	6048	3824
1605632	9984	8656
1638400	3360	2384
1671168	6912	4944
1703936	11920	9760
1736704	9392	7200
1769472	6208	4224
1802240	5568	4304
1835008	6048	4304
1867776	4896	3520
1900544	6688	4480
1933312	9264	5728
1966080	8208	6000
1998848	9168	6768
2031616	11152	8336
2064384	9344	7184
2097152	12608	7968
2162688	9808	6896
2228224	14400	8480
2293760	11184	8944
2359296	19280	14704
2424832	8992	5744
2490368	16400	10464
2555904	14976	10848
2621440	12096	6928
2686976	7552	4576
2752512	14512	8720
2818048	7184	4688
2883584	9536	6240
2949120	8224	4384
3014656	8816	5456
3080192	8112	5504
3145728	11440	7968
3211264	9808	5744
3276800	7696	4368
3342336	5904	3520
3407872	5152	3504
3473408	10128	7632
3538944	6480	4112
3604480	10240	6480
3670016	5040	3456
3735552	6544	4304
3801088	5072	3632
3866624	5216	4368
3932160	4048	2768
3997696	3488	2160
4063232	4768	4000
4128768	6128	4816
4194304	7600	6224
4325376	6064	3968
4456448	8176	5456
4587520	5824	3808
4718592	10112	6896
4849664	8352	6752
4980736	5088	3600
5111808	4112	3024
5242880	4528	2736
5373952	5392	4512
5505024	8288	6816
5636096	2256	1264
5767168	4336	2880
5898240	1808	1184
6029312	3584	2768
6160384	6064	4752
6291456	2160	1360
6422528	3776	2976
6553600	2416	1248
6684672	3744	2800
6815744	6640	5632
6946816	2336	1648
7077888	2288	1616
7208960	3280	2640
7340032	4656	3376
7471104	3472	2832
7602176	3520	2448
7733248	2432	1824
7864320	4352	3328
7995392	3440	2496
8126464	3136	2832
8257536	2096	1264
8388608	5088	3920
8650752	2576	1728
8912896	3616	2576
9175040	2304	1632
9437184	7440	4848
9699328	5984	3440
9961472	2176	1472
10223616	7040	5344
10485760	8800	6208
10747904	3344	2224
11010048	3216	2576
11272192	3488	2496
11534336	3296	2048
11796480	2000	1488
12058624	1968	1104
12320768	4656	2928
12582912	1760	960
12845056	4000	2848
13107200	3168	2640
13369344	2512	1824
13631488	1280	1024
13893632	1168	960
14155776	3264	2256
14417920	1680	1088
14680064	1600	1232
14942208	1088	752
15204352	2128	1136
15466496	1392	848
15728640	1680	1376
15990784	1296	816
16252928	1920	1568
16515072	1936	1408
16777216	3360	2656
17301504	3328	2656
17825792	2624	1856
18350080	2496	1440
18874368	2672	1760
19398656	4480	3184
19922944	3248	2032
20447232	2032	1664
20971520	9360	5504
21495808	3696	2720
22020096	1600	1296
22544384	2528	2096
23068672	2048	1568
23592960	1904	1360
24117248	3456	2096
24641536	2240	1536
25165824	1872	1152
25690112	2256	1488
26214400	2832	1680
26738688	2432	1360
27262976	3728	2368
27787264	4240	2704
28311552	2048	1408
28835840	2144	1328
29360128	2064	1360
29884416	2112	1168
30408704	2256	1760
30932992	2368	1520
31457280	2224	1376
31981568	3200	2336
32505856	3136	2000
33030144	2144	1296
33554432	4272	2640
34603008	3600	2672
35651584	5008	3472
36700160	4272	2592
37748736	3312	2000
38797312	2560	1424
39845888	3136	1744
40894464	2464	2176
41943040	2832	2400
42991616	1904	1840
44040192	2208	2144
45088768	2416	2016
46137344	1504	1392
47185920	1200	1168
48234496	1696	1632
49283072	1264	1248
50331648	1664	1472
51380224	1392	1312
52428800	2064	1712
53477376	1952	1744
54525952	1936	1648
55574528	2528	2128
56623104	2064	1920
57671680	1856	1584
58720256	2608	2032
59768832	2400	2112
60817408	1632	1520
61865984	1808	1728
62914560	2096	1952
63963136	2512	2144
65011712	1712	1632
66060288	1984	1920
67108864	4608	3760
69206016	5056	4176
71303168	4688	3728
73400320	3648	3472
75497472	3008	2928
77594624	3056	2784
79691776	3088	2736
81788928	3792	3408
83886080	3520	3344
85983232	2496	2384
88080384	2640	2528
90177536	2400	2256
92274688	2544	2352
94371840	3040	2560
96468992	2128	1920
98566144	2640	2464
100663296	1936	1872
102760448	1888	1808
104857600	1360	1360
106954752	4160	2976
109051904	2192	2064
111149056	5872	4096
113246208	2464	2304
115343360	1984	1904
117440512	2080	1952
119537664	2112	2032
121634816	1888	1776
123731968	1808	1664
125829120	1952	1856
127926272	1936	1760
130023424	2208	2032
132120576	2208	2176
134217728	4288	4016
138412032	3904	3696
142606336	4128	3920
146800640	3584	3232
150994944	3488	3328
155189248	3424	3040
159383552	3760	3344
163577856	4032	3664
167772160	3648	3232
171966464	3152	2848
176160768	2176	2000
180355072	2368	2256
184549376	1824	1776
188743680	1520	1440
192937984	2864	2752
197132288	1936	1840
201326592	2704	2464
205520896	2448	2256
209715200	2352	2080
213909504	2912	2672
218103808	2784	2512
222298112	2960	2640
226492416	3152	2800
230686720	3104	2688
234881024	2496	2144
239075328	2624	2384
243269632	2592	2288
247463936	2816	2464
251658240	2336	2112
255852544	2944	2688
260046848	2784	2400
264241152	3120	2816
268435456	3952	3440
276824064	3712	3248
285212672	4256	3808
293601280	4224	3696
301989888	4240	3696
310378496	3968	3504
318767104	3152	2640
327155712	3632	2976
335544320	3296	2624
343932928	3952	3264
352321536	2880	2432
360710144	1440	1088
369098752	1168	976
377487360	1808	1536
385875968	592	528
394264576	0	0
402653184	0	0
411041792	0	0
419430400	0	0
427819008	0	0
436207616	0	0
444596224	0	0
452984832	0	0
461373440	0	0
469762048	0	0
478150656	0	0
486539264	0	0
494927872	0	0
503316480	0	0
511705088	0	0
520093696	0	0
528482304	0	0
536870912	0	0
553648128	0	0
570425344	0	0
587202560	0	0
603979776	0	0
620756992	0	0
637534208	0	0
654311424	0	0
671088640	0	0
687865856	0	0
704643072	0	0
721420288	0	0
738197504	0	0
754974720	0	0
771751936	0	0
788529152	0	0
805306368	0	0
822083584	0	0
838860800	0	0
855638016	0	0
872415232	0	0
889192448	0	0
905969664	0	0
922746880	0	0
939524096	0	0
956301312	0	0
973078528	0	0
989855744	0	0
1006632960	0	0
1023410176	0	0
1040187392	0	0
1056964608	0	0
1073741824	0	0
1107296256	0	0
1140850688	0	0
1174405120	0	0
1207959552	0	0
1241513984	0	0
1275068416	0	0
1308622848	0	0
1342177280	0	0
1375731712	0	0
1409286144	0	0
1442840576	0	0
1476395008	0	0
1509949440	0	0
1543503872	0	0
1577058304	0	0
1610612736	0	0
1644167168	0	0
1677721600	0	0
1711276032	0	0
1744830464	0	0
1778384896	0	0
1811939328	0	0
1845493760	0	0
1879048192	0	0
1912602624	0	0
1946157056	0	0
1979711488	0	0
2013265920	0	0
2046820352	0	0
2080374784	0	0
2113929216	0	0
2147483648	0	0
2214592512	0	0
2281701376	0	0
2348810240	0	0
2415919104	0	0
2483027968	0	0
2550136832	0	0
2617245696	0	0
2684354560	0	0
2751463424	0	0
2818572288	0	0
2885681152	0	0
2952790016	0	0
3019898880	0	0
3087007744	0	0
3154116608	0	0
3221225472	0	0
3288334336	0	0
3355443200	0	0
3422552064	0	0
3489660928	0	0
3556769792	0	0
3623878656	0	0
3690987520	0	0
3758096384	0	0
3825205248	0	0
3892314112	0	0
3959422976	0	0
4026531840	0	0
4093640704	0	0
4160749568	0	0
4227858432	0	0
~~~~~~~~~~Reuse Distance Profiler output end~~~~~~~~~~

Sampler size:25227

DRAM Statistics
 CHANNEL 0
 RQ ROW_BUFFER_HIT:     207255  ROW_BUFFER_MISS:     992343
 DBUS AVG_CONGESTED_CYCLE:    3.97979
 WQ ROW_BUFFER_HIT:      86049  ROW_BUFFER_MISS:    1003016  FULL:          0


CPU 0 Branch Prediction Accuracy: 85.9357% MPKI: 26.413 Average ROB Occupancy at Mispredict: 12.855
Branch type MPKI
BRANCH_DIRECT_JUMP: 0.000749333
BRANCH_INDIRECT: 0.000144
BRANCH_CONDITIONAL: 26.3881
BRANCH_DIRECT_CALL: 0.00154133
BRANCH_INDIRECT_CALL: 0.019134
BRANCH_RETURN: 0.00333067

