
*** ChampSim Multicore Out-of-Order Simulator ***

Warmup Instructions: 50000000
Simulation Instructions: 1500000000
Number of CPUs: 1
Off-chip DRAM Size: 4 GiB Channels: 1 Width: 64-bit Data Rate: 3200 MT/s

VirtualMemory physical capacity: 8588881920 num_ppages: 2096895
VirtualMemory page size: 4096 log2_page_size: 12

CPU 0 runs /s/traces/champsim_traces/447.dealII-3B.champsimtrace.xz
CPU 0 Bimodal branch predictor
Basic BTB sets: 1024 ways: 8 indirect buffer size: 4096 RAS size: 64
Initializing LRU.
Initializing LRU.
Initializing LRU.
Initializing LRU.
Initializing rdLRU.
Initializing LRU.
Heartbeat CPU 0 instructions: 2000002 cycles: 596084 heartbeat IPC: 3.35524 cumulative IPC: 3.35524 (Simulation time: 0 hr 1 min 36 sec) 
Heartbeat CPU 0 instructions: 4000001 cycles: 1188171 heartbeat IPC: 3.37788 cumulative IPC: 3.36652 (Simulation time: 0 hr 3 min 3 sec) 
Heartbeat CPU 0 instructions: 6000002 cycles: 1757214 heartbeat IPC: 3.51467 cumulative IPC: 3.4145 (Simulation time: 0 hr 4 min 34 sec) 
Heartbeat CPU 0 instructions: 8000000 cycles: 2372325 heartbeat IPC: 3.25144 cumulative IPC: 3.37222 (Simulation time: 0 hr 6 min 13 sec) 
Heartbeat CPU 0 instructions: 10000004 cycles: 2956879 heartbeat IPC: 3.42142 cumulative IPC: 3.38195 (Simulation time: 0 hr 7 min 42 sec) 
Heartbeat CPU 0 instructions: 12000002 cycles: 3559328 heartbeat IPC: 3.31978 cumulative IPC: 3.37142 (Simulation time: 0 hr 9 min 9 sec) 
Heartbeat CPU 0 instructions: 14000002 cycles: 4140842 heartbeat IPC: 3.4393 cumulative IPC: 3.38096 (Simulation time: 0 hr 10 min 37 sec) 
Heartbeat CPU 0 instructions: 16000001 cycles: 4732793 heartbeat IPC: 3.37866 cumulative IPC: 3.38067 (Simulation time: 0 hr 12 min 11 sec) 
Heartbeat CPU 0 instructions: 18000002 cycles: 5314075 heartbeat IPC: 3.44067 cumulative IPC: 3.38723 (Simulation time: 0 hr 13 min 39 sec) 
Heartbeat CPU 0 instructions: 20000000 cycles: 5909220 heartbeat IPC: 3.36052 cumulative IPC: 3.38454 (Simulation time: 0 hr 15 min 11 sec) 
Heartbeat CPU 0 instructions: 22000000 cycles: 6501199 heartbeat IPC: 3.3785 cumulative IPC: 3.38399 (Simulation time: 0 hr 16 min 41 sec) 
Heartbeat CPU 0 instructions: 24000001 cycles: 7070102 heartbeat IPC: 3.51554 cumulative IPC: 3.39458 (Simulation time: 0 hr 18 min 13 sec) 
Heartbeat CPU 0 instructions: 26000003 cycles: 7673731 heartbeat IPC: 3.3133 cumulative IPC: 3.38818 (Simulation time: 0 hr 19 min 50 sec) 
Heartbeat CPU 0 instructions: 28000002 cycles: 8330487 heartbeat IPC: 3.04527 cumulative IPC: 3.36115 (Simulation time: 0 hr 21 min 29 sec) 
Heartbeat CPU 0 instructions: 30000002 cycles: 8982696 heartbeat IPC: 3.0665 cumulative IPC: 3.33975 (Simulation time: 0 hr 23 min 2 sec) 
Heartbeat CPU 0 instructions: 32000003 cycles: 9635429 heartbeat IPC: 3.06404 cumulative IPC: 3.32108 (Simulation time: 0 hr 24 min 35 sec) 
Heartbeat CPU 0 instructions: 34000001 cycles: 10293166 heartbeat IPC: 3.04073 cumulative IPC: 3.30316 (Simulation time: 0 hr 26 min 12 sec) 
Heartbeat CPU 0 instructions: 36000002 cycles: 10950073 heartbeat IPC: 3.04457 cumulative IPC: 3.28765 (Simulation time: 0 hr 27 min 49 sec) 
Heartbeat CPU 0 instructions: 38000000 cycles: 11602348 heartbeat IPC: 3.06619 cumulative IPC: 3.2752 (Simulation time: 0 hr 29 min 26 sec) 
Heartbeat CPU 0 instructions: 40000001 cycles: 12254675 heartbeat IPC: 3.06595 cumulative IPC: 3.26406 (Simulation time: 0 hr 31 min 3 sec) 
Heartbeat CPU 0 instructions: 42000004 cycles: 12857281 heartbeat IPC: 3.31892 cumulative IPC: 3.26663 (Simulation time: 0 hr 32 min 32 sec) 
Heartbeat CPU 0 instructions: 44000000 cycles: 13454161 heartbeat IPC: 3.35075 cumulative IPC: 3.27036 (Simulation time: 0 hr 33 min 59 sec) 
Heartbeat CPU 0 instructions: 46000000 cycles: 14023149 heartbeat IPC: 3.51501 cumulative IPC: 3.28029 (Simulation time: 0 hr 35 min 24 sec) 
Heartbeat CPU 0 instructions: 48000004 cycles: 14615259 heartbeat IPC: 3.37776 cumulative IPC: 3.28424 (Simulation time: 0 hr 36 min 50 sec) 
Heartbeat CPU 0 instructions: 50000004 cycles: 15199755 heartbeat IPC: 3.42175 cumulative IPC: 3.28953 (Simulation time: 0 hr 38 min 14 sec) 

Warmup complete CPU 0 instructions: 50000004 cycles: 15199755 (Simulation time: 0 hr 38 min 14 sec) 

Heartbeat CPU 0 instructions: 52000000 cycles: 17550711 heartbeat IPC: 0.850716 cumulative IPC: 0.850716 (Simulation time: 0 hr 39 min 30 sec) 

Region of Interest Statistics
cpu0_DTLB TOTAL     ACCESS:     658200  HIT:     658092  MISS:        108
cpu0_DTLB LOAD      ACCESS:     499259  HIT:     499157  MISS:        102
cpu0_DTLB RFO       ACCESS:     158941  HIT:     158935  MISS:          6
cpu0_DTLB PREFETCH  ACCESS:          0  HIT:          0  MISS:          0
cpu0_DTLB WRITEBACK ACCESS:          0  HIT:          0  MISS:          0
cpu0_ITLB TOTAL     ACCESS:     257937  HIT:     257925  MISS:         12
cpu0_ITLB LOAD      ACCESS:     257937  HIT:     257925  MISS:         12
cpu0_ITLB RFO       ACCESS:          0  HIT:          0  MISS:          0
cpu0_ITLB PREFETCH  ACCESS:          0  HIT:          0  MISS:          0
cpu0_ITLB WRITEBACK ACCESS:          0  HIT:          0  MISS:          0
cpu0_L1I TOTAL     ACCESS:      26547  HIT:      26516  MISS:         31
cpu0_L1I LOAD      ACCESS:      26547  HIT:      26516  MISS:         31
cpu0_L1I RFO       ACCESS:          0  HIT:          0  MISS:          0
cpu0_L1I PREFETCH  ACCESS:          0  HIT:          0  MISS:          0
cpu0_L1I WRITEBACK ACCESS:          0  HIT:          0  MISS:          0
cpu0_STLB TOTAL     ACCESS:        120  HIT:        120  MISS:          0
cpu0_STLB LOAD      ACCESS:        114  HIT:        114  MISS:          0
cpu0_STLB RFO       ACCESS:          6  HIT:          6  MISS:          0
cpu0_STLB PREFETCH  ACCESS:          0  HIT:          0  MISS:          0
cpu0_STLB WRITEBACK ACCESS:          0  HIT:          0  MISS:          0
cpu0_L1D TOTAL     ACCESS:     881893  HIT:     878391  MISS:       3502
cpu0_L1D LOAD      ACCESS:     603880  HIT:     600577  MISS:       3303
cpu0_L1D RFO       ACCESS:     278013  HIT:     277814  MISS:        199
cpu0_L1D PREFETCH  ACCESS:          0  HIT:          0  MISS:          0
cpu0_L1D WRITEBACK ACCESS:          0  HIT:          0  MISS:          0
cpu0_L2C TOTAL     ACCESS:       3866  HIT:       3854  MISS:         12
cpu0_L2C LOAD      ACCESS:       3334  HIT:       3322  MISS:         12
cpu0_L2C RFO       ACCESS:        199  HIT:        199  MISS:          0
cpu0_L2C PREFETCH  ACCESS:          0  HIT:          0  MISS:          0
cpu0_L2C WRITEBACK ACCESS:        333  HIT:        333  MISS:          0
LLC TOTAL     ACCESS:         12  HIT:          0  MISS:         12
LLC LOAD      ACCESS:         12  HIT:          0  MISS:         12
LLC RFO       ACCESS:          0  HIT:          0  MISS:          0
LLC PREFETCH  ACCESS:          0  HIT:          0  MISS:          0
LLC WRITEBACK ACCESS:          0  HIT:          0  MISS:          0
Heartbeat CPU 0 instructions: 54000002 cycles: 19453280 heartbeat IPC: 1.05121 cumulative IPC: 0.940396 (Simulation time: 0 hr 40 min 49 sec) 

Region of Interest Statistics
cpu0_DTLB TOTAL     ACCESS:    1244066  HIT:    1243763  MISS:        303
cpu0_DTLB LOAD      ACCESS:     947186  HIT:     946903  MISS:        283
cpu0_DTLB RFO       ACCESS:     296880  HIT:     296860  MISS:         20
cpu0_DTLB PREFETCH  ACCESS:          0  HIT:          0  MISS:          0
cpu0_DTLB WRITEBACK ACCESS:          0  HIT:          0  MISS:          0
cpu0_ITLB TOTAL     ACCESS:     471130  HIT:     471074  MISS:         56
cpu0_ITLB LOAD      ACCESS:     471130  HIT:     471074  MISS:         56
cpu0_ITLB RFO       ACCESS:          0  HIT:          0  MISS:          0
cpu0_ITLB PREFETCH  ACCESS:          0  HIT:          0  MISS:          0
cpu0_ITLB WRITEBACK ACCESS:          0  HIT:          0  MISS:          0
cpu0_L1I TOTAL     ACCESS:     106155  HIT:     106090  MISS:         65
cpu0_L1I LOAD      ACCESS:     106155  HIT:     106090  MISS:         65
cpu0_L1I RFO       ACCESS:          0  HIT:          0  MISS:          0
cpu0_L1I PREFETCH  ACCESS:          0  HIT:          0  MISS:          0
cpu0_L1I WRITEBACK ACCESS:          0  HIT:          0  MISS:          0
cpu0_STLB TOTAL     ACCESS:        359  HIT:        359  MISS:          0
cpu0_STLB LOAD      ACCESS:        339  HIT:        339  MISS:          0
cpu0_STLB RFO       ACCESS:         20  HIT:         20  MISS:          0
cpu0_STLB PREFETCH  ACCESS:          0  HIT:          0  MISS:          0
cpu0_STLB WRITEBACK ACCESS:          0  HIT:          0  MISS:          0
cpu0_L1D TOTAL     ACCESS:    1670094  HIT:    1663747  MISS:       6347
cpu0_L1D LOAD      ACCESS:    1159136  HIT:    1153294  MISS:       5842
cpu0_L1D RFO       ACCESS:     510958  HIT:     510453  MISS:        505
cpu0_L1D PREFETCH  ACCESS:          0  HIT:          0  MISS:          0
cpu0_L1D WRITEBACK ACCESS:          0  HIT:          0  MISS:          0
cpu0_L2C TOTAL     ACCESS:       7209  HIT:       7154  MISS:         55
cpu0_L2C LOAD      ACCESS:       5907  HIT:       5852  MISS:         55
cpu0_L2C RFO       ACCESS:        505  HIT:        505  MISS:          0
cpu0_L2C PREFETCH  ACCESS:          0  HIT:          0  MISS:          0
cpu0_L2C WRITEBACK ACCESS:        797  HIT:        797  MISS:          0
LLC TOTAL     ACCESS:         56  HIT:          1  MISS:         55
LLC LOAD      ACCESS:         55  HIT:          0  MISS:         55
LLC RFO       ACCESS:          0  HIT:          0  MISS:          0
LLC PREFETCH  ACCESS:          0  HIT:          0  MISS:          0
LLC WRITEBACK ACCESS:          1  HIT:          1  MISS:          0
Heartbeat CPU 0 instructions: 56000002 cycles: 21650679 heartbeat IPC: 0.910167 cumulative IPC: 0.930099 (Simulation time: 0 hr 42 min 13 sec) 

Region of Interest Statistics
cpu0_DTLB TOTAL     ACCESS:    1864323  HIT:    1863831  MISS:        492
cpu0_DTLB LOAD      ACCESS:    1417491  HIT:    1417032  MISS:        459
cpu0_DTLB RFO       ACCESS:     446832  HIT:     446799  MISS:         33
cpu0_DTLB PREFETCH  ACCESS:          0  HIT:          0  MISS:          0
cpu0_DTLB WRITEBACK ACCESS:          0  HIT:          0  MISS:          0
cpu0_ITLB TOTAL     ACCESS:     704058  HIT:     703976  MISS:         82
cpu0_ITLB LOAD      ACCESS:     704058  HIT:     703976  MISS:         82
cpu0_ITLB RFO       ACCESS:          0  HIT:          0  MISS:          0
cpu0_ITLB PREFETCH  ACCESS:          0  HIT:          0  MISS:          0
cpu0_ITLB WRITEBACK ACCESS:          0  HIT:          0  MISS:          0
cpu0_L1I TOTAL     ACCESS:     158179  HIT:     157907  MISS:        272
cpu0_L1I LOAD      ACCESS:     158179  HIT:     157907  MISS:        272
cpu0_L1I RFO       ACCESS:          0  HIT:          0  MISS:          0
cpu0_L1I PREFETCH  ACCESS:          0  HIT:          0  MISS:          0
cpu0_L1I WRITEBACK ACCESS:          0  HIT:          0  MISS:          0
cpu0_STLB TOTAL     ACCESS:        574  HIT:        572  MISS:          2
cpu0_STLB LOAD      ACCESS:        541  HIT:        539  MISS:          2
cpu0_STLB RFO       ACCESS:         33  HIT:         33  MISS:          0
cpu0_STLB PREFETCH  ACCESS:          0  HIT:          0  MISS:          0
cpu0_STLB WRITEBACK ACCESS:          0  HIT:          0  MISS:          0
cpu0_L1D TOTAL     ACCESS:    2506473  HIT:    2495723  MISS:      10750
cpu0_L1D LOAD      ACCESS:    1730480  HIT:    1720627  MISS:       9853
cpu0_L1D RFO       ACCESS:     775991  HIT:     775096  MISS:        895
cpu0_L1D PREFETCH  ACCESS:          0  HIT:          0  MISS:          0
cpu0_L1D WRITEBACK ACCESS:          0  HIT:          0  MISS:          0
cpu0_L2C TOTAL     ACCESS:      12417  HIT:      12282  MISS:        135
cpu0_L2C LOAD      ACCESS:      10125  HIT:       9990  MISS:        135
cpu0_L2C RFO       ACCESS:        895  HIT:        895  MISS:          0
cpu0_L2C PREFETCH  ACCESS:          0  HIT:          0  MISS:          0
cpu0_L2C WRITEBACK ACCESS:       1395  HIT:       1395  MISS:          0
LLC TOTAL     ACCESS:        136  HIT:          4  MISS:        132
LLC LOAD      ACCESS:        135  HIT:          3  MISS:        132
LLC RFO       ACCESS:          0  HIT:          0  MISS:          0
LLC PREFETCH  ACCESS:          0  HIT:          0  MISS:          0
LLC WRITEBACK ACCESS:          1  HIT:          1  MISS:          0
Heartbeat CPU 0 instructions: 58000001 cycles: 24003040 heartbeat IPC: 0.850209 cumulative IPC: 0.908751 (Simulation time: 0 hr 43 min 31 sec) 

Region of Interest Statistics
cpu0_DTLB TOTAL     ACCESS:    2521502  HIT:    2520903  MISS:        599
cpu0_DTLB LOAD      ACCESS:    1915941  HIT:    1915381  MISS:        560
cpu0_DTLB RFO       ACCESS:     605561  HIT:     605522  MISS:         39
cpu0_DTLB PREFETCH  ACCESS:          0  HIT:          0  MISS:          0
cpu0_DTLB WRITEBACK ACCESS:          0  HIT:          0  MISS:          0
cpu0_ITLB TOTAL     ACCESS:     961227  HIT:     961133  MISS:         94
cpu0_ITLB LOAD      ACCESS:     961227  HIT:     961133  MISS:         94
cpu0_ITLB RFO       ACCESS:          0  HIT:          0  MISS:          0
cpu0_ITLB PREFETCH  ACCESS:          0  HIT:          0  MISS:          0
cpu0_ITLB WRITEBACK ACCESS:          0  HIT:          0  MISS:          0
cpu0_L1I TOTAL     ACCESS:     186026  HIT:     185721  MISS:        305
cpu0_L1I LOAD      ACCESS:     186026  HIT:     185721  MISS:        305
cpu0_L1I RFO       ACCESS:          0  HIT:          0  MISS:          0
cpu0_L1I PREFETCH  ACCESS:          0  HIT:          0  MISS:          0
cpu0_L1I WRITEBACK ACCESS:          0  HIT:          0  MISS:          0
cpu0_STLB TOTAL     ACCESS:        693  HIT:        691  MISS:          2
cpu0_STLB LOAD      ACCESS:        654  HIT:        652  MISS:          2
cpu0_STLB RFO       ACCESS:         39  HIT:         39  MISS:          0
cpu0_STLB PREFETCH  ACCESS:          0  HIT:          0  MISS:          0
cpu0_STLB WRITEBACK ACCESS:          0  HIT:          0  MISS:          0
cpu0_L1D TOTAL     ACCESS:    3387952  HIT:    3373658  MISS:      14294
cpu0_L1D LOAD      ACCESS:    2333768  HIT:    2320566  MISS:      13202
cpu0_L1D RFO       ACCESS:    1054182  HIT:    1053092  MISS:       1090
cpu0_L1D PREFETCH  ACCESS:          0  HIT:          0  MISS:          0
cpu0_L1D WRITEBACK ACCESS:          0  HIT:          0  MISS:          0
cpu0_L2C TOTAL     ACCESS:      16323  HIT:      16179  MISS:        144
cpu0_L2C LOAD      ACCESS:      13507  HIT:      13363  MISS:        144
cpu0_L2C RFO       ACCESS:       1090  HIT:       1090  MISS:          0
cpu0_L2C PREFETCH  ACCESS:          0  HIT:          0  MISS:          0
cpu0_L2C WRITEBACK ACCESS:       1724  HIT:       1724  MISS:          0
LLC TOTAL     ACCESS:        145  HIT:          4  MISS:        141
LLC LOAD      ACCESS:        144  HIT:          3  MISS:        141
LLC RFO       ACCESS:          0  HIT:          0  MISS:          0
LLC PREFETCH  ACCESS:          0  HIT:          0  MISS:          0
LLC WRITEBACK ACCESS:          1  HIT:          1  MISS:          0
Heartbeat CPU 0 instructions: 60000004 cycles: 25897563 heartbeat IPC: 1.05568 cumulative IPC: 0.934771 (Simulation time: 0 hr 44 min 52 sec) 

Region of Interest Statistics
cpu0_DTLB TOTAL     ACCESS:    3107322  HIT:    3106510  MISS:        812
cpu0_DTLB LOAD      ACCESS:    2363872  HIT:    2363113  MISS:        759
cpu0_DTLB RFO       ACCESS:     743450  HIT:     743397  MISS:         53
cpu0_DTLB PREFETCH  ACCESS:          0  HIT:          0  MISS:          0
cpu0_DTLB WRITEBACK ACCESS:          0  HIT:          0  MISS:          0
cpu0_ITLB TOTAL     ACCESS:    1174172  HIT:    1174033  MISS:        139
cpu0_ITLB LOAD      ACCESS:    1174172  HIT:    1174033  MISS:        139
cpu0_ITLB RFO       ACCESS:          0  HIT:          0  MISS:          0
cpu0_ITLB PREFETCH  ACCESS:          0  HIT:          0  MISS:          0
cpu0_ITLB WRITEBACK ACCESS:          0  HIT:          0  MISS:          0
cpu0_L1I TOTAL     ACCESS:     265951  HIT:     265569  MISS:        382
cpu0_L1I LOAD      ACCESS:     265951  HIT:     265569  MISS:        382
cpu0_L1I RFO       ACCESS:          0  HIT:          0  MISS:          0
cpu0_L1I PREFETCH  ACCESS:          0  HIT:          0  MISS:          0
cpu0_L1I WRITEBACK ACCESS:          0  HIT:          0  MISS:          0
cpu0_STLB TOTAL     ACCESS:        951  HIT:        949  MISS:          2
cpu0_STLB LOAD      ACCESS:        898  HIT:        896  MISS:          2
cpu0_STLB RFO       ACCESS:         53  HIT:         53  MISS:          0
cpu0_STLB PREFETCH  ACCESS:          0  HIT:          0  MISS:          0
cpu0_STLB WRITEBACK ACCESS:          0  HIT:          0  MISS:          0
cpu0_L1D TOTAL     ACCESS:    4176164  HIT:    4159024  MISS:      17140
cpu0_L1D LOAD      ACCESS:    2889018  HIT:    2873271  MISS:      15747
cpu0_L1D RFO       ACCESS:    1287144  HIT:    1285753  MISS:       1391
cpu0_L1D PREFETCH  ACCESS:          0  HIT:          0  MISS:          0
cpu0_L1D WRITEBACK ACCESS:          0  HIT:          0  MISS:          0
cpu0_L2C TOTAL     ACCESS:      19703  HIT:      19535  MISS:        168
cpu0_L2C LOAD      ACCESS:      16129  HIT:      15961  MISS:        168
cpu0_L2C RFO       ACCESS:       1391  HIT:       1391  MISS:          0
cpu0_L2C PREFETCH  ACCESS:          0  HIT:          0  MISS:          0
cpu0_L2C WRITEBACK ACCESS:       2181  HIT:       2181  MISS:          0
LLC TOTAL     ACCESS:        169  HIT:          5  MISS:        164
LLC LOAD      ACCESS:        168  HIT:          4  MISS:        164
LLC RFO       ACCESS:          0  HIT:          0  MISS:          0
LLC PREFETCH  ACCESS:          0  HIT:          0  MISS:          0
LLC WRITEBACK ACCESS:          1  HIT:          1  MISS:          0
Heartbeat CPU 0 instructions: 62000003 cycles: 28221823 heartbeat IPC: 0.860488 cumulative IPC: 0.921513 (Simulation time: 0 hr 46 min 7 sec) 

Region of Interest Statistics
cpu0_DTLB TOTAL     ACCESS:    3759192  HIT:    3758258  MISS:        934
cpu0_DTLB LOAD      ACCESS:    2858060  HIT:    2857189  MISS:        871
cpu0_DTLB RFO       ACCESS:     901132  HIT:     901069  MISS:         63
cpu0_DTLB PREFETCH  ACCESS:          0  HIT:          0  MISS:          0
cpu0_DTLB WRITEBACK ACCESS:          0  HIT:          0  MISS:          0
cpu0_ITLB TOTAL     ACCESS:    1429153  HIT:    1428997  MISS:        156
cpu0_ITLB LOAD      ACCESS:    1429153  HIT:    1428997  MISS:        156
cpu0_ITLB RFO       ACCESS:          0  HIT:          0  MISS:          0
cpu0_ITLB PREFETCH  ACCESS:          0  HIT:          0  MISS:          0
cpu0_ITLB WRITEBACK ACCESS:          0  HIT:          0  MISS:          0
cpu0_L1I TOTAL     ACCESS:     295806  HIT:     295351  MISS:        455
cpu0_L1I LOAD      ACCESS:     295806  HIT:     295351  MISS:        455
cpu0_L1I RFO       ACCESS:          0  HIT:          0  MISS:          0
cpu0_L1I PREFETCH  ACCESS:          0  HIT:          0  MISS:          0
cpu0_L1I WRITEBACK ACCESS:          0  HIT:          0  MISS:          0
cpu0_STLB TOTAL     ACCESS:       1090  HIT:       1087  MISS:          3
cpu0_STLB LOAD      ACCESS:       1027  HIT:       1024  MISS:          3
cpu0_STLB RFO       ACCESS:         63  HIT:         63  MISS:          0
cpu0_STLB PREFETCH  ACCESS:          0  HIT:          0  MISS:          0
cpu0_STLB WRITEBACK ACCESS:          0  HIT:          0  MISS:          0
cpu0_L1D TOTAL     ACCESS:    5048634  HIT:    5027700  MISS:      20934
cpu0_L1D LOAD      ACCESS:    3486582  HIT:    3467371  MISS:      19211
cpu0_L1D RFO       ACCESS:    1562049  HIT:    1560329  MISS:       1720
cpu0_L1D PREFETCH  ACCESS:          0  HIT:          0  MISS:          0
cpu0_L1D WRITEBACK ACCESS:          0  HIT:          0  MISS:          0
cpu0_L2C TOTAL     ACCESS:      23905  HIT:      23700  MISS:        205
cpu0_L2C LOAD      ACCESS:      19666  HIT:      19461  MISS:        205
cpu0_L2C RFO       ACCESS:       1720  HIT:       1720  MISS:          0
cpu0_L2C PREFETCH  ACCESS:          0  HIT:          0  MISS:          0
cpu0_L2C WRITEBACK ACCESS:       2516  HIT:       2516  MISS:          0
LLC TOTAL     ACCESS:        206  HIT:          5  MISS:        201
LLC LOAD      ACCESS:        205  HIT:          4  MISS:        201
LLC RFO       ACCESS:          0  HIT:          0  MISS:          0
LLC PREFETCH  ACCESS:          0  HIT:          0  MISS:          0
LLC WRITEBACK ACCESS:          1  HIT:          1  MISS:          0
Heartbeat CPU 0 instructions: 64000004 cycles: 30447501 heartbeat IPC: 0.898603 cumulative IPC: 0.918168 (Simulation time: 0 hr 47 min 30 sec) 

Region of Interest Statistics
cpu0_DTLB TOTAL     ACCESS:    4385192  HIT:    4384095  MISS:       1097
cpu0_DTLB LOAD      ACCESS:    3332959  HIT:    3331936  MISS:       1023
cpu0_DTLB RFO       ACCESS:    1052233  HIT:    1052159  MISS:         74
cpu0_DTLB PREFETCH  ACCESS:          0  HIT:          0  MISS:          0
cpu0_DTLB WRITEBACK ACCESS:          0  HIT:          0  MISS:          0
cpu0_ITLB TOTAL     ACCESS:    1664409  HIT:    1664234  MISS:        175
cpu0_ITLB LOAD      ACCESS:    1664409  HIT:    1664234  MISS:        175
cpu0_ITLB RFO       ACCESS:          0  HIT:          0  MISS:          0
cpu0_ITLB PREFETCH  ACCESS:          0  HIT:          0  MISS:          0
cpu0_ITLB WRITEBACK ACCESS:          0  HIT:          0  MISS:          0
cpu0_L1I TOTAL     ACCESS:     345689  HIT:     345168  MISS:        521
cpu0_L1I LOAD      ACCESS:     345689  HIT:     345168  MISS:        521
cpu0_L1I RFO       ACCESS:          0  HIT:          0  MISS:          0
cpu0_L1I PREFETCH  ACCESS:          0  HIT:          0  MISS:          0
cpu0_L1I WRITEBACK ACCESS:          0  HIT:          0  MISS:          0
cpu0_STLB TOTAL     ACCESS:       1272  HIT:       1269  MISS:          3
cpu0_STLB LOAD      ACCESS:       1198  HIT:       1195  MISS:          3
cpu0_STLB RFO       ACCESS:         74  HIT:         74  MISS:          0
cpu0_STLB PREFETCH  ACCESS:          0  HIT:          0  MISS:          0
cpu0_STLB WRITEBACK ACCESS:          0  HIT:          0  MISS:          0
cpu0_L1D TOTAL     ACCESS:    5894609  HIT:    5869535  MISS:      25074
cpu0_L1D LOAD      ACCESS:    4064050  HIT:    4040965  MISS:      23085
cpu0_L1D RFO       ACCESS:    1830556  HIT:    1828570  MISS:       1986
cpu0_L1D PREFETCH  ACCESS:          0  HIT:          0  MISS:          0
cpu0_L1D WRITEBACK ACCESS:          0  HIT:          0  MISS:          0
cpu0_L2C TOTAL     ACCESS:      28712  HIT:      28479  MISS:        233
cpu0_L2C LOAD      ACCESS:      23606  HIT:      23373  MISS:        233
cpu0_L2C RFO       ACCESS:       1986  HIT:       1986  MISS:          0
cpu0_L2C PREFETCH  ACCESS:          0  HIT:          0  MISS:          0
cpu0_L2C WRITEBACK ACCESS:       3117  HIT:       3117  MISS:          0
LLC TOTAL     ACCESS:        234  HIT:          5  MISS:        229
LLC LOAD      ACCESS:        233  HIT:          4  MISS:        229
LLC RFO       ACCESS:          0  HIT:          0  MISS:          0
LLC PREFETCH  ACCESS:          0  HIT:          0  MISS:          0
LLC WRITEBACK ACCESS:          1  HIT:          1  MISS:          0
Heartbeat CPU 0 instructions: 66000000 cycles: 32282465 heartbeat IPC: 1.08994 cumulative IPC: 0.936619 (Simulation time: 0 hr 48 min 49 sec) 

Region of Interest Statistics
cpu0_DTLB TOTAL     ACCESS:    4973014  HIT:    4971736  MISS:       1278
cpu0_DTLB LOAD      ACCESS:    3784398  HIT:    3783206  MISS:       1192
cpu0_DTLB RFO       ACCESS:    1188616  HIT:    1188530  MISS:         86
cpu0_DTLB PREFETCH  ACCESS:          0  HIT:          0  MISS:          0
cpu0_DTLB WRITEBACK ACCESS:          0  HIT:          0  MISS:          0
cpu0_ITLB TOTAL     ACCESS:    1880702  HIT:    1880477  MISS:        225
cpu0_ITLB LOAD      ACCESS:    1880702  HIT:    1880477  MISS:        225
cpu0_ITLB RFO       ACCESS:          0  HIT:          0  MISS:          0
cpu0_ITLB PREFETCH  ACCESS:          0  HIT:          0  MISS:          0
cpu0_ITLB WRITEBACK ACCESS:          0  HIT:          0  MISS:          0
cpu0_L1I TOTAL     ACCESS:     425614  HIT:     425079  MISS:        535
cpu0_L1I LOAD      ACCESS:     425614  HIT:     425079  MISS:        535
cpu0_L1I RFO       ACCESS:          0  HIT:          0  MISS:          0
cpu0_L1I PREFETCH  ACCESS:          0  HIT:          0  MISS:          0
cpu0_L1I WRITEBACK ACCESS:          0  HIT:          0  MISS:          0
cpu0_STLB TOTAL     ACCESS:       1503  HIT:       1499  MISS:          4
cpu0_STLB LOAD      ACCESS:       1417  HIT:       1413  MISS:          4
cpu0_STLB RFO       ACCESS:         86  HIT:         86  MISS:          0
cpu0_STLB PREFETCH  ACCESS:          0  HIT:          0  MISS:          0
cpu0_STLB WRITEBACK ACCESS:          0  HIT:          0  MISS:          0
cpu0_L1D TOTAL     ACCESS:    6680735  HIT:    6653933  MISS:      26802
cpu0_L1D LOAD      ACCESS:    4627310  HIT:    4602702  MISS:      24608
cpu0_L1D RFO       ACCESS:    2053421  HIT:    2051231  MISS:       2190
cpu0_L1D PREFETCH  ACCESS:          0  HIT:          0  MISS:          0
cpu0_L1D WRITEBACK ACCESS:          0  HIT:          0  MISS:          0
cpu0_L2C TOTAL     ACCESS:      30562  HIT:      30261  MISS:        301
cpu0_L2C LOAD      ACCESS:      25143  HIT:      24842  MISS:        301
cpu0_L2C RFO       ACCESS:       2190  HIT:       2190  MISS:          0
cpu0_L2C PREFETCH  ACCESS:          0  HIT:          0  MISS:          0
cpu0_L2C WRITEBACK ACCESS:       3225  HIT:       3225  MISS:          0
LLC TOTAL     ACCESS:        302  HIT:          5  MISS:        297
LLC LOAD      ACCESS:        301  HIT:          4  MISS:        297
LLC RFO       ACCESS:          0  HIT:          0  MISS:          0
LLC PREFETCH  ACCESS:          0  HIT:          0  MISS:          0
LLC WRITEBACK ACCESS:          1  HIT:          1  MISS:          0
Heartbeat CPU 0 instructions: 68000001 cycles: 33766621 heartbeat IPC: 1.34757 cumulative IPC: 0.969469 (Simulation time: 0 hr 50 min 11 sec) 

Region of Interest Statistics
cpu0_DTLB TOTAL     ACCESS:    5509059  HIT:    5507564  MISS:       1495
cpu0_DTLB LOAD      ACCESS:    4199210  HIT:    4197814  MISS:       1396
cpu0_DTLB RFO       ACCESS:    1309849  HIT:    1309750  MISS:         99
cpu0_DTLB PREFETCH  ACCESS:          0  HIT:          0  MISS:          0
cpu0_DTLB WRITEBACK ACCESS:          0  HIT:          0  MISS:          0
cpu0_ITLB TOTAL     ACCESS:    2063835  HIT:    2063542  MISS:        293
cpu0_ITLB LOAD      ACCESS:    2063835  HIT:    2063542  MISS:        293
cpu0_ITLB RFO       ACCESS:          0  HIT:          0  MISS:          0
cpu0_ITLB PREFETCH  ACCESS:          0  HIT:          0  MISS:          0
cpu0_ITLB WRITEBACK ACCESS:          0  HIT:          0  MISS:          0
cpu0_L1I TOTAL     ACCESS:     543849  HIT:     543314  MISS:        535
cpu0_L1I LOAD      ACCESS:     543849  HIT:     543314  MISS:        535
cpu0_L1I RFO       ACCESS:          0  HIT:          0  MISS:          0
cpu0_L1I PREFETCH  ACCESS:          0  HIT:          0  MISS:          0
cpu0_L1I WRITEBACK ACCESS:          0  HIT:          0  MISS:          0
cpu0_STLB TOTAL     ACCESS:       1788  HIT:       1784  MISS:          4
cpu0_STLB LOAD      ACCESS:       1689  HIT:       1685  MISS:          4
cpu0_STLB RFO       ACCESS:         99  HIT:         99  MISS:          0
cpu0_STLB PREFETCH  ACCESS:          0  HIT:          0  MISS:          0
cpu0_STLB WRITEBACK ACCESS:          0  HIT:          0  MISS:          0
cpu0_L1D TOTAL     ACCESS:    7400780  HIT:    7373593  MISS:      27187
cpu0_L1D LOAD      ACCESS:    5156851  HIT:    5131862  MISS:      24989
cpu0_L1D RFO       ACCESS:    2243925  HIT:    2241731  MISS:       2194
cpu0_L1D PREFETCH  ACCESS:          0  HIT:          0  MISS:          0
cpu0_L1D WRITEBACK ACCESS:          0  HIT:          0  MISS:          0
cpu0_L2C TOTAL     ACCESS:      31045  HIT:      30672  MISS:        373
cpu0_L2C LOAD      ACCESS:      25524  HIT:      25151  MISS:        373
cpu0_L2C RFO       ACCESS:       2194  HIT:       2194  MISS:          0
cpu0_L2C PREFETCH  ACCESS:          0  HIT:          0  MISS:          0
cpu0_L2C WRITEBACK ACCESS:       3323  HIT:       3323  MISS:          0
LLC TOTAL     ACCESS:        374  HIT:          5  MISS:        369
LLC LOAD      ACCESS:        373  HIT:          4  MISS:        369
LLC RFO       ACCESS:          0  HIT:          0  MISS:          0
LLC PREFETCH  ACCESS:          0  HIT:          0  MISS:          0
LLC WRITEBACK ACCESS:          1  HIT:          1  MISS:          0
Heartbeat CPU 0 instructions: 70000002 cycles: 35545736 heartbeat IPC: 1.12416 cumulative IPC: 0.982995 (Simulation time: 0 hr 51 min 32 sec) 

Region of Interest Statistics
cpu0_DTLB TOTAL     ACCESS:    6075615  HIT:    6073920  MISS:       1695
cpu0_DTLB LOAD      ACCESS:    4633467  HIT:    4631883  MISS:       1584
cpu0_DTLB RFO       ACCESS:    1442148  HIT:    1442037  MISS:        111
cpu0_DTLB PREFETCH  ACCESS:          0  HIT:          0  MISS:          0
cpu0_DTLB WRITEBACK ACCESS:          0  HIT:          0  MISS:          0
cpu0_ITLB TOTAL     ACCESS:    2265390  HIT:    2265043  MISS:        347
cpu0_ITLB LOAD      ACCESS:    2265390  HIT:    2265043  MISS:        347
cpu0_ITLB RFO       ACCESS:          0  HIT:          0  MISS:          0
cpu0_ITLB PREFETCH  ACCESS:          0  HIT:          0  MISS:          0
cpu0_ITLB WRITEBACK ACCESS:          0  HIT:          0  MISS:          0
cpu0_L1I TOTAL     ACCESS:     637302  HIT:     636750  MISS:        552
cpu0_L1I LOAD      ACCESS:     637302  HIT:     636750  MISS:        552
cpu0_L1I RFO       ACCESS:          0  HIT:          0  MISS:          0
cpu0_L1I PREFETCH  ACCESS:          0  HIT:          0  MISS:          0
cpu0_L1I WRITEBACK ACCESS:          0  HIT:          0  MISS:          0
cpu0_STLB TOTAL     ACCESS:       2042  HIT:       2038  MISS:          4
cpu0_STLB LOAD      ACCESS:       1931  HIT:       1927  MISS:          4
cpu0_STLB RFO       ACCESS:        111  HIT:        111  MISS:          0
cpu0_STLB PREFETCH  ACCESS:          0  HIT:          0  MISS:          0
cpu0_STLB WRITEBACK ACCESS:          0  HIT:          0  MISS:          0
cpu0_L1D TOTAL     ACCESS:    8165347  HIT:    8136183  MISS:      29164
cpu0_L1D LOAD      ACCESS:    5699202  HIT:    5672369  MISS:      26833
cpu0_L1D RFO       ACCESS:    2466141  HIT:    2463814  MISS:       2327
cpu0_L1D PREFETCH  ACCESS:          0  HIT:          0  MISS:          0
cpu0_L1D WRITEBACK ACCESS:          0  HIT:          0  MISS:          0
cpu0_L2C TOTAL     ACCESS:      33505  HIT:      33098  MISS:        407
cpu0_L2C LOAD      ACCESS:      27385  HIT:      26978  MISS:        407
cpu0_L2C RFO       ACCESS:       2327  HIT:       2327  MISS:          0
cpu0_L2C PREFETCH  ACCESS:          0  HIT:          0  MISS:          0
cpu0_L2C WRITEBACK ACCESS:       3789  HIT:       3789  MISS:          0
LLC TOTAL     ACCESS:        408  HIT:          5  MISS:        403
LLC LOAD      ACCESS:        407  HIT:          4  MISS:        403
LLC RFO       ACCESS:          0  HIT:          0  MISS:          0
LLC PREFETCH  ACCESS:          0  HIT:          0  MISS:          0
LLC WRITEBACK ACCESS:          1  HIT:          1  MISS:          0
Heartbeat CPU 0 instructions: 72000000 cycles: 37674114 heartbeat IPC: 0.939682 cumulative IPC: 0.978893 (Simulation time: 0 hr 52 min 50 sec) 

Region of Interest Statistics
cpu0_DTLB TOTAL     ACCESS:    6697361  HIT:    6695507  MISS:       1854
cpu0_DTLB LOAD      ACCESS:    5106980  HIT:    5105249  MISS:       1731
cpu0_DTLB RFO       ACCESS:    1590381  HIT:    1590258  MISS:        123
cpu0_DTLB PREFETCH  ACCESS:          0  HIT:          0  MISS:          0
cpu0_DTLB WRITEBACK ACCESS:          0  HIT:          0  MISS:          0
cpu0_ITLB TOTAL     ACCESS:    2500754  HIT:    2500377  MISS:        377
cpu0_ITLB LOAD      ACCESS:    2500754  HIT:    2500377  MISS:        377
cpu0_ITLB RFO       ACCESS:          0  HIT:          0  MISS:          0
cpu0_ITLB PREFETCH  ACCESS:          0  HIT:          0  MISS:          0
cpu0_ITLB WRITEBACK ACCESS:          0  HIT:          0  MISS:          0
cpu0_L1I TOTAL     ACCESS:     691010  HIT:     690406  MISS:        604
cpu0_L1I LOAD      ACCESS:     691010  HIT:     690406  MISS:        604
cpu0_L1I RFO       ACCESS:          0  HIT:          0  MISS:          0
cpu0_L1I PREFETCH  ACCESS:          0  HIT:          0  MISS:          0
cpu0_L1I WRITEBACK ACCESS:          0  HIT:          0  MISS:          0
cpu0_STLB TOTAL     ACCESS:       2231  HIT:       2226  MISS:          5
cpu0_STLB LOAD      ACCESS:       2108  HIT:       2103  MISS:          5
cpu0_STLB RFO       ACCESS:        123  HIT:        123  MISS:          0
cpu0_STLB PREFETCH  ACCESS:          0  HIT:          0  MISS:          0
cpu0_STLB WRITEBACK ACCESS:          0  HIT:          0  MISS:          0
cpu0_L1D TOTAL     ACCESS:    8999752  HIT:    8967276  MISS:      32476
cpu0_L1D LOAD      ACCESS:    6278503  HIT:    6248654  MISS:      29849
cpu0_L1D RFO       ACCESS:    2721244  HIT:    2718622  MISS:       2622
cpu0_L1D PREFETCH  ACCESS:          0  HIT:          0  MISS:          0
cpu0_L1D WRITEBACK ACCESS:          0  HIT:          0  MISS:          0
cpu0_L2C TOTAL     ACCESS:      37320  HIT:      36881  MISS:        439
cpu0_L2C LOAD      ACCESS:      30453  HIT:      30014  MISS:        439
cpu0_L2C RFO       ACCESS:       2622  HIT:       2622  MISS:          0
cpu0_L2C PREFETCH  ACCESS:          0  HIT:          0  MISS:          0
cpu0_L2C WRITEBACK ACCESS:       4240  HIT:       4240  MISS:          0
LLC TOTAL     ACCESS:        440  HIT:          5  MISS:        435
LLC LOAD      ACCESS:        439  HIT:          4  MISS:        435
LLC RFO       ACCESS:          0  HIT:          0  MISS:          0
LLC PREFETCH  ACCESS:          0  HIT:          0  MISS:          0
LLC WRITEBACK ACCESS:          1  HIT:          1  MISS:          0
Heartbeat CPU 0 instructions: 74000001 cycles: 39871806 heartbeat IPC: 0.910046 cumulative IPC: 0.97276 (Simulation time: 0 hr 54 min 8 sec) 

Region of Interest Statistics
cpu0_DTLB TOTAL     ACCESS:    7330051  HIT:    7328038  MISS:       2013
cpu0_DTLB LOAD      ACCESS:    5587675  HIT:    5585797  MISS:       1878
cpu0_DTLB RFO       ACCESS:    1742376  HIT:    1742241  MISS:        135
cpu0_DTLB PREFETCH  ACCESS:          0  HIT:          0  MISS:          0
cpu0_DTLB WRITEBACK ACCESS:          0  HIT:          0  MISS:          0
cpu0_ITLB TOTAL     ACCESS:    2743664  HIT:    2743260  MISS:        404
cpu0_ITLB LOAD      ACCESS:    2743664  HIT:    2743260  MISS:        404
cpu0_ITLB RFO       ACCESS:          0  HIT:          0  MISS:          0
cpu0_ITLB PREFETCH  ACCESS:          0  HIT:          0  MISS:          0
cpu0_ITLB WRITEBACK ACCESS:          0  HIT:          0  MISS:          0
cpu0_L1I TOTAL     ACCESS:     735468  HIT:     734779  MISS:        689
cpu0_L1I LOAD      ACCESS:     735468  HIT:     734779  MISS:        689
cpu0_L1I RFO       ACCESS:          0  HIT:          0  MISS:          0
cpu0_L1I PREFETCH  ACCESS:          0  HIT:          0  MISS:          0
cpu0_L1I WRITEBACK ACCESS:          0  HIT:          0  MISS:          0
cpu0_STLB TOTAL     ACCESS:       2417  HIT:       2412  MISS:          5
cpu0_STLB LOAD      ACCESS:       2282  HIT:       2277  MISS:          5
cpu0_STLB RFO       ACCESS:        135  HIT:        135  MISS:          0
cpu0_STLB PREFETCH  ACCESS:          0  HIT:          0  MISS:          0
cpu0_STLB WRITEBACK ACCESS:          0  HIT:          0  MISS:          0
cpu0_L1D TOTAL     ACCESS:    9847306  HIT:    9811053  MISS:      36253
cpu0_L1D LOAD      ACCESS:    6863440  HIT:    6830212  MISS:      33228
cpu0_L1D RFO       ACCESS:    2983861  HIT:    2980841  MISS:       3020
cpu0_L1D PREFETCH  ACCESS:          0  HIT:          0  MISS:          0
cpu0_L1D WRITEBACK ACCESS:          0  HIT:          0  MISS:          0
cpu0_L2C TOTAL     ACCESS:      41536  HIT:      41086  MISS:        450
cpu0_L2C LOAD      ACCESS:      33917  HIT:      33467  MISS:        450
cpu0_L2C RFO       ACCESS:       3020  HIT:       3020  MISS:          0
cpu0_L2C PREFETCH  ACCESS:          0  HIT:          0  MISS:          0
cpu0_L2C WRITEBACK ACCESS:       4594  HIT:       4594  MISS:          0
LLC TOTAL     ACCESS:        451  HIT:          6  MISS:        445
LLC LOAD      ACCESS:        450  HIT:          5  MISS:        445
LLC RFO       ACCESS:          0  HIT:          0  MISS:          0
LLC PREFETCH  ACCESS:          0  HIT:          0  MISS:          0
LLC WRITEBACK ACCESS:          1  HIT:          1  MISS:          0
Heartbeat CPU 0 instructions: 76000000 cycles: 41990758 heartbeat IPC: 0.943862 cumulative IPC: 0.970475 (Simulation time: 0 hr 55 min 34 sec) 

Region of Interest Statistics
cpu0_DTLB TOTAL     ACCESS:    7939043  HIT:    7936849  MISS:       2194
cpu0_DTLB LOAD      ACCESS:    6050464  HIT:    6048417  MISS:       2047
cpu0_DTLB RFO       ACCESS:    1888579  HIT:    1888432  MISS:        147
cpu0_DTLB PREFETCH  ACCESS:          0  HIT:          0  MISS:          0
cpu0_DTLB WRITEBACK ACCESS:          0  HIT:          0  MISS:          0
cpu0_ITLB TOTAL     ACCESS:    2968682  HIT:    2968250  MISS:        432
cpu0_ITLB LOAD      ACCESS:    2968682  HIT:    2968250  MISS:        432
cpu0_ITLB RFO       ACCESS:          0  HIT:          0  MISS:          0
cpu0_ITLB PREFETCH  ACCESS:          0  HIT:          0  MISS:          0
cpu0_ITLB WRITEBACK ACCESS:          0  HIT:          0  MISS:          0
cpu0_L1I TOTAL     ACCESS:     797653  HIT:     796915  MISS:        738
cpu0_L1I LOAD      ACCESS:     797653  HIT:     796915  MISS:        738
cpu0_L1I RFO       ACCESS:          0  HIT:          0  MISS:          0
cpu0_L1I PREFETCH  ACCESS:          0  HIT:          0  MISS:          0
cpu0_L1I WRITEBACK ACCESS:          0  HIT:          0  MISS:          0
cpu0_STLB TOTAL     ACCESS:       2626  HIT:       2621  MISS:          5
cpu0_STLB LOAD      ACCESS:       2479  HIT:       2474  MISS:          5
cpu0_STLB RFO       ACCESS:        147  HIT:        147  MISS:          0
cpu0_STLB PREFETCH  ACCESS:          0  HIT:          0  MISS:          0
cpu0_STLB WRITEBACK ACCESS:          0  HIT:          0  MISS:          0
cpu0_L1D TOTAL     ACCESS:   10671173  HIT:   10630974  MISS:      40199
cpu0_L1D LOAD      ACCESS:    7429154  HIT:    7392272  MISS:      36882
cpu0_L1D RFO       ACCESS:    3242014  HIT:    3238702  MISS:       3312
cpu0_L1D PREFETCH  ACCESS:          0  HIT:          0  MISS:          0
cpu0_L1D WRITEBACK ACCESS:          0  HIT:          0  MISS:          0
cpu0_L2C TOTAL     ACCESS:      46232  HIT:      45770  MISS:        462
cpu0_L2C LOAD      ACCESS:      37620  HIT:      37158  MISS:        462
cpu0_L2C RFO       ACCESS:       3312  HIT:       3312  MISS:          0
cpu0_L2C PREFETCH  ACCESS:          0  HIT:          0  MISS:          0
cpu0_L2C WRITEBACK ACCESS:       5295  HIT:       5295  MISS:          0
LLC TOTAL     ACCESS:        463  HIT:          6  MISS:        457
LLC LOAD      ACCESS:        462  HIT:          5  MISS:        457
LLC RFO       ACCESS:          0  HIT:          0  MISS:          0
LLC PREFETCH  ACCESS:          0  HIT:          0  MISS:          0
LLC WRITEBACK ACCESS:          1  HIT:          1  MISS:          0
Heartbeat CPU 0 instructions: 78000000 cycles: 44343072 heartbeat IPC: 0.850227 cumulative IPC: 0.960769 (Simulation time: 0 hr 56 min 52 sec) 

Region of Interest Statistics
cpu0_DTLB TOTAL     ACCESS:    8597007  HIT:    8594691  MISS:       2316
cpu0_DTLB LOAD      ACCESS:    6549534  HIT:    6547373  MISS:       2161
cpu0_DTLB RFO       ACCESS:    2047473  HIT:    2047318  MISS:        155
cpu0_DTLB PREFETCH  ACCESS:          0  HIT:          0  MISS:          0
cpu0_DTLB WRITEBACK ACCESS:          0  HIT:          0  MISS:          0
cpu0_ITLB TOTAL     ACCESS:    3226606  HIT:    3226161  MISS:        445
cpu0_ITLB LOAD      ACCESS:    3226606  HIT:    3226161  MISS:        445
cpu0_ITLB RFO       ACCESS:          0  HIT:          0  MISS:          0
cpu0_ITLB PREFETCH  ACCESS:          0  HIT:          0  MISS:          0
cpu0_ITLB WRITEBACK ACCESS:          0  HIT:          0  MISS:          0
cpu0_L1I TOTAL     ACCESS:     824474  HIT:     823669  MISS:        805
cpu0_L1I LOAD      ACCESS:     824474  HIT:     823669  MISS:        805
cpu0_L1I RFO       ACCESS:          0  HIT:          0  MISS:          0
cpu0_L1I PREFETCH  ACCESS:          0  HIT:          0  MISS:          0
cpu0_L1I WRITEBACK ACCESS:          0  HIT:          0  MISS:          0
cpu0_STLB TOTAL     ACCESS:       2761  HIT:       2756  MISS:          5
cpu0_STLB LOAD      ACCESS:       2606  HIT:       2601  MISS:          5
cpu0_STLB RFO       ACCESS:        155  HIT:        155  MISS:          0
cpu0_STLB PREFETCH  ACCESS:          0  HIT:          0  MISS:          0
cpu0_STLB WRITEBACK ACCESS:          0  HIT:          0  MISS:          0
cpu0_L1D TOTAL     ACCESS:   11552651  HIT:   11508928  MISS:      43723
cpu0_L1D LOAD      ACCESS:    8032797  HIT:    7992591  MISS:      40206
cpu0_L1D RFO       ACCESS:    3519849  HIT:    3516337  MISS:       3512
cpu0_L1D PREFETCH  ACCESS:          0  HIT:          0  MISS:          0
cpu0_L1D WRITEBACK ACCESS:          0  HIT:          0  MISS:          0
cpu0_L2C TOTAL     ACCESS:      50161  HIT:      49684  MISS:        477
cpu0_L2C LOAD      ACCESS:      41011  HIT:      40534  MISS:        477
cpu0_L2C RFO       ACCESS:       3512  HIT:       3512  MISS:          0
cpu0_L2C PREFETCH  ACCESS:          0  HIT:          0  MISS:          0
cpu0_L2C WRITEBACK ACCESS:       5633  HIT:       5633  MISS:          0
LLC TOTAL     ACCESS:        478  HIT:          6  MISS:        472
LLC LOAD      ACCESS:        477  HIT:          5  MISS:        472
LLC RFO       ACCESS:          0  HIT:          0  MISS:          0
LLC PREFETCH  ACCESS:          0  HIT:          0  MISS:          0
LLC WRITEBACK ACCESS:          1  HIT:          1  MISS:          0
Heartbeat CPU 0 instructions: 80000001 cycles: 46536983 heartbeat IPC: 0.911614 cumulative IPC: 0.957328 (Simulation time: 0 hr 58 min 14 sec) 

Region of Interest Statistics
cpu0_DTLB TOTAL     ACCESS:    9216508  HIT:    9214013  MISS:       2495
cpu0_DTLB LOAD      ACCESS:    7019225  HIT:    7016897  MISS:       2328
cpu0_DTLB RFO       ACCESS:    2197283  HIT:    2197116  MISS:        167
cpu0_DTLB PREFETCH  ACCESS:          0  HIT:          0  MISS:          0
cpu0_DTLB WRITEBACK ACCESS:          0  HIT:          0  MISS:          0
cpu0_ITLB TOTAL     ACCESS:    3458865  HIT:    3458396  MISS:        469
cpu0_ITLB LOAD      ACCESS:    3458865  HIT:    3458396  MISS:        469
cpu0_ITLB RFO       ACCESS:          0  HIT:          0  MISS:          0
cpu0_ITLB PREFETCH  ACCESS:          0  HIT:          0  MISS:          0
cpu0_ITLB WRITEBACK ACCESS:          0  HIT:          0  MISS:          0
cpu0_L1I TOTAL     ACCESS:     877808  HIT:     876857  MISS:        951
cpu0_L1I LOAD      ACCESS:     877808  HIT:     876857  MISS:        951
cpu0_L1I RFO       ACCESS:          0  HIT:          0  MISS:          0
cpu0_L1I PREFETCH  ACCESS:          0  HIT:          0  MISS:          0
cpu0_L1I WRITEBACK ACCESS:          0  HIT:          0  MISS:          0
cpu0_STLB TOTAL     ACCESS:       2964  HIT:       2959  MISS:          5
cpu0_STLB LOAD      ACCESS:       2797  HIT:       2792  MISS:          5
cpu0_STLB RFO       ACCESS:        167  HIT:        167  MISS:          0
cpu0_STLB PREFETCH  ACCESS:          0  HIT:          0  MISS:          0
cpu0_STLB WRITEBACK ACCESS:          0  HIT:          0  MISS:          0
cpu0_L1D TOTAL     ACCESS:   12388894  HIT:   12340719  MISS:      48175
cpu0_L1D LOAD      ACCESS:    8603710  HIT:    8559449  MISS:      44261
cpu0_L1D RFO       ACCESS:    3785179  HIT:    3781270  MISS:       3909
cpu0_L1D PREFETCH  ACCESS:          0  HIT:          0  MISS:          0
cpu0_L1D WRITEBACK ACCESS:          0  HIT:          0  MISS:          0
cpu0_L2C TOTAL     ACCESS:      55373  HIT:      54879  MISS:        494
cpu0_L2C LOAD      ACCESS:      45212  HIT:      44718  MISS:        494
cpu0_L2C RFO       ACCESS:       3909  HIT:       3909  MISS:          0
cpu0_L2C PREFETCH  ACCESS:          0  HIT:          0  MISS:          0
cpu0_L2C WRITEBACK ACCESS:       6247  HIT:       6247  MISS:          0
LLC TOTAL     ACCESS:        495  HIT:          8  MISS:        487
LLC LOAD      ACCESS:        494  HIT:          7  MISS:        487
LLC RFO       ACCESS:          0  HIT:          0  MISS:          0
LLC PREFETCH  ACCESS:          0  HIT:          0  MISS:          0
LLC WRITEBACK ACCESS:          1  HIT:          1  MISS:          0
Heartbeat CPU 0 instructions: 82000000 cycles: 48444581 heartbeat IPC: 1.04844 cumulative IPC: 0.962556 (Simulation time: 0 hr 59 min 30 sec) 

Region of Interest Statistics
cpu0_DTLB TOTAL     ACCESS:    9815732  HIT:    9813027  MISS:       2705
cpu0_DTLB LOAD      ACCESS:    7477802  HIT:    7475281  MISS:       2521
cpu0_DTLB RFO       ACCESS:    2337930  HIT:    2337746  MISS:        184
cpu0_DTLB PREFETCH  ACCESS:          0  HIT:          0  MISS:          0
cpu0_DTLB WRITEBACK ACCESS:          0  HIT:          0  MISS:          0
cpu0_ITLB TOTAL     ACCESS:    3682080  HIT:    3681567  MISS:        513
cpu0_ITLB LOAD      ACCESS:    3682080  HIT:    3681567  MISS:        513
cpu0_ITLB RFO       ACCESS:          0  HIT:          0  MISS:          0
cpu0_ITLB PREFETCH  ACCESS:          0  HIT:          0  MISS:          0
cpu0_ITLB WRITEBACK ACCESS:          0  HIT:          0  MISS:          0
cpu0_L1I TOTAL     ACCESS:     946204  HIT:     945210  MISS:        994
cpu0_L1I LOAD      ACCESS:     946204  HIT:     945210  MISS:        994
cpu0_L1I RFO       ACCESS:          0  HIT:          0  MISS:          0
cpu0_L1I PREFETCH  ACCESS:          0  HIT:          0  MISS:          0
cpu0_L1I WRITEBACK ACCESS:          0  HIT:          0  MISS:          0
cpu0_STLB TOTAL     ACCESS:       3218  HIT:       3213  MISS:          5
cpu0_STLB LOAD      ACCESS:       3034  HIT:       3029  MISS:          5
cpu0_STLB RFO       ACCESS:        184  HIT:        184  MISS:          0
cpu0_STLB PREFETCH  ACCESS:          0  HIT:          0  MISS:          0
cpu0_STLB WRITEBACK ACCESS:          0  HIT:          0  MISS:          0
cpu0_L1D TOTAL     ACCESS:   13187082  HIT:   13136484  MISS:      50598
cpu0_L1D LOAD      ACCESS:    9169413  HIT:    9123030  MISS:      46383
cpu0_L1D RFO       ACCESS:    4017664  HIT:    4013454  MISS:       4210
cpu0_L1D PREFETCH  ACCESS:          0  HIT:          0  MISS:          0
cpu0_L1D WRITEBACK ACCESS:          0  HIT:          0  MISS:          0
cpu0_L2C TOTAL     ACCESS:      58063  HIT:      57533  MISS:        530
cpu0_L2C LOAD      ACCESS:      47377  HIT:      46847  MISS:        530
cpu0_L2C RFO       ACCESS:       4210  HIT:       4210  MISS:          0
cpu0_L2C PREFETCH  ACCESS:          0  HIT:          0  MISS:          0
cpu0_L2C WRITEBACK ACCESS:       6471  HIT:       6471  MISS:          0
LLC TOTAL     ACCESS:        531  HIT:          9  MISS:        522
LLC LOAD      ACCESS:        530  HIT:          8  MISS:        522
LLC RFO       ACCESS:          0  HIT:          0  MISS:          0
LLC PREFETCH  ACCESS:          0  HIT:          0  MISS:          0
LLC WRITEBACK ACCESS:          1  HIT:          1  MISS:          0
Heartbeat CPU 0 instructions: 84000004 cycles: 50791084 heartbeat IPC: 0.852334 cumulative IPC: 0.955289 (Simulation time: 1 hr 0 min 51 sec) 

Region of Interest Statistics
cpu0_DTLB TOTAL     ACCESS:   10460666  HIT:   10457843  MISS:       2823
cpu0_DTLB LOAD      ACCESS:    7966533  HIT:    7963901  MISS:       2632
cpu0_DTLB RFO       ACCESS:    2494133  HIT:    2493942  MISS:        191
cpu0_DTLB PREFETCH  ACCESS:          0  HIT:          0  MISS:          0
cpu0_DTLB WRITEBACK ACCESS:          0  HIT:          0  MISS:          0
cpu0_ITLB TOTAL     ACCESS:    3929966  HIT:    3929441  MISS:        525
cpu0_ITLB LOAD      ACCESS:    3929966  HIT:    3929441  MISS:        525
cpu0_ITLB RFO       ACCESS:          0  HIT:          0  MISS:          0
cpu0_ITLB PREFETCH  ACCESS:          0  HIT:          0  MISS:          0
cpu0_ITLB WRITEBACK ACCESS:          0  HIT:          0  MISS:          0
cpu0_L1I TOTAL     ACCESS:     984594  HIT:     983564  MISS:       1030
cpu0_L1I LOAD      ACCESS:     984594  HIT:     983564  MISS:       1030
cpu0_L1I RFO       ACCESS:          0  HIT:          0  MISS:          0
cpu0_L1I PREFETCH  ACCESS:          0  HIT:          0  MISS:          0
cpu0_L1I WRITEBACK ACCESS:          0  HIT:          0  MISS:          0
cpu0_STLB TOTAL     ACCESS:       3348  HIT:       3343  MISS:          5
cpu0_STLB LOAD      ACCESS:       3157  HIT:       3152  MISS:          5
cpu0_STLB RFO       ACCESS:        191  HIT:        191  MISS:          0
cpu0_STLB PREFETCH  ACCESS:          0  HIT:          0  MISS:          0
cpu0_STLB WRITEBACK ACCESS:          0  HIT:          0  MISS:          0
cpu0_L1D TOTAL     ACCESS:   14059022  HIT:   14004478  MISS:      54544
cpu0_L1D LOAD      ACCESS:    9762907  HIT:    9712777  MISS:      50130
cpu0_L1D RFO       ACCESS:    4296110  HIT:    4291701  MISS:       4409
cpu0_L1D PREFETCH  ACCESS:          0  HIT:          0  MISS:          0
cpu0_L1D WRITEBACK ACCESS:          0  HIT:          0  MISS:          0
cpu0_L2C TOTAL     ACCESS:      62633  HIT:      62085  MISS:        548
cpu0_L2C LOAD      ACCESS:      51160  HIT:      50612  MISS:        548
cpu0_L2C RFO       ACCESS:       4409  HIT:       4409  MISS:          0
cpu0_L2C PREFETCH  ACCESS:          0  HIT:          0  MISS:          0
cpu0_L2C WRITEBACK ACCESS:       7059  HIT:       7059  MISS:          0
LLC TOTAL     ACCESS:        549  HIT:          9  MISS:        540
LLC LOAD      ACCESS:        548  HIT:          8  MISS:        540
LLC RFO       ACCESS:          0  HIT:          0  MISS:          0
LLC PREFETCH  ACCESS:          0  HIT:          0  MISS:          0
LLC WRITEBACK ACCESS:          1  HIT:          1  MISS:          0
Heartbeat CPU 0 instructions: 86000001 cycles: 53007043 heartbeat IPC: 0.902542 cumulative IPC: 0.952197 (Simulation time: 1 hr 2 min 8 sec) 

Region of Interest Statistics
cpu0_DTLB TOTAL     ACCESS:   11096222  HIT:   11093218  MISS:       3004
cpu0_DTLB LOAD      ACCESS:    8449080  HIT:    8446282  MISS:       2798
cpu0_DTLB RFO       ACCESS:    2647142  HIT:    2646936  MISS:        206
cpu0_DTLB PREFETCH  ACCESS:          0  HIT:          0  MISS:          0
cpu0_DTLB WRITEBACK ACCESS:          0  HIT:          0  MISS:          0
cpu0_ITLB TOTAL     ACCESS:    4174502  HIT:    4173952  MISS:        550
cpu0_ITLB LOAD      ACCESS:    4174502  HIT:    4173952  MISS:        550
cpu0_ITLB RFO       ACCESS:          0  HIT:          0  MISS:          0
cpu0_ITLB PREFETCH  ACCESS:          0  HIT:          0  MISS:          0
cpu0_ITLB WRITEBACK ACCESS:          0  HIT:          0  MISS:          0
cpu0_L1I TOTAL     ACCESS:    1026238  HIT:    1025090  MISS:       1148
cpu0_L1I LOAD      ACCESS:    1026238  HIT:    1025090  MISS:       1148
cpu0_L1I RFO       ACCESS:          0  HIT:          0  MISS:          0
cpu0_L1I PREFETCH  ACCESS:          0  HIT:          0  MISS:          0
cpu0_L1I WRITEBACK ACCESS:          0  HIT:          0  MISS:          0
cpu0_STLB TOTAL     ACCESS:       3554  HIT:       3549  MISS:          5
cpu0_STLB LOAD      ACCESS:       3348  HIT:       3343  MISS:          5
cpu0_STLB RFO       ACCESS:        206  HIT:        206  MISS:          0
cpu0_STLB PREFETCH  ACCESS:          0  HIT:          0  MISS:          0
cpu0_STLB WRITEBACK ACCESS:          0  HIT:          0  MISS:          0
cpu0_L1D TOTAL     ACCESS:   14910453  HIT:   14852012  MISS:      58441
cpu0_L1D LOAD      ACCESS:   10348517  HIT:   10294880  MISS:      53637
cpu0_L1D RFO       ACCESS:    4561931  HIT:    4557132  MISS:       4799
cpu0_L1D PREFETCH  ACCESS:          0  HIT:          0  MISS:          0
cpu0_L1D WRITEBACK ACCESS:          0  HIT:          0  MISS:          0
cpu0_L2C TOTAL     ACCESS:      66992  HIT:      66436  MISS:        556
cpu0_L2C LOAD      ACCESS:      54785  HIT:      54229  MISS:        556
cpu0_L2C RFO       ACCESS:       4799  HIT:       4799  MISS:          0
cpu0_L2C PREFETCH  ACCESS:          0  HIT:          0  MISS:          0
cpu0_L2C WRITEBACK ACCESS:       7403  HIT:       7403  MISS:          0
LLC TOTAL     ACCESS:        557  HIT:          9  MISS:        548
LLC LOAD      ACCESS:        556  HIT:          8  MISS:        548
LLC RFO       ACCESS:          0  HIT:          0  MISS:          0
LLC PREFETCH  ACCESS:          0  HIT:          0  MISS:          0
LLC WRITEBACK ACCESS:          1  HIT:          1  MISS:          0
Heartbeat CPU 0 instructions: 88000001 cycles: 55039301 heartbeat IPC: 0.984127 cumulative IPC: 0.953826 (Simulation time: 1 hr 3 min 26 sec) 

Region of Interest Statistics
cpu0_DTLB TOTAL     ACCESS:   11704896  HIT:   11701729  MISS:       3167
cpu0_DTLB LOAD      ACCESS:    8914012  HIT:    8911059  MISS:       2953
cpu0_DTLB RFO       ACCESS:    2790884  HIT:    2790670  MISS:        214
cpu0_DTLB PREFETCH  ACCESS:          0  HIT:          0  MISS:          0
cpu0_DTLB WRITEBACK ACCESS:          0  HIT:          0  MISS:          0
cpu0_ITLB TOTAL     ACCESS:    4400963  HIT:    4400379  MISS:        584
cpu0_ITLB LOAD      ACCESS:    4400963  HIT:    4400379  MISS:        584
cpu0_ITLB RFO       ACCESS:          0  HIT:          0  MISS:          0
cpu0_ITLB PREFETCH  ACCESS:          0  HIT:          0  MISS:          0
cpu0_ITLB WRITEBACK ACCESS:          0  HIT:          0  MISS:          0
cpu0_L1I TOTAL     ACCESS:    1091665  HIT:    1090472  MISS:       1193
cpu0_L1I LOAD      ACCESS:    1091665  HIT:    1090472  MISS:       1193
cpu0_L1I RFO       ACCESS:          0  HIT:          0  MISS:          0
cpu0_L1I PREFETCH  ACCESS:          0  HIT:          0  MISS:          0
cpu0_L1I WRITEBACK ACCESS:          0  HIT:          0  MISS:          0
cpu0_STLB TOTAL     ACCESS:       3751  HIT:       3746  MISS:          5
cpu0_STLB LOAD      ACCESS:       3537  HIT:       3532  MISS:          5
cpu0_STLB RFO       ACCESS:        214  HIT:        214  MISS:          0
cpu0_STLB PREFETCH  ACCESS:          0  HIT:          0  MISS:          0
cpu0_STLB WRITEBACK ACCESS:          0  HIT:          0  MISS:          0
cpu0_L1D TOTAL     ACCESS:   15728710  HIT:   15667378  MISS:      61332
cpu0_L1D LOAD      ACCESS:   10922025  HIT:   10865710  MISS:      56315
cpu0_L1D RFO       ACCESS:    4806680  HIT:    4801668  MISS:       5012
cpu0_L1D PREFETCH  ACCESS:          0  HIT:          0  MISS:          0
cpu0_L1D WRITEBACK ACCESS:          0  HIT:          0  MISS:          0
cpu0_L2C TOTAL     ACCESS:      70302  HIT:      69729  MISS:        573
cpu0_L2C LOAD      ACCESS:      57508  HIT:      56935  MISS:        573
cpu0_L2C RFO       ACCESS:       5012  HIT:       5012  MISS:          0
cpu0_L2C PREFETCH  ACCESS:          0  HIT:          0  MISS:          0
cpu0_L2C WRITEBACK ACCESS:       7777  HIT:       7777  MISS:          0
LLC TOTAL     ACCESS:        574  HIT:          9  MISS:        565
LLC LOAD      ACCESS:        573  HIT:          8  MISS:        565
LLC RFO       ACCESS:          0  HIT:          0  MISS:          0
LLC PREFETCH  ACCESS:          0  HIT:          0  MISS:          0
LLC WRITEBACK ACCESS:          1  HIT:          1  MISS:          0
Heartbeat CPU 0 instructions: 90000003 cycles: 56571494 heartbeat IPC: 1.30532 cumulative IPC: 0.966844 (Simulation time: 1 hr 4 min 48 sec) 

Region of Interest Statistics
cpu0_DTLB TOTAL     ACCESS:   12246427  HIT:   12243028  MISS:       3399
cpu0_DTLB LOAD      ACCESS:    9332257  HIT:    9329087  MISS:       3170
cpu0_DTLB RFO       ACCESS:    2914170  HIT:    2913941  MISS:        229
cpu0_DTLB PREFETCH  ACCESS:          0  HIT:          0  MISS:          0
cpu0_DTLB WRITEBACK ACCESS:          0  HIT:          0  MISS:          0
cpu0_ITLB TOTAL     ACCESS:    4588478  HIT:    4587826  MISS:        652
cpu0_ITLB LOAD      ACCESS:    4588478  HIT:    4587826  MISS:        652
cpu0_ITLB RFO       ACCESS:          0  HIT:          0  MISS:          0
cpu0_ITLB PREFETCH  ACCESS:          0  HIT:          0  MISS:          0
cpu0_ITLB WRITEBACK ACCESS:          0  HIT:          0  MISS:          0
cpu0_L1I TOTAL     ACCESS:    1205224  HIT:    1204031  MISS:       1193
cpu0_L1I LOAD      ACCESS:    1205224  HIT:    1204031  MISS:       1193
cpu0_L1I RFO       ACCESS:          0  HIT:          0  MISS:          0
cpu0_L1I PREFETCH  ACCESS:          0  HIT:          0  MISS:          0
cpu0_L1I WRITEBACK ACCESS:          0  HIT:          0  MISS:          0
cpu0_STLB TOTAL     ACCESS:       4051  HIT:       4046  MISS:          5
cpu0_STLB LOAD      ACCESS:       3822  HIT:       3817  MISS:          5
cpu0_STLB RFO       ACCESS:        229  HIT:        229  MISS:          0
cpu0_STLB PREFETCH  ACCESS:          0  HIT:          0  MISS:          0
cpu0_STLB WRITEBACK ACCESS:          0  HIT:          0  MISS:          0
cpu0_L1D TOTAL     ACCESS:   16455670  HIT:   16393856  MISS:      61814
cpu0_L1D LOAD      ACCESS:   11453733  HIT:   11396940  MISS:      56793
cpu0_L1D RFO       ACCESS:    5001932  HIT:    4996916  MISS:       5016
cpu0_L1D PREFETCH  ACCESS:          0  HIT:          0  MISS:          0
cpu0_L1D WRITEBACK ACCESS:          0  HIT:          0  MISS:          0
cpu0_L2C TOTAL     ACCESS:      70886  HIT:      70274  MISS:        612
cpu0_L2C LOAD      ACCESS:      57986  HIT:      57374  MISS:        612
cpu0_L2C RFO       ACCESS:       5016  HIT:       5016  MISS:          0
cpu0_L2C PREFETCH  ACCESS:          0  HIT:          0  MISS:          0
cpu0_L2C WRITEBACK ACCESS:       7879  HIT:       7879  MISS:          0
LLC TOTAL     ACCESS:        613  HIT:          9  MISS:        604
LLC LOAD      ACCESS:        612  HIT:          8  MISS:        604
LLC RFO       ACCESS:          0  HIT:          0  MISS:          0
LLC PREFETCH  ACCESS:          0  HIT:          0  MISS:          0
LLC WRITEBACK ACCESS:          1  HIT:          1  MISS:          0
Heartbeat CPU 0 instructions: 92000001 cycles: 58128723 heartbeat IPC: 1.28433 cumulative IPC: 0.97836 (Simulation time: 1 hr 6 min 9 sec) 

Region of Interest Statistics
cpu0_DTLB TOTAL     ACCESS:   12775028  HIT:   12771376  MISS:       3652
cpu0_DTLB LOAD      ACCESS:    9736292  HIT:    9732887  MISS:       3405
cpu0_DTLB RFO       ACCESS:    3038736  HIT:    3038489  MISS:        247
cpu0_DTLB PREFETCH  ACCESS:          0  HIT:          0  MISS:          0
cpu0_DTLB WRITEBACK ACCESS:          0  HIT:          0  MISS:          0
cpu0_ITLB TOTAL     ACCESS:    4770632  HIT:    4769881  MISS:        751
cpu0_ITLB LOAD      ACCESS:    4770632  HIT:    4769881  MISS:        751
cpu0_ITLB RFO       ACCESS:          0  HIT:          0  MISS:          0
cpu0_ITLB PREFETCH  ACCESS:          0  HIT:          0  MISS:          0
cpu0_ITLB WRITEBACK ACCESS:          0  HIT:          0  MISS:          0
cpu0_L1I TOTAL     ACCESS:    1329640  HIT:    1328185  MISS:       1455
cpu0_L1I LOAD      ACCESS:    1329640  HIT:    1328185  MISS:       1455
cpu0_L1I RFO       ACCESS:          0  HIT:          0  MISS:          0
cpu0_L1I PREFETCH  ACCESS:          0  HIT:          0  MISS:          0
cpu0_L1I WRITEBACK ACCESS:          0  HIT:          0  MISS:          0
cpu0_STLB TOTAL     ACCESS:       4403  HIT:       4361  MISS:         42
cpu0_STLB LOAD      ACCESS:       4156  HIT:       4115  MISS:         41
cpu0_STLB RFO       ACCESS:        247  HIT:        246  MISS:          1
cpu0_STLB PREFETCH  ACCESS:          0  HIT:          0  MISS:          0
cpu0_STLB WRITEBACK ACCESS:          0  HIT:          0  MISS:          0
cpu0_L1D TOTAL     ACCESS:   17169233  HIT:   17106595  MISS:      62638
cpu0_L1D LOAD      ACCESS:   11968139  HIT:   11910842  MISS:      57297
cpu0_L1D RFO       ACCESS:    5201052  HIT:    5195718  MISS:       5334
cpu0_L1D PREFETCH  ACCESS:          0  HIT:          0  MISS:          0
cpu0_L1D WRITEBACK ACCESS:          0  HIT:          0  MISS:          0
cpu0_L2C TOTAL     ACCESS:      72199  HIT:      71109  MISS:       1090
cpu0_L2C LOAD      ACCESS:      58752  HIT:      57761  MISS:        991
cpu0_L2C RFO       ACCESS:       5334  HIT:       5235  MISS:         99
cpu0_L2C PREFETCH  ACCESS:          0  HIT:          0  MISS:          0
cpu0_L2C WRITEBACK ACCESS:       8106  HIT:       8106  MISS:          0
LLC TOTAL     ACCESS:       1097  HIT:         16  MISS:       1081
LLC LOAD      ACCESS:        991  HIT:          9  MISS:        982
LLC RFO       ACCESS:         99  HIT:          0  MISS:         99
LLC PREFETCH  ACCESS:          0  HIT:          0  MISS:          0
LLC WRITEBACK ACCESS:          7  HIT:          7  MISS:          0
Heartbeat CPU 0 instructions: 94000004 cycles: 59684942 heartbeat IPC: 1.28517 cumulative IPC: 0.989093 (Simulation time: 1 hr 7 min 16 sec) 

Region of Interest Statistics
cpu0_DTLB TOTAL     ACCESS:   13143719  HIT:   13139736  MISS:       3983
cpu0_DTLB LOAD      ACCESS:    9990063  HIT:    9986647  MISS:       3416
cpu0_DTLB RFO       ACCESS:    3153656  HIT:    3153089  MISS:        567
cpu0_DTLB PREFETCH  ACCESS:          0  HIT:          0  MISS:          0
cpu0_DTLB WRITEBACK ACCESS:          0  HIT:          0  MISS:          0
cpu0_ITLB TOTAL     ACCESS:    4953566  HIT:    4952809  MISS:        757
cpu0_ITLB LOAD      ACCESS:    4953566  HIT:    4952809  MISS:        757
cpu0_ITLB RFO       ACCESS:          0  HIT:          0  MISS:          0
cpu0_ITLB PREFETCH  ACCESS:          0  HIT:          0  MISS:          0
cpu0_ITLB WRITEBACK ACCESS:          0  HIT:          0  MISS:          0
cpu0_L1I TOTAL     ACCESS:    1401451  HIT:    1399880  MISS:       1571
cpu0_L1I LOAD      ACCESS:    1401451  HIT:    1399880  MISS:       1571
cpu0_L1I RFO       ACCESS:          0  HIT:          0  MISS:          0
cpu0_L1I PREFETCH  ACCESS:          0  HIT:          0  MISS:          0
cpu0_L1I WRITEBACK ACCESS:          0  HIT:          0  MISS:          0
cpu0_STLB TOTAL     ACCESS:       4740  HIT:       4411  MISS:        329
cpu0_STLB LOAD      ACCESS:       4173  HIT:       4125  MISS:         48
cpu0_STLB RFO       ACCESS:        567  HIT:        286  MISS:        281
cpu0_STLB PREFETCH  ACCESS:          0  HIT:          0  MISS:          0
cpu0_STLB WRITEBACK ACCESS:          0  HIT:          0  MISS:          0
cpu0_L1D TOTAL     ACCESS:   17562991  HIT:   17479733  MISS:      83258
cpu0_L1D LOAD      ACCESS:   12226428  HIT:   12168974  MISS:      57454
cpu0_L1D RFO       ACCESS:    5336234  HIT:    5310439  MISS:      25795
cpu0_L1D PREFETCH  ACCESS:          0  HIT:          0  MISS:          0
cpu0_L1D WRITEBACK ACCESS:          0  HIT:          0  MISS:          0
cpu0_L2C TOTAL     ACCESS:     113319  HIT:      93372  MISS:      19947
cpu0_L2C LOAD      ACCESS:      59025  HIT:      57871  MISS:       1154
cpu0_L2C RFO       ACCESS:      25795  HIT:       7003  MISS:      18792
cpu0_L2C PREFETCH  ACCESS:          0  HIT:          0  MISS:          0
cpu0_L2C WRITEBACK ACCESS:      28490  HIT:      28490  MISS:          0
LLC TOTAL     ACCESS:      33844  HIT:      14547  MISS:      19297
LLC LOAD      ACCESS:       1154  HIT:         32  MISS:       1122
LLC RFO       ACCESS:      18792  HIT:        760  MISS:      18032
LLC PREFETCH  ACCESS:          0  HIT:          0  MISS:          0
LLC WRITEBACK ACCESS:      13897  HIT:      13754  MISS:        143
Heartbeat CPU 0 instructions: 96000003 cycles: 61620492 heartbeat IPC: 1.0333 cumulative IPC: 0.990936 (Simulation time: 1 hr 8 min 12 sec) 

Region of Interest Statistics
cpu0_DTLB TOTAL     ACCESS:   13600953  HIT:   13596952  MISS:       4001
cpu0_DTLB LOAD      ACCESS:   10368272  HIT:   10364856  MISS:       3416
cpu0_DTLB RFO       ACCESS:    3232681  HIT:    3232096  MISS:        585
cpu0_DTLB PREFETCH  ACCESS:          0  HIT:          0  MISS:          0
cpu0_DTLB WRITEBACK ACCESS:          0  HIT:          0  MISS:          0
cpu0_ITLB TOTAL     ACCESS:    5188615  HIT:    5187858  MISS:        757
cpu0_ITLB LOAD      ACCESS:    5188615  HIT:    5187858  MISS:        757
cpu0_ITLB RFO       ACCESS:          0  HIT:          0  MISS:          0
cpu0_ITLB PREFETCH  ACCESS:          0  HIT:          0  MISS:          0
cpu0_ITLB WRITEBACK ACCESS:          0  HIT:          0  MISS:          0
cpu0_L1I TOTAL     ACCESS:    1503679  HIT:    1502108  MISS:       1571
cpu0_L1I LOAD      ACCESS:    1503679  HIT:    1502108  MISS:       1571
cpu0_L1I RFO       ACCESS:          0  HIT:          0  MISS:          0
cpu0_L1I PREFETCH  ACCESS:          0  HIT:          0  MISS:          0
cpu0_L1I WRITEBACK ACCESS:          0  HIT:          0  MISS:          0
cpu0_STLB TOTAL     ACCESS:       4758  HIT:       4429  MISS:        329
cpu0_STLB LOAD      ACCESS:       4173  HIT:       4125  MISS:         48
cpu0_STLB RFO       ACCESS:        585  HIT:        304  MISS:        281
cpu0_STLB PREFETCH  ACCESS:          0  HIT:          0  MISS:          0
cpu0_STLB WRITEBACK ACCESS:          0  HIT:          0  MISS:          0
cpu0_L1D TOTAL     ACCESS:   18107628  HIT:   18023222  MISS:      84406
cpu0_L1D LOAD      ACCESS:   12609972  HIT:   12552518  MISS:      57454
cpu0_L1D RFO       ACCESS:    5497327  HIT:    5470384  MISS:      26943
cpu0_L1D PREFETCH  ACCESS:          0  HIT:          0  MISS:          0
cpu0_L1D WRITEBACK ACCESS:          0  HIT:          0  MISS:          0
cpu0_L2C TOTAL     ACCESS:     115615  HIT:      94520  MISS:      21095
cpu0_L2C LOAD      ACCESS:      59025  HIT:      57871  MISS:       1154
cpu0_L2C RFO       ACCESS:      26943  HIT:       7003  MISS:      19940
cpu0_L2C PREFETCH  ACCESS:          0  HIT:          0  MISS:          0
cpu0_L2C WRITEBACK ACCESS:      29638  HIT:      29638  MISS:          0
LLC TOTAL     ACCESS:      36140  HIT:      16731  MISS:      19409
LLC LOAD      ACCESS:       1154  HIT:         32  MISS:       1122
LLC RFO       ACCESS:      19940  HIT:       1908  MISS:      18032
LLC PREFETCH  ACCESS:          0  HIT:          0  MISS:          0
LLC WRITEBACK ACCESS:      15045  HIT:      14790  MISS:        255
Heartbeat CPU 0 instructions: 98000002 cycles: 63560070 heartbeat IPC: 1.03115 cumulative IPC: 0.992549 (Simulation time: 1 hr 9 min 9 sec) 

Region of Interest Statistics
cpu0_DTLB TOTAL     ACCESS:   14059054  HIT:   14055035  MISS:       4019
cpu0_DTLB LOAD      ACCESS:   10746829  HIT:   10743413  MISS:       3416
cpu0_DTLB RFO       ACCESS:    3312225  HIT:    3311622  MISS:        603
cpu0_DTLB PREFETCH  ACCESS:          0  HIT:          0  MISS:          0
cpu0_DTLB WRITEBACK ACCESS:          0  HIT:          0  MISS:          0
cpu0_ITLB TOTAL     ACCESS:    5423855  HIT:    5423098  MISS:        757
cpu0_ITLB LOAD      ACCESS:    5423855  HIT:    5423098  MISS:        757
cpu0_ITLB RFO       ACCESS:          0  HIT:          0  MISS:          0
cpu0_ITLB PREFETCH  ACCESS:          0  HIT:          0  MISS:          0
cpu0_ITLB WRITEBACK ACCESS:          0  HIT:          0  MISS:          0
cpu0_L1I TOTAL     ACCESS:    1606281  HIT:    1604710  MISS:       1571
cpu0_L1I LOAD      ACCESS:    1606281  HIT:    1604710  MISS:       1571
cpu0_L1I RFO       ACCESS:          0  HIT:          0  MISS:          0
cpu0_L1I PREFETCH  ACCESS:          0  HIT:          0  MISS:          0
cpu0_L1I WRITEBACK ACCESS:          0  HIT:          0  MISS:          0
cpu0_STLB TOTAL     ACCESS:       4776  HIT:       4447  MISS:        329
cpu0_STLB LOAD      ACCESS:       4173  HIT:       4125  MISS:         48
cpu0_STLB RFO       ACCESS:        603  HIT:        322  MISS:        281
cpu0_STLB PREFETCH  ACCESS:          0  HIT:          0  MISS:          0
cpu0_STLB WRITEBACK ACCESS:          0  HIT:          0  MISS:          0
cpu0_L1D TOTAL     ACCESS:   18652665  HIT:   18567109  MISS:      85556
cpu0_L1D LOAD      ACCESS:   12993955  HIT:   12936501  MISS:      57454
cpu0_L1D RFO       ACCESS:    5658381  HIT:    5630288  MISS:      28093
cpu0_L1D PREFETCH  ACCESS:          0  HIT:          0  MISS:          0
cpu0_L1D WRITEBACK ACCESS:          0  HIT:          0  MISS:          0
cpu0_L2C TOTAL     ACCESS:     117915  HIT:      95734  MISS:      22181
cpu0_L2C LOAD      ACCESS:      59025  HIT:      57871  MISS:       1154
cpu0_L2C RFO       ACCESS:      28093  HIT:       7067  MISS:      21026
cpu0_L2C PREFETCH  ACCESS:          0  HIT:          0  MISS:          0
cpu0_L2C WRITEBACK ACCESS:      30788  HIT:      30788  MISS:          0
LLC TOTAL     ACCESS:      38312  HIT:      18903  MISS:      19409
LLC LOAD      ACCESS:       1154  HIT:         32  MISS:       1122
LLC RFO       ACCESS:      21026  HIT:       2994  MISS:      18032
LLC PREFETCH  ACCESS:          0  HIT:          0  MISS:          0
LLC WRITEBACK ACCESS:      16131  HIT:      15876  MISS:        255
Heartbeat CPU 0 instructions: 100000002 cycles: 65143857 heartbeat IPC: 1.2628 cumulative IPC: 1.00112 (Simulation time: 1 hr 10 min 7 sec) 

Region of Interest Statistics
cpu0_DTLB TOTAL     ACCESS:   14489456  HIT:   14480571  MISS:       8885
cpu0_DTLB LOAD      ACCESS:   11117648  HIT:   11109781  MISS:       7867
cpu0_DTLB RFO       ACCESS:    3371808  HIT:    3370790  MISS:       1018
cpu0_DTLB PREFETCH  ACCESS:          0  HIT:          0  MISS:          0
cpu0_DTLB WRITEBACK ACCESS:          0  HIT:          0  MISS:          0
cpu0_ITLB TOTAL     ACCESS:    5649875  HIT:    5649117  MISS:        758
cpu0_ITLB LOAD      ACCESS:    5649875  HIT:    5649117  MISS:        758
cpu0_ITLB RFO       ACCESS:          0  HIT:          0  MISS:          0
cpu0_ITLB PREFETCH  ACCESS:          0  HIT:          0  MISS:          0
cpu0_ITLB WRITEBACK ACCESS:          0  HIT:          0  MISS:          0
cpu0_L1I TOTAL     ACCESS:    1682554  HIT:    1680978  MISS:       1576
cpu0_L1I LOAD      ACCESS:    1682554  HIT:    1680978  MISS:       1576
cpu0_L1I RFO       ACCESS:          0  HIT:          0  MISS:          0
cpu0_L1I PREFETCH  ACCESS:          0  HIT:          0  MISS:          0
cpu0_L1I WRITEBACK ACCESS:          0  HIT:          0  MISS:          0
cpu0_STLB TOTAL     ACCESS:       9643  HIT:       9313  MISS:        330
cpu0_STLB LOAD      ACCESS:       8625  HIT:       8576  MISS:         49
cpu0_STLB RFO       ACCESS:       1018  HIT:        737  MISS:        281
cpu0_STLB PREFETCH  ACCESS:          0  HIT:          0  MISS:          0
cpu0_STLB WRITEBACK ACCESS:          0  HIT:          0  MISS:          0
cpu0_L1D TOTAL     ACCESS:   19160083  HIT:   19067097  MISS:      92986
cpu0_L1D LOAD      ACCESS:   13381393  HIT:   13317413  MISS:      63980
cpu0_L1D RFO       ACCESS:    5778360  HIT:    5749364  MISS:      28996
cpu0_L1D PREFETCH  ACCESS:          0  HIT:          0  MISS:          0
cpu0_L1D WRITEBACK ACCESS:          0  HIT:          0  MISS:          0
cpu0_L2C TOTAL     ACCESS:     126977  HIT:     103888  MISS:      23089
cpu0_L2C LOAD      ACCESS:      65556  HIT:      64396  MISS:       1160
cpu0_L2C RFO       ACCESS:      28996  HIT:       7068  MISS:      21928
cpu0_L2C PREFETCH  ACCESS:          0  HIT:          0  MISS:          0
cpu0_L2C WRITEBACK ACCESS:      32415  HIT:      32415  MISS:          0
LLC TOTAL     ACCESS:      40127  HIT:      20669  MISS:      19458
LLC LOAD      ACCESS:       1160  HIT:         33  MISS:       1127
LLC RFO       ACCESS:      21928  HIT:       3896  MISS:      18032
LLC PREFETCH  ACCESS:          0  HIT:          0  MISS:          0
LLC WRITEBACK ACCESS:      17038  HIT:      16739  MISS:        299
Heartbeat CPU 0 instructions: 102000000 cycles: 65688978 heartbeat IPC: 3.66891 cumulative IPC: 1.02992 (Simulation time: 1 hr 11 min 6 sec) 

Region of Interest Statistics
cpu0_DTLB TOTAL     ACCESS:   14841592  HIT:   14815205  MISS:      26387
cpu0_DTLB LOAD      ACCESS:   11468210  HIT:   11444415  MISS:      23795
cpu0_DTLB RFO       ACCESS:    3373382  HIT:    3370790  MISS:       2592
cpu0_DTLB PREFETCH  ACCESS:          0  HIT:          0  MISS:          0
cpu0_DTLB WRITEBACK ACCESS:          0  HIT:          0  MISS:          0
cpu0_ITLB TOTAL     ACCESS:    5849715  HIT:    5848957  MISS:        758
cpu0_ITLB LOAD      ACCESS:    5849715  HIT:    5848957  MISS:        758
cpu0_ITLB RFO       ACCESS:          0  HIT:          0  MISS:          0
cpu0_ITLB PREFETCH  ACCESS:          0  HIT:          0  MISS:          0
cpu0_ITLB WRITEBACK ACCESS:          0  HIT:          0  MISS:          0
cpu0_L1I TOTAL     ACCESS:    1682554  HIT:    1680978  MISS:       1576
cpu0_L1I LOAD      ACCESS:    1682554  HIT:    1680978  MISS:       1576
cpu0_L1I RFO       ACCESS:          0  HIT:          0  MISS:          0
cpu0_L1I PREFETCH  ACCESS:          0  HIT:          0  MISS:          0
cpu0_L1I WRITEBACK ACCESS:          0  HIT:          0  MISS:          0
cpu0_STLB TOTAL     ACCESS:      27145  HIT:      26815  MISS:        330
cpu0_STLB LOAD      ACCESS:      24553  HIT:      24504  MISS:         49
cpu0_STLB RFO       ACCESS:       2592  HIT:       2311  MISS:        281
cpu0_STLB PREFETCH  ACCESS:          0  HIT:          0  MISS:          0
cpu0_STLB WRITEBACK ACCESS:          0  HIT:          0  MISS:          0
cpu0_L1D TOTAL     ACCESS:   19559773  HIT:   19441807  MISS:     117966
cpu0_L1D LOAD      ACCESS:   13779509  HIT:   13690746  MISS:      88763
cpu0_L1D RFO       ACCESS:    5779934  HIT:    5750741  MISS:      29193
cpu0_L1D PREFETCH  ACCESS:          0  HIT:          0  MISS:          0
cpu0_L1D WRITEBACK ACCESS:          0  HIT:          0  MISS:          0
cpu0_L2C TOTAL     ACCESS:     152167  HIT:     128881  MISS:      23286
cpu0_L2C LOAD      ACCESS:      90339  HIT:      89179  MISS:       1160
cpu0_L2C RFO       ACCESS:      29193  HIT:       7068  MISS:      22125
cpu0_L2C PREFETCH  ACCESS:          0  HIT:          0  MISS:          0
cpu0_L2C WRITEBACK ACCESS:      32625  HIT:      32625  MISS:          0
LLC TOTAL     ACCESS:      40521  HIT:      21063  MISS:      19458
LLC LOAD      ACCESS:       1160  HIT:         33  MISS:       1127
LLC RFO       ACCESS:      22125  HIT:       4093  MISS:      18032
LLC PREFETCH  ACCESS:          0  HIT:          0  MISS:          0
LLC WRITEBACK ACCESS:      17235  HIT:      16936  MISS:        299
Heartbeat CPU 0 instructions: 104000004 cycles: 66233977 heartbeat IPC: 3.66974 cumulative IPC: 1.05811 (Simulation time: 1 hr 12 min 6 sec) 

Region of Interest Statistics
cpu0_DTLB TOTAL     ACCESS:   15193631  HIT:   15149029  MISS:      44602
cpu0_DTLB LOAD      ACCESS:   11818676  HIT:   11778239  MISS:      40437
cpu0_DTLB RFO       ACCESS:    3374955  HIT:    3370790  MISS:       4165
cpu0_DTLB PREFETCH  ACCESS:          0  HIT:          0  MISS:          0
cpu0_DTLB WRITEBACK ACCESS:          0  HIT:          0  MISS:          0
cpu0_ITLB TOTAL     ACCESS:    6049569  HIT:    6048811  MISS:        758
cpu0_ITLB LOAD      ACCESS:    6049569  HIT:    6048811  MISS:        758
cpu0_ITLB RFO       ACCESS:          0  HIT:          0  MISS:          0
cpu0_ITLB PREFETCH  ACCESS:          0  HIT:          0  MISS:          0
cpu0_ITLB WRITEBACK ACCESS:          0  HIT:          0  MISS:          0
cpu0_L1I TOTAL     ACCESS:    1682554  HIT:    1680978  MISS:       1576
cpu0_L1I LOAD      ACCESS:    1682554  HIT:    1680978  MISS:       1576
cpu0_L1I RFO       ACCESS:          0  HIT:          0  MISS:          0
cpu0_L1I PREFETCH  ACCESS:          0  HIT:          0  MISS:          0
cpu0_L1I WRITEBACK ACCESS:          0  HIT:          0  MISS:          0
cpu0_STLB TOTAL     ACCESS:      45360  HIT:      45030  MISS:        330
cpu0_STLB LOAD      ACCESS:      41195  HIT:      41146  MISS:         49
cpu0_STLB RFO       ACCESS:       4165  HIT:       3884  MISS:        281
cpu0_STLB PREFETCH  ACCESS:          0  HIT:          0  MISS:          0
cpu0_STLB WRITEBACK ACCESS:          0  HIT:          0  MISS:          0
cpu0_L1D TOTAL     ACCESS:   19959466  HIT:   19816504  MISS:     142962
cpu0_L1D LOAD      ACCESS:   14177629  HIT:   14064066  MISS:     113563
cpu0_L1D RFO       ACCESS:    5781507  HIT:    5752118  MISS:      29389
cpu0_L1D PREFETCH  ACCESS:          0  HIT:          0  MISS:          0
cpu0_L1D WRITEBACK ACCESS:          0  HIT:          0  MISS:          0
cpu0_L2C TOTAL     ACCESS:     177359  HIT:     153877  MISS:      23482
cpu0_L2C LOAD      ACCESS:     115139  HIT:     113979  MISS:       1160
cpu0_L2C RFO       ACCESS:      29389  HIT:       7068  MISS:      22321
cpu0_L2C PREFETCH  ACCESS:          0  HIT:          0  MISS:          0
cpu0_L2C WRITEBACK ACCESS:      32821  HIT:      32821  MISS:          0
LLC TOTAL     ACCESS:      40913  HIT:      21455  MISS:      19458
LLC LOAD      ACCESS:       1160  HIT:         33  MISS:       1127
LLC RFO       ACCESS:      22321  HIT:       4289  MISS:      18032
LLC PREFETCH  ACCESS:          0  HIT:          0  MISS:          0
LLC WRITEBACK ACCESS:      17431  HIT:      17132  MISS:        299
Heartbeat CPU 0 instructions: 106000002 cycles: 66779003 heartbeat IPC: 3.66955 cumulative IPC: 1.08571 (Simulation time: 1 hr 13 min 7 sec) 

Region of Interest Statistics
cpu0_DTLB TOTAL     ACCESS:   15543355  HIT:   15479464  MISS:      63891
cpu0_DTLB LOAD      ACCESS:   12166826  HIT:   12108674  MISS:      58152
cpu0_DTLB RFO       ACCESS:    3376529  HIT:    3370790  MISS:       5739
cpu0_DTLB PREFETCH  ACCESS:          0  HIT:          0  MISS:          0
cpu0_DTLB WRITEBACK ACCESS:          0  HIT:          0  MISS:          0
cpu0_ITLB TOTAL     ACCESS:    6249408  HIT:    6248650  MISS:        758
cpu0_ITLB LOAD      ACCESS:    6249408  HIT:    6248650  MISS:        758
cpu0_ITLB RFO       ACCESS:          0  HIT:          0  MISS:          0
cpu0_ITLB PREFETCH  ACCESS:          0  HIT:          0  MISS:          0
cpu0_ITLB WRITEBACK ACCESS:          0  HIT:          0  MISS:          0
cpu0_L1I TOTAL     ACCESS:    1682554  HIT:    1680978  MISS:       1576
cpu0_L1I LOAD      ACCESS:    1682554  HIT:    1680978  MISS:       1576
cpu0_L1I RFO       ACCESS:          0  HIT:          0  MISS:          0
cpu0_L1I PREFETCH  ACCESS:          0  HIT:          0  MISS:          0
cpu0_L1I WRITEBACK ACCESS:          0  HIT:          0  MISS:          0
cpu0_STLB TOTAL     ACCESS:      64649  HIT:      64319  MISS:        330
cpu0_STLB LOAD      ACCESS:      58910  HIT:      58861  MISS:         49
cpu0_STLB RFO       ACCESS:       5739  HIT:       5458  MISS:        281
cpu0_STLB PREFETCH  ACCESS:          0  HIT:          0  MISS:          0
cpu0_STLB WRITEBACK ACCESS:          0  HIT:          0  MISS:          0
cpu0_L1D TOTAL     ACCESS:   20359159  HIT:   20191215  MISS:     167944
cpu0_L1D LOAD      ACCESS:   14575748  HIT:   14437400  MISS:     138348
cpu0_L1D RFO       ACCESS:    5783081  HIT:    5753495  MISS:      29586
cpu0_L1D PREFETCH  ACCESS:          0  HIT:          0  MISS:          0
cpu0_L1D WRITEBACK ACCESS:          0  HIT:          0  MISS:          0
cpu0_L2C TOTAL     ACCESS:     202538  HIT:     178855  MISS:      23683
cpu0_L2C LOAD      ACCESS:     139924  HIT:     138760  MISS:       1164
cpu0_L2C RFO       ACCESS:      29586  HIT:       7068  MISS:      22518
cpu0_L2C PREFETCH  ACCESS:          0  HIT:          0  MISS:          0
[...]
cpu0_DTLB RFO       ACCESS:   57460929  HIT:   57208089  MISS:     252840
cpu0_DTLB PREFETCH  ACCESS:          0  HIT:          0  MISS:          0
cpu0_DTLB WRITEBACK ACCESS:          0  HIT:          0  MISS:          0
cpu0_DTLB TRANSLATION ACCESS:          0  HIT:          0  MISS:          0
cpu0_DTLB PREFETCH  REQUESTED:          0  ISSUED:          0  USEFUL:          0  USELESS:          0
cpu0_DTLB AVERAGE MISS LATENCY: 9.17124 cycles
cpu0_ITLB TOTAL     ACCESS:  167274189  HIT:  167270288  MISS:       3901
cpu0_ITLB LOAD      ACCESS:  167274189  HIT:  167270288  MISS:       3901
cpu0_ITLB RFO       ACCESS:          0  HIT:          0  MISS:          0
cpu0_ITLB PREFETCH  ACCESS:          0  HIT:          0  MISS:          0
cpu0_ITLB WRITEBACK ACCESS:          0  HIT:          0  MISS:          0
cpu0_ITLB TRANSLATION ACCESS:          0  HIT:          0  MISS:          0
cpu0_ITLB PREFETCH  REQUESTED:          0  ISSUED:          0  USEFUL:          0  USELESS:          0
cpu0_ITLB AVERAGE MISS LATENCY: 18.3468 cycles
cpu0_L1I TOTAL     ACCESS:   60710241  HIT:   60701666  MISS:       8575
cpu0_L1I LOAD      ACCESS:   60710241  HIT:   60701666  MISS:       8575
cpu0_L1I RFO       ACCESS:          0  HIT:          0  MISS:          0
cpu0_L1I PREFETCH  ACCESS:          0  HIT:          0  MISS:          0
cpu0_L1I WRITEBACK ACCESS:          0  HIT:          0  MISS:          0
cpu0_L1I TRANSLATION ACCESS:          0  HIT:          0  MISS:          0
cpu0_L1I PREFETCH  REQUESTED:          0  ISSUED:          0  USEFUL:          0  USELESS:          0
cpu0_L1I AVERAGE MISS LATENCY: 133.163 cycles
cpu0_STLB TOTAL     ACCESS:    2833230  HIT:    2827366  MISS:       5864
cpu0_STLB LOAD      ACCESS:    2580390  HIT:    2576756  MISS:       3634
cpu0_STLB RFO       ACCESS:     252840  HIT:     250610  MISS:       2230
cpu0_STLB PREFETCH  ACCESS:          0  HIT:          0  MISS:          0
cpu0_STLB WRITEBACK ACCESS:          0  HIT:          0  MISS:          0
cpu0_STLB TRANSLATION ACCESS:          0  HIT:          0  MISS:          0
cpu0_STLB PREFETCH  REQUESTED:          0  ISSUED:          0  USEFUL:          0  USELESS:          0
cpu0_STLB AVERAGE MISS LATENCY: 86.5653 cycles
cpu0_L1D TOTAL     ACCESS:  420333949  HIT:  412849356  MISS:    7484593
cpu0_L1D LOAD      ACCESS:  331023314  HIT:  324062716  MISS:    6960598
cpu0_L1D RFO       ACCESS:   89304793  HIT:   88781245  MISS:     523548
cpu0_L1D PREFETCH  ACCESS:          0  HIT:          0  MISS:          0
cpu0_L1D WRITEBACK ACCESS:          0  HIT:          0  MISS:          0
cpu0_L1D TRANSLATION ACCESS:       5842  HIT:       5395  MISS:        447
cpu0_L1D PREFETCH  REQUESTED:          0  ISSUED:          0  USEFUL:          0  USELESS:          0
cpu0_L1D AVERAGE MISS LATENCY: 38.0889 cycles
cpu0_L2C TOTAL     ACCESS:    8445514  HIT:    6290926  MISS:    2154588
cpu0_L2C LOAD      ACCESS:    6969124  HIT:    5160047  MISS:    1809077
cpu0_L2C RFO       ACCESS:     523548  HIT:     178442  MISS:     345106
cpu0_L2C PREFETCH  ACCESS:          0  HIT:          0  MISS:          0
cpu0_L2C WRITEBACK ACCESS:     952395  HIT:     952037  MISS:        358
cpu0_L2C TRANSLATION ACCESS:        447  HIT:        400  MISS:         47
cpu0_L2C PREFETCH  REQUESTED:          0  ISSUED:          0  USEFUL:          0  USELESS:          0
cpu0_L2C AVERAGE MISS LATENCY: 94.4682 cycles
LLC TOTAL     ACCESS:    2783298  HIT:    1881810  MISS:     901488
LLC LOAD      ACCESS:    1809072  HIT:    1203962  MISS:     605110
LLC RFO       ACCESS:     345106  HIT:     152882  MISS:     192224
LLC PREFETCH  ACCESS:          0  HIT:          0  MISS:          0
LLC WRITEBACK ACCESS:     629073  HIT:     524944  MISS:     104129
LLC TRANSLATION ACCESS:         47  HIT:         22  MISS:         25
LLC PREFETCH  REQUESTED:          0  ISSUED:          0  USEFUL:          0  USELESS:          0
LLC AVERAGE MISS LATENCY: 175.593 cycles
~~~~~~~~~~Reuse Distance Profiler output~~~~~~~~~~
0	39550848	13103984
1	32843136	20509200
2	36899888	26052720
3	21769504	14151216
4	14727072	9287920
5	12679264	9511392
6	9750800	6422464
7	8907312	5489824
8	7534176	5306768
9	7600480	5798560
10	6348112	4672256
11	8496432	5696672
12	8795872	7160400
13	8850784	7478304
14	7716416	6974848
15	5754944	5266000
16	7341744	6906768
17	6729824	6307600
18	6016208	5653648
19	4263856	3895472
20	4811792	4321872
21	5826720	5284128
22	6372400	5735648
23	7007600	6393712
24	7048736	6440608
25	5856032	5339424
26	4477408	4070880
27	3656144	3346256
28	2541088	2303136
29	1757088	1571952
30	1621840	1409888
31	1140352	1000496
32	912128	786640
33	724304	651552
34	648656	590704
35	593472	550752
36	553664	495600
37	554160	501344
38	529952	471968
39	426288	382112
40	578080	538624
41	526592	490992
42	448048	420624
43	489472	460192
44	564416	528528
45	404128	364624
46	370000	327856
47	358912	313104
48	489456	466480
49	400896	386176
50	395648	383232
51	397952	384864
52	342368	329488
53	412416	393408
54	484320	467968
55	473184	461632
56	377168	365408
57	283968	273392
58	253920	233008
59	208384	192960
60	334320	318656
61	405264	391392
62	397072	382112
63	473504	385696
64	598016	500784
66	484624	452208
68	492656	471376
70	399392	382016
72	330896	310720
74	286592	258544
76	268464	243136
78	436432	401424
80	339664	311504
82	281200	258640
84	272624	249488
86	258928	234144
88	264304	233104
90	288096	245488
92	262896	223296
94	280384	253008
96	328240	302912
98	260768	235344
100	275552	247056
102	392128	358688
104	380960	348336
106	514768	493168
108	579984	557040
110	503760	471376
112	402192	366304
114	344768	312064
116	701040	478000
118	539984	383104
120	328160	281808
122	268608	256608
124	242416	236368
126	223440	218144
128	432816	424112
132	414016	403568
136	410160	400464
140	375952	368528
144	336240	331040
148	292912	287984
152	271904	267872
156	281008	277136
160	274576	270992
164	264208	260768
168	238320	234992
172	225104	222048
176	215664	210032
180	231776	227872
184	256368	253600
188	279744	276800
192	241248	238656
196	220784	218384
200	207216	204704
204	235856	233392
208	296400	293856
212	306560	303376
216	236736	234160
220	202816	200160
224	215936	200064
228	197424	191360
232	228336	210560
236	252208	247008
240	1103504	1101200
244	3004272	3002304
248	5237392	5234992
252	53338160	53200816
256	2622832	2618016
264	308224	305280
272	258880	255872
280	241264	238688
288	260960	258448
296	266320	263488
304	238176	235504
312	193344	190512
320	184576	181568
328	195888	191488
336	203680	197312
344	194592	190640
352	173920	168128
360	158352	155040
368	192560	190256
376	213392	210912
384	191216	189488
392	150512	148480
400	127168	125168
408	113152	111296
416	110320	108064
424	103856	101440
432	90432	88688
440	86224	84416
448	84528	83232
456	77904	76400
464	72928	71472
472	75744	73968
480	73184	71472
488	72832	71232
496	74688	72672
504	74720	73248
512	157344	154720
528	125728	122960
544	100944	97712
560	106224	103552
576	92512	90464
592	83632	81664
608	73760	71840
624	379632	377920
640	4809968	4808288
656	1588432	1585920
672	1176768	1174816
688	59360	57664
704	46736	45392
720	49552	47936
736	66608	65008
752	42496	41040
768	37728	36096
784	36112	34608
800	38624	37040
816	36464	34880
832	32304	31008
848	33120	31312
864	37584	35600
880	40528	39392
896	35552	34224
912	31968	30912
928	25216	24272
944	28496	27728
960	23232	22208
976	18656	17520
992	14128	13120
1008	14304	13280
1024	33024	31312
1056	22672	21232
1088	25536	24240
1120	28848	27360
1152	25632	23984
1184	20960	19344
1216	20960	19456
1248	39392	38144
1280	76720	75232
1312	65344	64112
1344	92768	91632
1376	47440	46320
1408	33488	32480
1440	23328	22128
1472	33472	32272
1504	17920	16784
1536	14208	13024
1568	13936	12992
1600	66160	65280
1632	50304	49440
1664	48320	47392
1696	36768	36144
1728	21520	20736
1760	10432	9856
1792	10976	10208
1824	8608	8048
1856	9616	8944
1888	9904	9280
1920	10224	9648
1952	9728	9136
1984	9472	8816
2016	9936	9392
2048	18368	17632
2112	22496	21328
2176	18704	17504
2240	15984	15008
2304	15744	14912
2368	14176	13344
2432	16320	15616
2496	14832	13776
2560	14464	13760
2624	13568	12976
2688	12336	11568
2752	12144	11664
2816	12352	11264
2880	12560	12000
2944	12176	11776
3008	12256	11712
3072	11280	10688
3136	12912	12000
3200	11280	10672
3264	15280	14736
3328	11376	10784
3392	11152	10512
3456	11968	11248
3520	10752	9664
3584	10240	9360
3648	8528	8176
3712	9792	8128
3776	15184	13344
3840	18432	16336
3904	14544	13808
3968	11280	10880
4032	9680	9104
4096	18448	17424
4224	16256	15376
4352	16352	15072
4480	17024	14752
4608	13936	12880
4736	14256	13120
4864	13440	12576
4992	12192	11120
5120	12976	11952
5248	10704	9552
5376	13360	12288
5504	12432	11408
5632	13280	12192
5760	12000	11008
5888	10560	9552
6016	10064	9152
6144	10656	9792
6272	11680	10752
6400	10480	9520
6528	9616	8768
6656	8272	7584
6784	9440	8480
6912	10224	9392
7040	10384	9472
7168	10896	9968
7296	8656	7792
7424	8432	7904
7552	8768	8016
7680	9456	8480
7808	9488	8544
7936	9936	9184
8064	10272	9408
8192	21648	20336
8448	20688	19440
8704	19152	17520
8960	17120	16032
9216	13424	11680
9472	13088	11504
9728	13040	11264
9984	32336	30880
10240	13744	12304
10496	14480	12944
10752	10256	9264
11008	10208	9328
11264	11664	10336
11520	9456	8640
11776	9088	8432
12032	8976	8192
12288	10768	8960
12544	8832	8112
12800	20512	19936
13056	24448	23776
13312	7824	7312
13568	7056	6480
13824	17888	17280
14080	26704	26112
14336	7104	6256
14592	8880	8352
14848	7312	6640
15104	8496	7792
15360	8208	7488
15616	7456	6736
15872	6880	6272
16128	6800	6096
16384	147904	146912
16896	16736	16128
17408	471072	470304
17920	20560	19696
18432	10736	10240
18944	9600	9088
19456	8208	7712
19968	8656	8400
20480	8656	8240
20992	9952	9456
21504	8080	7760
22016	9168	8896
22528	8416	8224
23040	9392	9152
23552	8896	8736
24064	10496	10272
24576	9744	9520
25088	9872	9616
25600	10656	10176
26112	9024	8768
26624	7328	7008
27136	7888	7552
27648	6512	6224
28160	5568	5184
28672	4976	4720
29184	4640	4384
29696	4072896	4072624
30208	6320	5984
30720	10336	10144
31232	4832	4512
31744	5312	5088
32256	5088	4928
32768	11360	9712
33792	12208	10160
34816	12640	11232
35840	74704	73248
36864	22672	21776
37888	35088	34096
38912	8080	7648
39936	7744	7120
40960	8384	7712
41984	7968	7664
43008	9136	7728
44032	7824	6896
45056	7728	6816
46080	7040	6384
47104	7216	6512
48128	10752	7424
49152	8496	7456
50176	8576	7472
51200	8704	7952
52224	9984	9264
53248	9568	8480
54272	12544	9120
55296	10928	9408
56320	8784	7424
57344	8304	7024
58368	9760	8672
59392	9472	8272
60416	8560	7088
61440	8080	6832
62464	10048	8480
63488	9424	8496
64512	7872	7040
65536	16144	14784
67584	10352	9136
69632	14432	12928
71680	9568	7872
73728	9792	8480
75776	9744	7984
77824	13216	8304
79872	11824	10400
81920	24656	22944
83968	28848	27424
86016	8272	7408
88064	7168	6320
90112	8944	7456
92160	7184	6048
94208	7568	6224
96256	8240	7088
98304	6768	6048
100352	7280	6560
102400	6912	6128
104448	7104	6544
106496	7808	6656
108544	7856	6912
110592	7664	6640
112640	8384	7568
114688	7600	6816
116736	6464	5904
118784	10448	9920
120832	8144	7632
122880	3152	2608
124928	13824	2048
126976	2672	2112
129024	979664	979184
131072	17344	16112
135168	5424	4720
139264	5296	4320
143360	5440	4576
147456	6112	4688
151552	4784	4192
155648	3536	2896
159744	4384	3120
163840	6064	4800
167936	5344	4592
172032	4784	4288
176128	5712	4992
180224	6208	5424
184320	5104	4256
188416	5232	4640
192512	3616	2912
196608	4768	3648
200704	4912	3616
204800	3456	2912
208896	3184	2608
212992	3200	2320
217088	5488	4096
221184	4176	3184
225280	3104	2608
229376	3744	2768
233472	5584	4576
237568	4960	3936
241664	3984	3360
245760	5024	3776
249856	4880	3744
253952	4960	3728
258048	3776	2592
262144	4848	3568
270336	6688	4528
278528	4224	3280
286720	6848	4784
294912	5312	4400
303104	7632	5680
311296	5424	4448
319488	6976	4864
327680	4928	4288
335872	10000	7872
344064	4176	3136
352256	5424	3520
360448	5248	3616
368640	4256	2784
376832	6112	4176
385024	4160	2608
393216	7424	4400
401408	15152	13760
409600	5664	3664
417792	6400	5648
425984	4992	3136
434176	3952	2912
442368	4624	2416
450560	3376	2560
458752	4752	2672
466944	4976	2992
475136	4480	1920
483328	4640	2384
491520	7520	2960
499712	4912	2656
507904	16032	9072
516096	83536	80448
524288	18256	10768
540672	87728	82880
557056	13728	9952
573440	38112	36112
589824	29264	26464
606208	5504	3264
622592	7280	5008
638976	5408	3456
655360	13520	11232
671744	12096	9824
688128	12176	10800
704512	3888	2416
720896	4560	2928
737280	8192	6416
753664	4112	2640
770048	12768	11152
786432	13872	12160
802816	13296	12048
819200	13808	12080
835584	13248	11792
851968	15456	13776
868352	13664	11792
884736	16704	14608
901120	20624	17936
917504	12224	10816
933888	3536	1808
950272	2672	1072
966656	3216	1360
983040	3184	1904
999424	3616	2464
1015808	5760	2720
1032192	75744	73200
1048576	5200	3536
1081344	7120	5216
1114112	4448	3152
1146880	4560	2800
1179648	4016	2848
1212416	3424	2032
1245184	6048	4672
1277952	4560	3312
1310720	4464	3216
1343488	4112	3152
1376256	4064	2880
1409024	4016	3152
1441792	4912	3568
1474560	4304	3120
1507328	4016	2720
1540096	5136	3216
1572864	8608	6640
1605632	7968	6224
1638400	4208	3056
1671168	4832	3200
1703936	3648	2640
1736704	3824	2848
1769472	3104	2320
1802240	3440	2256
1835008	4064	2736
1867776	2368	1600
1900544	2336	1488
1933312	1984	1584
1966080	1808	1520
1998848	3184	2752
2031616	3104	2704
2064384	3600	3168
2097152	29440	27952
2162688	8896	8208
2228224	8256	7200
2293760	6672	5664
2359296	5808	4992
2424832	6848	5872
2490368	6160	5104
2555904	8704	6960
2621440	8192	7296
2686976	6304	5632
2752512	5808	5136
2818048	7904	7184
2883584	5840	5152
2949120	6416	5680
3014656	6192	5472
3080192	6256	5776
3145728	7024	6192
3211264	15040	14320
3276800	5776	5152
3342336	5568	4928
3407872	6400	5600
3473408	5936	5344
3538944	6272	5776
3604480	6304	5600
3670016	7776	7120
3735552	4592	3920
3801088	5952	5424
3866624	5408	4944
3932160	6112	5520
3997696	4752	4288
4063232	4736	4224
4128768	4512	4128
4194304	8720	7952
4325376	9552	8736
4456448	8224	7520
4587520	9360	8400
4718592	8800	8304
4849664	8080	7504
4980736	8096	7472
5111808	5392	4752
5242880	4320	3664
5373952	3792	3280
5505024	2960	2624
5636096	3504	3056
5767168	2928	2800
5898240	5072	4864
6029312	2736	2688
6160384	2848	2720
6291456	3152	2912
6422528	1776	1664
6553600	1744	592
6684672	1648	608
6815744	1616	672
6946816	1744	736
7077888	1840	832
7208960	1728	848
7340032	1584	624
7471104	1536	928
7602176	1392	1072
7733248	1600	1104
7864320	1088	720
7995392	784	400
8126464	1184	704
8257536	1888	1488
8388608	2112	1312
8650752	1936	1344
8912896	2000	1712
9175040	1856	1616
9437184	1952	1664
9699328	1232	976
9961472	1648	1360
10223616	1856	1600
10485760	1696	1440
10747904	1744	1472
11010048	1696	1424
11272192	2928	2512
11534336	1616	1408
11796480	4368	4176
12058624	2016	2000
12320768	3488	3488
12582912	1232	1152
12845056	1920	1760
13107200	2240	2000
13369344	1888	1888
13631488	2576	2352
13893632	1904	1664
14155776	1776	1520
14417920	1856	1568
14680064	2032	1792
14942208	3536	3280
15204352	1792	1520
15466496	1232	960
15728640	1088	848
15990784	1312	1056
16252928	1664	1408
16515072	960	704
16777216	2304	1744
17301504	1888	1552
17825792	1056	1040
18350080	2112	2064
18874368	1680	1504
19398656	2672	2320
19922944	1376	816
20447232	1872	1360
20971520	1712	1216
21495808	1728	1200
22020096	2736	2240
22544384	3360	2816
23068672	1760	1312
23592960	784	784
24117248	1872	1600
24641536	1184	1168
25165824	2192	1952
25690112	1936	1408
26214400	2960	2448
26738688	3152	2624
27262976	1344	832
27787264	1664	1136
28311552	1456	944
28835840	1552	1024
29360128	912	864
29884416	1200	1184
30408704	2864	864
30932992	1344	1136
31457280	1904	1344
31981568	1840	1312
32505856	2064	1552
33030144	2048	592
33554432	4256	1824
34603008	4064	1760
35651584	8496	4624
36700160	3792	3312
37748736	2528	1488
38797312	4192	1744
39845888	2752	1616
40894464	2736	2400
41943040	11680	3600
42991616	11168	2512
44040192	7488	2432
45088768	2736	1664
46137344	4144	3184
47185920	14208	1904
48234496	4768	2448
49283072	1632	1616
50331648	2960	2736
51380224	3136	3136
52428800	2896	2784
53477376	4096	2064
54525952	1936	1936
55574528	2752	2576
56623104	2592	2336
57671680	1152	1152
58720256	3920	3088
59768832	3472	2160
60817408	1984	1984
61865984	4896	4848
62914560	3216	3136
63963136	3456	3456
65011712	4688	2592
66060288	2528	2528
67108864	6160	6160
69206016	5936	5920
71303168	5248	5248
73400320	5280	5280
75497472	5328	5328
77594624	4480	4464
79691776	6224	6224
81788928	6128	6128
83886080	2144	2144
85983232	1536	1104
88080384	960	848
90177536	608	608
92274688	992	976
94371840	1088	1088
96468992	1168	1168
98566144	944	944
100663296	784	784
102760448	1200	1200
104857600	1120	1120
106954752	832	800
109051904	848	800
111149056	928	896
113246208	944	944
115343360	976	928
117440512	512	496
119537664	800	784
121634816	544	544
123731968	592	528
125829120	352	352
127926272	720	720
130023424	432	432
132120576	448	448
134217728	832	592
138412032	816	816
142606336	736	704
146800640	992	960
150994944	7808	1136
155189248	896	896
159383552	2640	608
163577856	2272	528
167772160	2368	688
171966464	688	688
176160768	2800	688
180355072	2656	816
184549376	688	416
188743680	928	928
192937984	576	560
197132288	432	432
201326592	160	160
205520896	80	80
209715200	112	112
213909504	112	112
218103808	80	80
222298112	128	128
226492416	96	96
230686720	96	96
234881024	96	96
239075328	192	192
243269632	112	112
247463936	96	96
251658240	48	48
255852544	96	96
260046848	16	16
264241152	32	32
268435456	16	16
276824064	0	0
285212672	16	16
293601280	1312	368
301989888	496	256
310378496	16	16
318767104	0	0
327155712	0	0
335544320	0	0
343932928	128	0
352321536	0	0
360710144	0	0
369098752	0	0
377487360	0	0
385875968	0	0
394264576	0	0
402653184	0	0
411041792	0	0
419430400	0	0
427819008	0	0
436207616	0	0
444596224	0	0
452984832	0	0
461373440	0	0
469762048	0	0
478150656	0	0
486539264	0	0
494927872	0	0
503316480	0	0
511705088	0	0
520093696	0	0
528482304	0	0
536870912	0	0
553648128	0	0
570425344	0	0
587202560	0	0
603979776	0	0
620756992	0	0
637534208	0	0
654311424	0	0
671088640	0	0
687865856	0	0
704643072	0	0
721420288	0	0
738197504	0	0
754974720	0	0
771751936	0	0
788529152	0	0
805306368	0	0
822083584	0	0
838860800	0	0
855638016	0	0
872415232	0	0
889192448	0	0
905969664	0	0
922746880	0	0
939524096	0	0
956301312	0	0
973078528	0	0
989855744	0	0
1006632960	0	0
1023410176	0	0
1040187392	0	0
1056964608	0	0
1073741824	0	0
1107296256	0	0
1140850688	0	0
1174405120	0	0
1207959552	0	0
1241513984	0	0
1275068416	0	0
1308622848	0	0
1342177280	0	0
1375731712	0	0
1409286144	0	0
1442840576	0	0
1476395008	0	0
1509949440	0	0
1543503872	0	0
1577058304	0	0
1610612736	0	0
1644167168	0	0
1677721600	0	0
1711276032	0	0
1744830464	0	0
1778384896	0	0
1811939328	0	0
1845493760	0	0
1879048192	0	0
1912602624	0	0
1946157056	0	0
1979711488	0	0
2013265920	0	0
2046820352	0	0
2080374784	0	0
2113929216	0	0
2147483648	0	0
2214592512	0	0
2281701376	0	0
2348810240	0	0
2415919104	0	0
2483027968	0	0
2550136832	0	0
2617245696	0	0
2684354560	0	0
2751463424	0	0
2818572288	0	0
2885681152	0	0
2952790016	0	0
3019898880	0	0
3087007744	0	0
3154116608	0	0
3221225472	0	0
3288334336	0	0
3355443200	0	0
3422552064	0	0
3489660928	0	0
3556769792	0	0
3623878656	0	0
3690987520	0	0
3758096384	0	0
3825205248	0	0
3892314112	0	0
3959422976	0	0
4026531840	0	0
4093640704	0	0
4160749568	0	0
4227858432	0	0
~~~~~~~~~~Reuse Distance Profiler output end~~~~~~~~~~

Sampler size:8547

DRAM Statistics
 CHANNEL 0
 RQ ROW_BUFFER_HIT:     215563  ROW_BUFFER_MISS:     581704
 DBUS AVG_CONGESTED_CYCLE:    3.97816
 WQ ROW_BUFFER_HIT:      43984  ROW_BUFFER_MISS:     327517  FULL:       6754


CPU 0 Branch Prediction Accuracy: 82.7617% MPKI: 26.2558 Average ROB Occupancy at Mispredict: 15.9169
Branch type MPKI
BRANCH_DIRECT_JUMP: 0.000304667
BRANCH_INDIRECT: 0.0663967
BRANCH_CONDITIONAL: 26.1875
BRANCH_DIRECT_CALL: 0.000694667
BRANCH_INDIRECT_CALL: 0.000202
BRANCH_RETURN: 0.000666

