
*** ChampSim Multicore Out-of-Order Simulator ***

Warmup Instructions: 50000000
Simulation Instructions: 1500000000
Number of CPUs: 1
Off-chip DRAM Size: 4 GiB Channels: 1 Width: 64-bit Data Rate: 3200 MT/s

VirtualMemory physical capacity: 8588881920 num_ppages: 2096895
VirtualMemory page size: 4096 log2_page_size: 12

CPU 0 runs /s/traces/champsim_traces/450.soplex-247B.champsimtrace.xz
CPU 0 Bimodal branch predictor
Basic BTB sets: 1024 ways: 8 indirect buffer size: 4096 RAS size: 64
Initializing LRU.
Initializing LRU.
Initializing LRU.
Initializing LRU.
Initializing rdLRU.
Initializing LRU.
Heartbeat CPU 0 instructions: 2000003 cycles: 532635 heartbeat IPC: 3.75492 cumulative IPC: 3.75492 (Simulation time: 0 hr 1 min 4 sec) 
Heartbeat CPU 0 instructions: 4000003 cycles: 1221837 heartbeat IPC: 2.90191 cumulative IPC: 3.27376 (Simulation time: 0 hr 2 min 26 sec) 
Heartbeat CPU 0 instructions: 6000000 cycles: 2090878 heartbeat IPC: 2.30138 cumulative IPC: 2.86961 (Simulation time: 0 hr 4 min 15 sec) 
Heartbeat CPU 0 instructions: 8000003 cycles: 2832620 heartbeat IPC: 2.69636 cumulative IPC: 2.82424 (Simulation time: 0 hr 5 min 45 sec) 
Heartbeat CPU 0 instructions: 10000000 cycles: 3571149 heartbeat IPC: 2.70808 cumulative IPC: 2.80022 (Simulation time: 0 hr 7 min 11 sec) 
Heartbeat CPU 0 instructions: 12000001 cycles: 4225583 heartbeat IPC: 3.05608 cumulative IPC: 2.83984 (Simulation time: 0 hr 8 min 23 sec) 
Heartbeat CPU 0 instructions: 14000002 cycles: 4814923 heartbeat IPC: 3.39363 cumulative IPC: 2.90763 (Simulation time: 0 hr 9 min 27 sec) 
Heartbeat CPU 0 instructions: 16000002 cycles: 5377878 heartbeat IPC: 3.55268 cumulative IPC: 2.97515 (Simulation time: 0 hr 10 min 22 sec) 
Heartbeat CPU 0 instructions: 18000002 cycles: 6217774 heartbeat IPC: 2.38125 cumulative IPC: 2.89493 (Simulation time: 0 hr 12 min 2 sec) 
Heartbeat CPU 0 instructions: 20000000 cycles: 6833273 heartbeat IPC: 3.24939 cumulative IPC: 2.92686 (Simulation time: 0 hr 13 min 9 sec) 
Heartbeat CPU 0 instructions: 22000002 cycles: 7451847 heartbeat IPC: 3.23325 cumulative IPC: 2.95229 (Simulation time: 0 hr 14 min 17 sec) 
Heartbeat CPU 0 instructions: 24000002 cycles: 8011987 heartbeat IPC: 3.57054 cumulative IPC: 2.99551 (Simulation time: 0 hr 15 min 13 sec) 
Heartbeat CPU 0 instructions: 26000001 cycles: 8698314 heartbeat IPC: 2.91406 cumulative IPC: 2.98909 (Simulation time: 0 hr 16 min 26 sec) 
Heartbeat CPU 0 instructions: 28000000 cycles: 9413712 heartbeat IPC: 2.79565 cumulative IPC: 2.97438 (Simulation time: 0 hr 17 min 46 sec) 
Heartbeat CPU 0 instructions: 30000002 cycles: 10086842 heartbeat IPC: 2.9712 cumulative IPC: 2.97417 (Simulation time: 0 hr 19 min 1 sec) 
Heartbeat CPU 0 instructions: 32000003 cycles: 10677348 heartbeat IPC: 3.38693 cumulative IPC: 2.997 (Simulation time: 0 hr 20 min 1 sec) 
Heartbeat CPU 0 instructions: 34000001 cycles: 11257039 heartbeat IPC: 3.45011 cumulative IPC: 3.02033 (Simulation time: 0 hr 20 min 56 sec) 
Heartbeat CPU 0 instructions: 36000002 cycles: 12013740 heartbeat IPC: 2.64305 cumulative IPC: 2.99657 (Simulation time: 0 hr 22 min 17 sec) 
Heartbeat CPU 0 instructions: 38000001 cycles: 12672068 heartbeat IPC: 3.038 cumulative IPC: 2.99872 (Simulation time: 0 hr 23 min 24 sec) 
Heartbeat CPU 0 instructions: 40000000 cycles: 13313502 heartbeat IPC: 3.11801 cumulative IPC: 3.00447 (Simulation time: 0 hr 24 min 32 sec) 
Heartbeat CPU 0 instructions: 42000002 cycles: 13901065 heartbeat IPC: 3.40389 cumulative IPC: 3.02135 (Simulation time: 0 hr 25 min 34 sec) 
Heartbeat CPU 0 instructions: 44000003 cycles: 14498098 heartbeat IPC: 3.3499 cumulative IPC: 3.03488 (Simulation time: 0 hr 26 min 36 sec) 
Heartbeat CPU 0 instructions: 46000001 cycles: 15294956 heartbeat IPC: 2.50986 cumulative IPC: 3.00753 (Simulation time: 0 hr 28 min 7 sec) 
Heartbeat CPU 0 instructions: 48000001 cycles: 15930478 heartbeat IPC: 3.14702 cumulative IPC: 3.01309 (Simulation time: 0 hr 29 min 11 sec) 
Heartbeat CPU 0 instructions: 50000004 cycles: 16539087 heartbeat IPC: 3.28619 cumulative IPC: 3.02314 (Simulation time: 0 hr 30 min 11 sec) 

Warmup complete CPU 0 instructions: 50000004 cycles: 16539087 (Simulation time: 0 hr 30 min 11 sec) 

Heartbeat CPU 0 instructions: 52000002 cycles: 20673645 heartbeat IPC: 0.483727 cumulative IPC: 0.483727 (Simulation time: 0 hr 31 min 40 sec) 

Region of Interest Statistics
cpu0_DTLB TOTAL     ACCESS:     289345  HIT:     287607  MISS:       1738
cpu0_DTLB LOAD      ACCESS:     270071  HIT:     268344  MISS:       1727
cpu0_DTLB RFO       ACCESS:      19274  HIT:      19263  MISS:         11
cpu0_DTLB PREFETCH  ACCESS:          0  HIT:          0  MISS:          0
cpu0_DTLB WRITEBACK ACCESS:          0  HIT:          0  MISS:          0
cpu0_ITLB TOTAL     ACCESS:     171610  HIT:     171610  MISS:          0
cpu0_ITLB LOAD      ACCESS:     171610  HIT:     171610  MISS:          0
cpu0_ITLB RFO       ACCESS:          0  HIT:          0  MISS:          0
cpu0_ITLB PREFETCH  ACCESS:          0  HIT:          0  MISS:          0
cpu0_ITLB WRITEBACK ACCESS:          0  HIT:          0  MISS:          0
cpu0_L1I TOTAL     ACCESS:       5300  HIT:       5299  MISS:          1
cpu0_L1I LOAD      ACCESS:       5300  HIT:       5299  MISS:          1
cpu0_L1I RFO       ACCESS:          0  HIT:          0  MISS:          0
cpu0_L1I PREFETCH  ACCESS:          0  HIT:          0  MISS:          0
cpu0_L1I WRITEBACK ACCESS:          0  HIT:          0  MISS:          0
cpu0_STLB TOTAL     ACCESS:       1738  HIT:        550  MISS:       1188
cpu0_STLB LOAD      ACCESS:       1727  HIT:        549  MISS:       1178
cpu0_STLB RFO       ACCESS:         11  HIT:          1  MISS:         10
cpu0_STLB PREFETCH  ACCESS:          0  HIT:          0  MISS:          0
cpu0_STLB WRITEBACK ACCESS:          0  HIT:          0  MISS:          0
cpu0_L1D TOTAL     ACCESS:     203032  HIT:     137997  MISS:      65035
cpu0_L1D LOAD      ACCESS:     182928  HIT:     118527  MISS:      64401
cpu0_L1D RFO       ACCESS:      18924  HIT:      18310  MISS:        614
cpu0_L1D PREFETCH  ACCESS:          0  HIT:          0  MISS:          0
cpu0_L1D WRITEBACK ACCESS:          0  HIT:          0  MISS:          0
cpu0_L2C TOTAL     ACCESS:      65719  HIT:        710  MISS:      65009
cpu0_L2C LOAD      ACCESS:      64403  HIT:         12  MISS:      64391
cpu0_L2C RFO       ACCESS:        614  HIT:          1  MISS:        613
cpu0_L2C PREFETCH  ACCESS:          0  HIT:          0  MISS:          0
cpu0_L2C WRITEBACK ACCESS:        682  HIT:        681  MISS:          1
LLC TOTAL     ACCESS:      66340  HIT:      44367  MISS:      21973
LLC LOAD      ACCESS:      64391  HIT:      42432  MISS:      21959
LLC RFO       ACCESS:        613  HIT:        599  MISS:         14
LLC PREFETCH  ACCESS:          0  HIT:          0  MISS:          0
LLC WRITEBACK ACCESS:       1332  HIT:       1332  MISS:          0
Heartbeat CPU 0 instructions: 54000002 cycles: 23941552 heartbeat IPC: 0.612013 cumulative IPC: 0.54036 (Simulation time: 0 hr 33 min 51 sec) 

Region of Interest Statistics
cpu0_DTLB TOTAL     ACCESS:     836743  HIT:     806119  MISS:      30624
cpu0_DTLB LOAD      ACCESS:     720912  HIT:     696561  MISS:      24351
cpu0_DTLB RFO       ACCESS:     115831  HIT:     109558  MISS:       6273
cpu0_DTLB PREFETCH  ACCESS:          0  HIT:          0  MISS:          0
cpu0_DTLB WRITEBACK ACCESS:          0  HIT:          0  MISS:          0
cpu0_ITLB TOTAL     ACCESS:     301778  HIT:     301778  MISS:          0
cpu0_ITLB LOAD      ACCESS:     301778  HIT:     301778  MISS:          0
cpu0_ITLB RFO       ACCESS:          0  HIT:          0  MISS:          0
cpu0_ITLB PREFETCH  ACCESS:          0  HIT:          0  MISS:          0
cpu0_ITLB WRITEBACK ACCESS:          0  HIT:          0  MISS:          0
cpu0_L1I TOTAL     ACCESS:      34115  HIT:      34110  MISS:          5
cpu0_L1I LOAD      ACCESS:      34115  HIT:      34110  MISS:          5
cpu0_L1I RFO       ACCESS:          0  HIT:          0  MISS:          0
cpu0_L1I PREFETCH  ACCESS:          0  HIT:          0  MISS:          0
cpu0_L1I WRITEBACK ACCESS:          0  HIT:          0  MISS:          0
cpu0_STLB TOTAL     ACCESS:      30624  HIT:      27631  MISS:       2993
cpu0_STLB LOAD      ACCESS:      24351  HIT:      21551  MISS:       2800
cpu0_STLB RFO       ACCESS:       6273  HIT:       6080  MISS:        193
cpu0_STLB PREFETCH  ACCESS:          0  HIT:          0  MISS:          0
cpu0_STLB WRITEBACK ACCESS:          0  HIT:          0  MISS:          0
cpu0_L1D TOTAL     ACCESS:     697584  HIT:     490644  MISS:     206940
cpu0_L1D LOAD      ACCESS:     551562  HIT:     364769  MISS:     186793
cpu0_L1D RFO       ACCESS:     143134  HIT:     123078  MISS:      20056
cpu0_L1D PREFETCH  ACCESS:          0  HIT:          0  MISS:          0
cpu0_L1D WRITEBACK ACCESS:          0  HIT:          0  MISS:          0
cpu0_L2C TOTAL     ACCESS:     265335  HIT:     101062  MISS:     164273
cpu0_L2C LOAD      ACCESS:     186793  HIT:      39124  MISS:     147669
cpu0_L2C RFO       ACCESS:      20054  HIT:       3472  MISS:      16582
cpu0_L2C PREFETCH  ACCESS:          0  HIT:          0  MISS:          0
cpu0_L2C WRITEBACK ACCESS:      58397  HIT:      58394  MISS:          3
LLC TOTAL     ACCESS:     200821  HIT:     153053  MISS:      47768
LLC LOAD      ACCESS:     147667  HIT:     103018  MISS:      44649
LLC RFO       ACCESS:      16582  HIT:      13467  MISS:       3115
LLC PREFETCH  ACCESS:          0  HIT:          0  MISS:          0
LLC WRITEBACK ACCESS:      36553  HIT:      36549  MISS:          4
Heartbeat CPU 0 instructions: 56000004 cycles: 26498086 heartbeat IPC: 0.78231 cumulative IPC: 0.60247 (Simulation time: 0 hr 35 min 33 sec) 

Region of Interest Statistics
cpu0_DTLB TOTAL     ACCESS:    1259225  HIT:    1224217  MISS:      35008
cpu0_DTLB LOAD      ACCESS:    1075293  HIT:    1047288  MISS:      28005
cpu0_DTLB RFO       ACCESS:     183932  HIT:     176929  MISS:       7003
cpu0_DTLB PREFETCH  ACCESS:          0  HIT:          0  MISS:          0
cpu0_DTLB WRITEBACK ACCESS:          0  HIT:          0  MISS:          0
cpu0_ITLB TOTAL     ACCESS:     394003  HIT:     394003  MISS:          0
cpu0_ITLB LOAD      ACCESS:     394003  HIT:     394003  MISS:          0
cpu0_ITLB RFO       ACCESS:          0  HIT:          0  MISS:          0
cpu0_ITLB PREFETCH  ACCESS:          0  HIT:          0  MISS:          0
cpu0_ITLB WRITEBACK ACCESS:          0  HIT:          0  MISS:          0
cpu0_L1I TOTAL     ACCESS:      34724  HIT:      34716  MISS:          8
cpu0_L1I LOAD      ACCESS:      34724  HIT:      34716  MISS:          8
cpu0_L1I RFO       ACCESS:          0  HIT:          0  MISS:          0
cpu0_L1I PREFETCH  ACCESS:          0  HIT:          0  MISS:          0
cpu0_L1I WRITEBACK ACCESS:          0  HIT:          0  MISS:          0
cpu0_STLB TOTAL     ACCESS:      35008  HIT:      30881  MISS:       4127
cpu0_STLB LOAD      ACCESS:      28005  HIT:      24227  MISS:       3778
cpu0_STLB RFO       ACCESS:       7003  HIT:       6654  MISS:        349
cpu0_STLB PREFETCH  ACCESS:          0  HIT:          0  MISS:          0
cpu0_STLB WRITEBACK ACCESS:          0  HIT:          0  MISS:          0
cpu0_L1D TOTAL     ACCESS:     997996  HIT:     692496  MISS:     305500
cpu0_L1D LOAD      ACCESS:     772352  HIT:     515602  MISS:     256750
cpu0_L1D RFO       ACCESS:     221681  HIT:     173070  MISS:      48611
cpu0_L1D PREFETCH  ACCESS:          0  HIT:          0  MISS:          0
cpu0_L1D WRITEBACK ACCESS:          0  HIT:          0  MISS:          0
cpu0_L2C TOTAL     ACCESS:     407984  HIT:     168249  MISS:     239735
cpu0_L2C LOAD      ACCESS:     256751  HIT:      61146  MISS:     195605
cpu0_L2C RFO       ACCESS:      48609  HIT:       4521  MISS:      44088
cpu0_L2C PREFETCH  ACCESS:          0  HIT:          0  MISS:          0
cpu0_L2C WRITEBACK ACCESS:     102485  HIT:     102480  MISS:          5
LLC TOTAL     ACCESS:     313665  HIT:     251011  MISS:      62654
LLC LOAD      ACCESS:     195603  HIT:     136457  MISS:      59146
LLC RFO       ACCESS:      44088  HIT:      40592  MISS:       3496
LLC PREFETCH  ACCESS:          0  HIT:          0  MISS:          0
LLC WRITEBACK ACCESS:      73937  HIT:      73926  MISS:         11
Heartbeat CPU 0 instructions: 58000001 cycles: 31900731 heartbeat IPC: 0.370189 cumulative IPC: 0.520777 (Simulation time: 0 hr 37 min 22 sec) 

Region of Interest Statistics
cpu0_DTLB TOTAL     ACCESS:    1742584  HIT:    1694844  MISS:      47740
cpu0_DTLB LOAD      ACCESS:    1447481  HIT:    1406911  MISS:      40570
cpu0_DTLB RFO       ACCESS:     295103  HIT:     287933  MISS:       7170
cpu0_DTLB PREFETCH  ACCESS:          0  HIT:          0  MISS:          0
cpu0_DTLB WRITEBACK ACCESS:          0  HIT:          0  MISS:          0
cpu0_ITLB TOTAL     ACCESS:     592441  HIT:     592441  MISS:          0
cpu0_ITLB LOAD      ACCESS:     592441  HIT:     592441  MISS:          0
cpu0_ITLB RFO       ACCESS:          0  HIT:          0  MISS:          0
cpu0_ITLB PREFETCH  ACCESS:          0  HIT:          0  MISS:          0
cpu0_ITLB WRITEBACK ACCESS:          0  HIT:          0  MISS:          0
cpu0_L1I TOTAL     ACCESS:      34754  HIT:      34746  MISS:          8
cpu0_L1I LOAD      ACCESS:      34754  HIT:      34746  MISS:          8
cpu0_L1I RFO       ACCESS:          0  HIT:          0  MISS:          0
cpu0_L1I PREFETCH  ACCESS:          0  HIT:          0  MISS:          0
cpu0_L1I WRITEBACK ACCESS:          0  HIT:          0  MISS:          0
cpu0_STLB TOTAL     ACCESS:      47740  HIT:      39980  MISS:       7760
cpu0_STLB LOAD      ACCESS:      40570  HIT:      33168  MISS:       7402
cpu0_STLB RFO       ACCESS:       7170  HIT:       6812  MISS:        358
cpu0_STLB PREFETCH  ACCESS:          0  HIT:          0  MISS:          0
cpu0_STLB WRITEBACK ACCESS:          0  HIT:          0  MISS:          0
cpu0_L1D TOTAL     ACCESS:    1435033  HIT:     986366  MISS:     448667
cpu0_L1D LOAD      ACCESS:    1063517  HIT:     665321  MISS:     398196
cpu0_L1D RFO       ACCESS:     363964  HIT:     313874  MISS:      50090
cpu0_L1D PREFETCH  ACCESS:          0  HIT:          0  MISS:          0
cpu0_L1D WRITEBACK ACCESS:          0  HIT:          0  MISS:          0
cpu0_L2C TOTAL     ACCESS:     639450  HIT:     280865  MISS:     358585
cpu0_L2C LOAD      ACCESS:     398177  HIT:      84720  MISS:     313457
cpu0_L2C RFO       ACCESS:      50088  HIT:       5031  MISS:      45057
cpu0_L2C PREFETCH  ACCESS:          0  HIT:          0  MISS:          0
cpu0_L2C WRITEBACK ACCESS:     190804  HIT:     190797  MISS:          7
LLC TOTAL     ACCESS:     501129  HIT:     395865  MISS:     105264
LLC LOAD      ACCESS:     313453  HIT:     211743  MISS:     101710
LLC RFO       ACCESS:      45057  HIT:      41518  MISS:       3539
LLC PREFETCH  ACCESS:          0  HIT:          0  MISS:          0
LLC WRITEBACK ACCESS:     142555  HIT:     142543  MISS:         12
Heartbeat CPU 0 instructions: 60000002 cycles: 34229749 heartbeat IPC: 0.858731 cumulative IPC: 0.56527 (Simulation time: 0 hr 38 min 15 sec) 

Region of Interest Statistics
cpu0_DTLB TOTAL     ACCESS:    2099499  HIT:    2051384  MISS:      48115
cpu0_DTLB LOAD      ACCESS:    1751340  HIT:    1710421  MISS:      40919
cpu0_DTLB RFO       ACCESS:     348159  HIT:     340963  MISS:       7196
cpu0_DTLB PREFETCH  ACCESS:          0  HIT:          0  MISS:          0
cpu0_DTLB WRITEBACK ACCESS:          0  HIT:          0  MISS:          0
cpu0_ITLB TOTAL     ACCESS:     789778  HIT:     789778  MISS:          0
cpu0_ITLB LOAD      ACCESS:     789778  HIT:     789778  MISS:          0
cpu0_ITLB RFO       ACCESS:          0  HIT:          0  MISS:          0
cpu0_ITLB PREFETCH  ACCESS:          0  HIT:          0  MISS:          0
cpu0_ITLB WRITEBACK ACCESS:          0  HIT:          0  MISS:          0
cpu0_L1I TOTAL     ACCESS:      34754  HIT:      34746  MISS:          8
cpu0_L1I LOAD      ACCESS:      34754  HIT:      34746  MISS:          8
cpu0_L1I RFO       ACCESS:          0  HIT:          0  MISS:          0
cpu0_L1I PREFETCH  ACCESS:          0  HIT:          0  MISS:          0
cpu0_L1I WRITEBACK ACCESS:          0  HIT:          0  MISS:          0
cpu0_STLB TOTAL     ACCESS:      48115  HIT:      40279  MISS:       7836
cpu0_STLB LOAD      ACCESS:      40919  HIT:      33467  MISS:       7452
cpu0_STLB RFO       ACCESS:       7196  HIT:       6812  MISS:        384
cpu0_STLB PREFETCH  ACCESS:          0  HIT:          0  MISS:          0
cpu0_STLB WRITEBACK ACCESS:          0  HIT:          0  MISS:          0
cpu0_L1D TOTAL     ACCESS:    1687328  HIT:    1214639  MISS:     472689
cpu0_L1D LOAD      ACCESS:    1264166  HIT:     843622  MISS:     420544
cpu0_L1D RFO       ACCESS:     415534  HIT:     363786  MISS:      51748
cpu0_L1D PREFETCH  ACCESS:          0  HIT:          0  MISS:          0
cpu0_L1D WRITEBACK ACCESS:          0  HIT:          0  MISS:          0
cpu0_L2C TOTAL     ACCESS:     665184  HIT:     282730  MISS:     382454
cpu0_L2C LOAD      ACCESS:     420525  HIT:      84859  MISS:     335666
cpu0_L2C RFO       ACCESS:      51746  HIT:       5031  MISS:      46715
cpu0_L2C PREFETCH  ACCESS:          0  HIT:          0  MISS:          0
cpu0_L2C WRITEBACK ACCESS:     192516  HIT:     192509  MISS:          7
LLC TOTAL     ACCESS:     528279  HIT:     422616  MISS:     105663
LLC LOAD      ACCESS:     335662  HIT:     233581  MISS:     102081
LLC RFO       ACCESS:      46715  HIT:      43148  MISS:       3567
LLC PREFETCH  ACCESS:          0  HIT:          0  MISS:          0
LLC WRITEBACK ACCESS:     145836  HIT:     145824  MISS:         12
Heartbeat CPU 0 instructions: 62000000 cycles: 38790088 heartbeat IPC: 0.438563 cumulative IPC: 0.539301 (Simulation time: 0 hr 40 min 20 sec) 

Region of Interest Statistics
cpu0_DTLB TOTAL     ACCESS:    2420210  HIT:    2363492  MISS:      56718
cpu0_DTLB LOAD      ACCESS:    2018506  HIT:    1970224  MISS:      48282
cpu0_DTLB RFO       ACCESS:     401704  HIT:     393268  MISS:       8436
cpu0_DTLB PREFETCH  ACCESS:          0  HIT:          0  MISS:          0
cpu0_DTLB WRITEBACK ACCESS:          0  HIT:          0  MISS:          0
cpu0_ITLB TOTAL     ACCESS:     908677  HIT:     908677  MISS:          0
cpu0_ITLB LOAD      ACCESS:     908677  HIT:     908677  MISS:          0
cpu0_ITLB RFO       ACCESS:          0  HIT:          0  MISS:          0
cpu0_ITLB PREFETCH  ACCESS:          0  HIT:          0  MISS:          0
cpu0_ITLB WRITEBACK ACCESS:          0  HIT:          0  MISS:          0
cpu0_L1I TOTAL     ACCESS:      40041  HIT:      39997  MISS:         44
cpu0_L1I LOAD      ACCESS:      40041  HIT:      39997  MISS:         44
cpu0_L1I RFO       ACCESS:          0  HIT:          0  MISS:          0
cpu0_L1I PREFETCH  ACCESS:          0  HIT:          0  MISS:          0
cpu0_L1I WRITEBACK ACCESS:          0  HIT:          0  MISS:          0
cpu0_STLB TOTAL     ACCESS:      56719  HIT:      46531  MISS:      10188
cpu0_STLB LOAD      ACCESS:      48282  HIT:      38683  MISS:       9599
cpu0_STLB RFO       ACCESS:       8437  HIT:       7848  MISS:        589
cpu0_STLB PREFETCH  ACCESS:          0  HIT:          0  MISS:          0
cpu0_STLB WRITEBACK ACCESS:          0  HIT:          0  MISS:          0
cpu0_L1D TOTAL     ACCESS:    1949593  HIT:    1374623  MISS:     574970
cpu0_L1D LOAD      ACCESS:    1481299  HIT:     970156  MISS:     511143
cpu0_L1D RFO       ACCESS:     458406  HIT:     395013  MISS:      63393
cpu0_L1D PREFETCH  ACCESS:          0  HIT:          0  MISS:          0
cpu0_L1D WRITEBACK ACCESS:          0  HIT:          0  MISS:          0
cpu0_L2C TOTAL     ACCESS:     786070  HIT:     316303  MISS:     469767
cpu0_L2C LOAD      ACCESS:     511157  HIT:      99270  MISS:     411887
cpu0_L2C RFO       ACCESS:      63391  HIT:       5599  MISS:      57792
cpu0_L2C PREFETCH  ACCESS:          0  HIT:          0  MISS:          0
cpu0_L2C WRITEBACK ACCESS:     211088  HIT:     211080  MISS:          8
LLC TOTAL     ACCESS:     625970  HIT:     485597  MISS:     140373
LLC LOAD      ACCESS:     411881  HIT:     278076  MISS:     133805
LLC RFO       ACCESS:      57792  HIT:      51243  MISS:       6549
LLC PREFETCH  ACCESS:          0  HIT:          0  MISS:          0
LLC WRITEBACK ACCESS:     156217  HIT:     156201  MISS:         16
Heartbeat CPU 0 instructions: 64000000 cycles: 41741069 heartbeat IPC: 0.677741 cumulative IPC: 0.555512 (Simulation time: 0 hr 42 min 23 sec) 

Region of Interest Statistics
cpu0_DTLB TOTAL     ACCESS:    2980545  HIT:    2899537  MISS:      81008
cpu0_DTLB LOAD      ACCESS:    2509654  HIT:    2442883  MISS:      66771
cpu0_DTLB RFO       ACCESS:     470891  HIT:     456654  MISS:      14237
cpu0_DTLB PREFETCH  ACCESS:          0  HIT:          0  MISS:          0
cpu0_DTLB WRITEBACK ACCESS:          0  HIT:          0  MISS:          0
cpu0_ITLB TOTAL     ACCESS:    1032211  HIT:    1032211  MISS:          0
cpu0_ITLB LOAD      ACCESS:    1032211  HIT:    1032211  MISS:          0
cpu0_ITLB RFO       ACCESS:          0  HIT:          0  MISS:          0
cpu0_ITLB PREFETCH  ACCESS:          0  HIT:          0  MISS:          0
cpu0_ITLB WRITEBACK ACCESS:          0  HIT:          0  MISS:          0
cpu0_L1I TOTAL     ACCESS:      64545  HIT:      64495  MISS:         50
cpu0_L1I LOAD      ACCESS:      64545  HIT:      64495  MISS:         50
cpu0_L1I RFO       ACCESS:          0  HIT:          0  MISS:          0
cpu0_L1I PREFETCH  ACCESS:          0  HIT:          0  MISS:          0
cpu0_L1I WRITEBACK ACCESS:          0  HIT:          0  MISS:          0
cpu0_STLB TOTAL     ACCESS:      81008  HIT:      69058  MISS:      11950
cpu0_STLB LOAD      ACCESS:      66771  HIT:      55580  MISS:      11191
cpu0_STLB RFO       ACCESS:      14237  HIT:      13478  MISS:        759
cpu0_STLB PREFETCH  ACCESS:          0  HIT:          0  MISS:          0
cpu0_STLB WRITEBACK ACCESS:          0  HIT:          0  MISS:          0
cpu0_L1D TOTAL     ACCESS:    2436988  HIT:    1711619  MISS:     725369
cpu0_L1D LOAD      ACCESS:    1837851  HIT:    1207115  MISS:     630736
cpu0_L1D RFO       ACCESS:     587627  HIT:     493501  MISS:      94126
cpu0_L1D PREFETCH  ACCESS:          0  HIT:          0  MISS:          0
cpu0_L1D WRITEBACK ACCESS:          0  HIT:          0  MISS:          0
cpu0_L2C TOTAL     ACCESS:    1009806  HIT:     418252  MISS:     591554
cpu0_L2C LOAD      ACCESS:     630751  HIT:     124906  MISS:     505845
cpu0_L2C RFO       ACCESS:      94122  HIT:       8522  MISS:      85600
cpu0_L2C PREFETCH  ACCESS:          0  HIT:          0  MISS:          0
cpu0_L2C WRITEBACK ACCESS:     284426  HIT:     284414  MISS:         12
LLC TOTAL     ACCESS:     806797  HIT:     646556  MISS:     160241
LLC LOAD      ACCESS:     505838  HIT:     352915  MISS:     152923
LLC RFO       ACCESS:      85600  HIT:      78326  MISS:       7274
LLC PREFETCH  ACCESS:          0  HIT:          0  MISS:          0
LLC WRITEBACK ACCESS:     215262  HIT:     215222  MISS:         40
Heartbeat CPU 0 instructions: 66000003 cycles: 45581654 heartbeat IPC: 0.520755 cumulative IPC: 0.550915 (Simulation time: 0 hr 44 min 19 sec) 

Region of Interest Statistics
cpu0_DTLB TOTAL     ACCESS:    3426589  HIT:    3337180  MISS:      89409
cpu0_DTLB LOAD      ACCESS:    2857554  HIT:    2782607  MISS:      74947
cpu0_DTLB RFO       ACCESS:     569035  HIT:     554573  MISS:      14462
cpu0_DTLB PREFETCH  ACCESS:          0  HIT:          0  MISS:          0
cpu0_DTLB WRITEBACK ACCESS:          0  HIT:          0  MISS:          0
cpu0_ITLB TOTAL     ACCESS:    1176319  HIT:    1176319  MISS:          0
cpu0_ITLB LOAD      ACCESS:    1176319  HIT:    1176319  MISS:          0
cpu0_ITLB RFO       ACCESS:          0  HIT:          0  MISS:          0
cpu0_ITLB PREFETCH  ACCESS:          0  HIT:          0  MISS:          0
cpu0_ITLB WRITEBACK ACCESS:          0  HIT:          0  MISS:          0
cpu0_L1I TOTAL     ACCESS:      64695  HIT:      64644  MISS:         51
cpu0_L1I LOAD      ACCESS:      64695  HIT:      64644  MISS:         51
cpu0_L1I RFO       ACCESS:          0  HIT:          0  MISS:          0
cpu0_L1I PREFETCH  ACCESS:          0  HIT:          0  MISS:          0
cpu0_L1I WRITEBACK ACCESS:          0  HIT:          0  MISS:          0
cpu0_STLB TOTAL     ACCESS:      89409  HIT:      75655  MISS:      13754
cpu0_STLB LOAD      ACCESS:      74947  HIT:      62040  MISS:      12907
cpu0_STLB RFO       ACCESS:      14462  HIT:      13615  MISS:        847
cpu0_STLB PREFETCH  ACCESS:          0  HIT:          0  MISS:          0
cpu0_STLB WRITEBACK ACCESS:          0  HIT:          0  MISS:          0
cpu0_L1D TOTAL     ACCESS:    2788563  HIT:    1951754  MISS:     836809
cpu0_L1D LOAD      ACCESS:    2085151  HIT:    1351070  MISS:     734081
cpu0_L1D RFO       ACCESS:     690135  HIT:     588054  MISS:     102081
cpu0_L1D PREFETCH  ACCESS:          0  HIT:          0  MISS:          0
cpu0_L1D WRITEBACK ACCESS:          0  HIT:          0  MISS:          0
cpu0_L2C TOTAL     ACCESS:    1173491  HIT:     504982  MISS:     668509
cpu0_L2C LOAD      ACCESS:     734084  HIT:     157706  MISS:     576378
cpu0_L2C RFO       ACCESS:     102077  HIT:      10079  MISS:      91998
cpu0_L2C PREFETCH  ACCESS:          0  HIT:          0  MISS:          0
cpu0_L2C WRITEBACK ACCESS:     336683  HIT:     336668  MISS:         15
LLC TOTAL     ACCESS:     919022  HIT:     730186  MISS:     188836
LLC LOAD      ACCESS:     576371  HIT:     395065  MISS:     181306
LLC RFO       ACCESS:      91998  HIT:      84514  MISS:       7484
LLC PREFETCH  ACCESS:          0  HIT:          0  MISS:          0
LLC WRITEBACK ACCESS:     250535  HIT:     250493  MISS:         42
Heartbeat CPU 0 instructions: 68000000 cycles: 49882315 heartbeat IPC: 0.465044 cumulative IPC: 0.53984 (Simulation time: 0 hr 45 min 45 sec) 

Region of Interest Statistics
cpu0_DTLB TOTAL     ACCESS:    3856841  HIT:    3760147  MISS:      96694
cpu0_DTLB LOAD      ACCESS:    3197927  HIT:    3115790  MISS:      82137
cpu0_DTLB RFO       ACCESS:     658914  HIT:     644357  MISS:      14557
cpu0_DTLB PREFETCH  ACCESS:          0  HIT:          0  MISS:          0
cpu0_DTLB WRITEBACK ACCESS:          0  HIT:          0  MISS:          0
cpu0_ITLB TOTAL     ACCESS:    1381117  HIT:    1381117  MISS:          0
cpu0_ITLB LOAD      ACCESS:    1381117  HIT:    1381117  MISS:          0
cpu0_ITLB RFO       ACCESS:          0  HIT:          0  MISS:          0
cpu0_ITLB PREFETCH  ACCESS:          0  HIT:          0  MISS:          0
cpu0_ITLB WRITEBACK ACCESS:          0  HIT:          0  MISS:          0
cpu0_L1I TOTAL     ACCESS:      64704  HIT:      64653  MISS:         51
cpu0_L1I LOAD      ACCESS:      64704  HIT:      64653  MISS:         51
cpu0_L1I RFO       ACCESS:          0  HIT:          0  MISS:          0
cpu0_L1I PREFETCH  ACCESS:          0  HIT:          0  MISS:          0
cpu0_L1I WRITEBACK ACCESS:          0  HIT:          0  MISS:          0
cpu0_STLB TOTAL     ACCESS:      96694  HIT:      80796  MISS:      15898
cpu0_STLB LOAD      ACCESS:      82137  HIT:      67107  MISS:      15030
cpu0_STLB RFO       ACCESS:      14557  HIT:      13689  MISS:        868
cpu0_STLB PREFETCH  ACCESS:          0  HIT:          0  MISS:          0
cpu0_STLB WRITEBACK ACCESS:          0  HIT:          0  MISS:          0
cpu0_L1D TOTAL     ACCESS:    3158266  HIT:    2232445  MISS:     925821
cpu0_L1D LOAD      ACCESS:    2346362  HIT:    1524774  MISS:     821588
cpu0_L1D RFO       ACCESS:     796489  HIT:     693027  MISS:     103462
cpu0_L1D PREFETCH  ACCESS:          0  HIT:          0  MISS:          0
cpu0_L1D WRITEBACK ACCESS:          0  HIT:          0  MISS:          0
cpu0_L2C TOTAL     ACCESS:    1311836  HIT:     567294  MISS:     744542
cpu0_L2C LOAD      ACCESS:     821583  HIT:     170566  MISS:     651017
cpu0_L2C RFO       ACCESS:     103458  HIT:      10079  MISS:      93379
cpu0_L2C PREFETCH  ACCESS:          0  HIT:          0  MISS:          0
cpu0_L2C WRITEBACK ACCESS:     386024  HIT:     386009  MISS:         15
LLC TOTAL     ACCESS:    1036136  HIT:     823834  MISS:     212302
LLC LOAD      ACCESS:     651008  HIT:     446248  MISS:     204760
LLC RFO       ACCESS:      93379  HIT:      85883  MISS:       7496
LLC PREFETCH  ACCESS:          0  HIT:          0  MISS:          0
LLC WRITEBACK ACCESS:     291618  HIT:     291576  MISS:         42
Heartbeat CPU 0 instructions: 70000000 cycles: 53626692 heartbeat IPC: 0.534134 cumulative IPC: 0.539264 (Simulation time: 0 hr 47 min 2 sec) 

Region of Interest Statistics
cpu0_DTLB TOTAL     ACCESS:    4160486  HIT:    4062370  MISS:      98116
cpu0_DTLB LOAD      ACCESS:    3474858  HIT:    3391313  MISS:      83545
cpu0_DTLB RFO       ACCESS:     685628  HIT:     671057  MISS:      14571
cpu0_DTLB PREFETCH  ACCESS:          0  HIT:          0  MISS:          0
cpu0_DTLB WRITEBACK ACCESS:          0  HIT:          0  MISS:          0
cpu0_ITLB TOTAL     ACCESS:    1556803  HIT:    1556803  MISS:          0
cpu0_ITLB LOAD      ACCESS:    1556803  HIT:    1556803  MISS:          0
cpu0_ITLB RFO       ACCESS:          0  HIT:          0  MISS:          0
cpu0_ITLB PREFETCH  ACCESS:          0  HIT:          0  MISS:          0
cpu0_ITLB WRITEBACK ACCESS:          0  HIT:          0  MISS:          0
cpu0_L1I TOTAL     ACCESS:      68215  HIT:      68163  MISS:         52
cpu0_L1I LOAD      ACCESS:      68215  HIT:      68163  MISS:         52
cpu0_L1I RFO       ACCESS:          0  HIT:          0  MISS:          0
cpu0_L1I PREFETCH  ACCESS:          0  HIT:          0  MISS:          0
cpu0_L1I WRITEBACK ACCESS:          0  HIT:          0  MISS:          0
cpu0_STLB TOTAL     ACCESS:      98116  HIT:      81299  MISS:      16817
cpu0_STLB LOAD      ACCESS:      83545  HIT:      67609  MISS:      15936
cpu0_STLB RFO       ACCESS:      14571  HIT:      13690  MISS:        881
cpu0_STLB PREFETCH  ACCESS:          0  HIT:          0  MISS:          0
cpu0_STLB WRITEBACK ACCESS:          0  HIT:          0  MISS:          0
cpu0_L1D TOTAL     ACCESS:    3371887  HIT:    2390243  MISS:     981644
cpu0_L1D LOAD      ACCESS:    2532995  HIT:    1656451  MISS:     876544
cpu0_L1D RFO       ACCESS:     822566  HIT:     718259  MISS:     104307
cpu0_L1D PREFETCH  ACCESS:          0  HIT:          0  MISS:          0
cpu0_L1D WRITEBACK ACCESS:          0  HIT:          0  MISS:          0
cpu0_L2C TOTAL     ACCESS:    1368586  HIT:     568248  MISS:     800338
cpu0_L2C LOAD      ACCESS:     876540  HIT:     170577  MISS:     705963
cpu0_L2C RFO       ACCESS:     104303  HIT:      10080  MISS:      94223
cpu0_L2C PREFETCH  ACCESS:          0  HIT:          0  MISS:          0
cpu0_L2C WRITEBACK ACCESS:     386950  HIT:     386934  MISS:         16
LLC TOTAL     ACCESS:    1093627  HIT:     864124  MISS:     229503
LLC LOAD      ACCESS:     705954  HIT:     484050  MISS:     221904
LLC RFO       ACCESS:      94223  HIT:      86670  MISS:       7553
LLC PREFETCH  ACCESS:          0  HIT:          0  MISS:          0
LLC WRITEBACK ACCESS:     293314  HIT:     293272  MISS:         42
Heartbeat CPU 0 instructions: 72000001 cycles: 57541284 heartbeat IPC: 0.510909 cumulative IPC: 0.536557 (Simulation time: 0 hr 49 min 14 sec) 

Region of Interest Statistics
cpu0_DTLB TOTAL     ACCESS:    4669226  HIT:    4542182  MISS:     127044
cpu0_DTLB LOAD      ACCESS:    3893270  HIT:    3787044  MISS:     106226
cpu0_DTLB RFO       ACCESS:     775956  HIT:     755138  MISS:      20818
cpu0_DTLB PREFETCH  ACCESS:          0  HIT:          0  MISS:          0
cpu0_DTLB WRITEBACK ACCESS:          0  HIT:          0  MISS:          0
cpu0_ITLB TOTAL     ACCESS:    1704395  HIT:    1704395  MISS:          0
cpu0_ITLB LOAD      ACCESS:    1704395  HIT:    1704395  MISS:          0
cpu0_ITLB RFO       ACCESS:          0  HIT:          0  MISS:          0
cpu0_ITLB PREFETCH  ACCESS:          0  HIT:          0  MISS:          0
cpu0_ITLB WRITEBACK ACCESS:          0  HIT:          0  MISS:          0
cpu0_L1I TOTAL     ACCESS:      97854  HIT:      97802  MISS:         52
cpu0_L1I LOAD      ACCESS:      97854  HIT:      97802  MISS:         52
cpu0_L1I RFO       ACCESS:          0  HIT:          0  MISS:          0
cpu0_L1I PREFETCH  ACCESS:          0  HIT:          0  MISS:          0
cpu0_L1I WRITEBACK ACCESS:          0  HIT:          0  MISS:          0
cpu0_STLB TOTAL     ACCESS:     127044  HIT:     108476  MISS:      18568
cpu0_STLB LOAD      ACCESS:     106226  HIT:      88716  MISS:      17510
cpu0_STLB RFO       ACCESS:      20818  HIT:      19760  MISS:       1058
cpu0_STLB PREFETCH  ACCESS:          0  HIT:          0  MISS:          0
cpu0_STLB WRITEBACK ACCESS:          0  HIT:          0  MISS:          0
cpu0_L1D TOTAL     ACCESS:    3829492  HIT:    2709929  MISS:    1119563
cpu0_L1D LOAD      ACCESS:    2881674  HIT:    1886681  MISS:     994993
cpu0_L1D RFO       ACCESS:     929849  HIT:     806145  MISS:     123704
cpu0_L1D PREFETCH  ACCESS:          0  HIT:          0  MISS:          0
cpu0_L1D WRITEBACK ACCESS:          0  HIT:          0  MISS:          0
cpu0_L2C TOTAL     ACCESS:    1555798  HIT:     660083  MISS:     895715
cpu0_L2C LOAD      ACCESS:     994982  HIT:     209576  MISS:     785406
cpu0_L2C RFO       ACCESS:     123698  HIT:      13558  MISS:     110140
cpu0_L2C PREFETCH  ACCESS:          0  HIT:          0  MISS:          0
cpu0_L2C WRITEBACK ACCESS:     436252  HIT:     436234  MISS:         18
LLC TOTAL     ACCESS:    1215829  HIT:     956385  MISS:     259444
LLC LOAD      ACCESS:     785395  HIT:     536463  MISS:     248932
LLC RFO       ACCESS:     110140  HIT:      99680  MISS:      10460
LLC PREFETCH  ACCESS:          0  HIT:          0  MISS:          0
LLC WRITEBACK ACCESS:     320143  HIT:     320095  MISS:         48
Heartbeat CPU 0 instructions: 74000000 cycles: 60172478 heartbeat IPC: 0.760111 cumulative IPC: 0.550037 (Simulation time: 0 hr 51 min 6 sec) 

Region of Interest Statistics
cpu0_DTLB TOTAL     ACCESS:    5091661  HIT:    4959929  MISS:     131732
cpu0_DTLB LOAD      ACCESS:    4267319  HIT:    4157122  MISS:     110197
cpu0_DTLB RFO       ACCESS:     824342  HIT:     802807  MISS:      21535
cpu0_DTLB PREFETCH  ACCESS:          0  HIT:          0  MISS:          0
cpu0_DTLB WRITEBACK ACCESS:          0  HIT:          0  MISS:          0
cpu0_ITLB TOTAL     ACCESS:    1788519  HIT:    1788519  MISS:          0
cpu0_ITLB LOAD      ACCESS:    1788519  HIT:    1788519  MISS:          0
cpu0_ITLB RFO       ACCESS:          0  HIT:          0  MISS:          0
cpu0_ITLB PREFETCH  ACCESS:          0  HIT:          0  MISS:          0
cpu0_ITLB WRITEBACK ACCESS:          0  HIT:          0  MISS:          0
cpu0_L1I TOTAL     ACCESS:      98186  HIT:      98128  MISS:         58
cpu0_L1I LOAD      ACCESS:      98186  HIT:      98128  MISS:         58
cpu0_L1I RFO       ACCESS:          0  HIT:          0  MISS:          0
cpu0_L1I PREFETCH  ACCESS:          0  HIT:          0  MISS:          0
cpu0_L1I WRITEBACK ACCESS:          0  HIT:          0  MISS:          0
cpu0_STLB TOTAL     ACCESS:     131732  HIT:     111651  MISS:      20081
cpu0_STLB LOAD      ACCESS:     110197  HIT:      91353  MISS:      18844
cpu0_STLB RFO       ACCESS:      21535  HIT:      20298  MISS:       1237
cpu0_STLB PREFETCH  ACCESS:          0  HIT:          0  MISS:          0
cpu0_STLB WRITEBACK ACCESS:          0  HIT:          0  MISS:          0
cpu0_L1D TOTAL     ACCESS:    4142176  HIT:    2906345  MISS:    1235831
cpu0_L1D LOAD      ACCESS:    3116099  HIT:    2033021  MISS:    1083078
cpu0_L1D RFO       ACCESS:    1006672  HIT:     854835  MISS:     151837
cpu0_L1D PREFETCH  ACCESS:          0  HIT:          0  MISS:          0
cpu0_L1D WRITEBACK ACCESS:          0  HIT:          0  MISS:          0
cpu0_L2C TOTAL     ACCESS:    1724340  HIT:     733886  MISS:     990454
cpu0_L2C LOAD      ACCESS:    1083071  HIT:     231022  MISS:     852049
cpu0_L2C RFO       ACCESS:     151831  HIT:      13613  MISS:     138218
cpu0_L2C PREFETCH  ACCESS:          0  HIT:          0  MISS:          0
cpu0_L2C WRITEBACK ACCESS:     488522  HIT:     488502  MISS:         20
LLC TOTAL     ACCESS:    1357765  HIT:    1081143  MISS:     276622
LLC LOAD      ACCESS:     852038  HIT:     586602  MISS:     265436
LLC RFO       ACCESS:     138218  HIT:     127098  MISS:      11120
LLC PREFETCH  ACCESS:          0  HIT:          0  MISS:          0
LLC WRITEBACK ACCESS:     367342  HIT:     367281  MISS:         61
Heartbeat CPU 0 instructions: 76000000 cycles: 65337736 heartbeat IPC: 0.387202 cumulative IPC: 0.532802 (Simulation time: 0 hr 53 min 5 sec) 

Region of Interest Statistics
cpu0_DTLB TOTAL     ACCESS:    5603383  HIT:    5458899  MISS:     144484
cpu0_DTLB LOAD      ACCESS:    4648248  HIT:    4525503  MISS:     122745
cpu0_DTLB RFO       ACCESS:     955135  HIT:     933396  MISS:      21739
cpu0_DTLB PREFETCH  ACCESS:          0  HIT:          0  MISS:          0
cpu0_DTLB WRITEBACK ACCESS:          0  HIT:          0  MISS:          0
cpu0_ITLB TOTAL     ACCESS:    1971302  HIT:    1971302  MISS:          0
cpu0_ITLB LOAD      ACCESS:    1971302  HIT:    1971302  MISS:          0
cpu0_ITLB RFO       ACCESS:          0  HIT:          0  MISS:          0
cpu0_ITLB PREFETCH  ACCESS:          0  HIT:          0  MISS:          0
cpu0_ITLB WRITEBACK ACCESS:          0  HIT:          0  MISS:          0
cpu0_L1I TOTAL     ACCESS:      98216  HIT:      98158  MISS:         58
cpu0_L1I LOAD      ACCESS:      98216  HIT:      98158  MISS:         58
cpu0_L1I RFO       ACCESS:          0  HIT:          0  MISS:          0
cpu0_L1I PREFETCH  ACCESS:          0  HIT:          0  MISS:          0
cpu0_L1I WRITEBACK ACCESS:          0  HIT:          0  MISS:          0
cpu0_STLB TOTAL     ACCESS:     144484  HIT:     120781  MISS:      23703
cpu0_STLB LOAD      ACCESS:     122745  HIT:     100291  MISS:      22454
cpu0_STLB RFO       ACCESS:      21739  HIT:      20490  MISS:       1249
cpu0_STLB PREFETCH  ACCESS:          0  HIT:          0  MISS:          0
cpu0_STLB WRITEBACK ACCESS:          0  HIT:          0  MISS:          0
cpu0_L1D TOTAL     ACCESS:    4599576  HIT:    3219685  MISS:    1379891
cpu0_L1D LOAD      ACCESS:    3413421  HIT:    2189736  MISS:    1223685
cpu0_L1D RFO       ACCESS:    1163169  HIT:    1008121  MISS:     155048
cpu0_L1D PREFETCH  ACCESS:          0  HIT:          0  MISS:          0
cpu0_L1D WRITEBACK ACCESS:          0  HIT:          0  MISS:          0
cpu0_L2C TOTAL     ACCESS:    1958957  HIT:     850117  MISS:    1108840
cpu0_L2C LOAD      ACCESS:    1223657  HIT:     254947  MISS:     968710
cpu0_L2C RFO       ACCESS:     155042  HIT:      15129  MISS:     139913
cpu0_L2C PREFETCH  ACCESS:          0  HIT:          0  MISS:          0
cpu0_L2C WRITEBACK ACCESS:     579100  HIT:     579078  MISS:         22
LLC TOTAL     ACCESS:    1544463  HIT:    1225166  MISS:     319297
LLC LOAD      ACCESS:     968697  HIT:     660776  MISS:     307921
LLC RFO       ACCESS:     139913  HIT:     128605  MISS:      11308
LLC PREFETCH  ACCESS:          0  HIT:          0  MISS:          0
LLC WRITEBACK ACCESS:     435658  HIT:     435596  MISS:         62
Heartbeat CPU 0 instructions: 78000002 cycles: 67768181 heartbeat IPC: 0.822895 cumulative IPC: 0.546564 (Simulation time: 0 hr 53 min 56 sec) 

Region of Interest Statistics
cpu0_DTLB TOTAL     ACCESS:    5965835  HIT:    5820978  MISS:     144857
cpu0_DTLB LOAD      ACCESS:    4952821  HIT:    4829731  MISS:     123090
cpu0_DTLB RFO       ACCESS:    1013014  HIT:     991247  MISS:      21767
cpu0_DTLB PREFETCH  ACCESS:          0  HIT:          0  MISS:          0
cpu0_DTLB WRITEBACK ACCESS:          0  HIT:          0  MISS:          0
cpu0_ITLB TOTAL     ACCESS:    2169490  HIT:    2169490  MISS:          0
cpu0_ITLB LOAD      ACCESS:    2169490  HIT:    2169490  MISS:          0
cpu0_ITLB RFO       ACCESS:          0  HIT:          0  MISS:          0
cpu0_ITLB PREFETCH  ACCESS:          0  HIT:          0  MISS:          0
cpu0_ITLB WRITEBACK ACCESS:          0  HIT:          0  MISS:          0
cpu0_L1I TOTAL     ACCESS:      98216  HIT:      98158  MISS:         58
cpu0_L1I LOAD      ACCESS:      98216  HIT:      98158  MISS:         58
cpu0_L1I RFO       ACCESS:          0  HIT:          0  MISS:          0
cpu0_L1I PREFETCH  ACCESS:          0  HIT:          0  MISS:          0
cpu0_L1I WRITEBACK ACCESS:          0  HIT:          0  MISS:          0
cpu0_STLB TOTAL     ACCESS:     144857  HIT:     121068  MISS:      23789
cpu0_STLB LOAD      ACCESS:     123090  HIT:     100578  MISS:      22512
cpu0_STLB RFO       ACCESS:      21767  HIT:      20490  MISS:       1277
cpu0_STLB PREFETCH  ACCESS:          0  HIT:          0  MISS:          0
cpu0_STLB WRITEBACK ACCESS:          0  HIT:          0  MISS:          0
cpu0_L1D TOTAL     ACCESS:    4862905  HIT:    3459086  MISS:    1403819
cpu0_L1D LOAD      ACCESS:    3620517  HIT:    2374725  MISS:    1245792
cpu0_L1D RFO       ACCESS:    1219316  HIT:    1062459  MISS:     156857
cpu0_L1D PREFETCH  ACCESS:          0  HIT:          0  MISS:          0
cpu0_L1D WRITEBACK ACCESS:          0  HIT:          0  MISS:          0
cpu0_L2C TOTAL     ACCESS:    1984722  HIT:     852357  MISS:    1132365
cpu0_L2C LOAD      ACCESS:    1245764  HIT:     255340  MISS:     990424
cpu0_L2C RFO       ACCESS:     156851  HIT:      15129  MISS:     141722
cpu0_L2C PREFETCH  ACCESS:          0  HIT:          0  MISS:          0
cpu0_L2C WRITEBACK ACCESS:     580937  HIT:     580915  MISS:         22
LLC TOTAL     ACCESS:    1572188  HIT:    1252492  MISS:     319696
LLC LOAD      ACCESS:     990411  HIT:     682108  MISS:     308303
LLC RFO       ACCESS:     141722  HIT:     130397  MISS:      11325
LLC PREFETCH  ACCESS:          0  HIT:          0  MISS:          0
LLC WRITEBACK ACCESS:     439858  HIT:     439796  MISS:         62
Heartbeat CPU 0 instructions: 80000001 cycles: 72227251 heartbeat IPC: 0.448524 cumulative IPC: 0.538714 (Simulation time: 0 hr 55 min 56 sec) 

Region of Interest Statistics
cpu0_DTLB TOTAL     ACCESS:    6267957  HIT:    6119560  MISS:     148397
cpu0_DTLB LOAD      ACCESS:    5208696  HIT:    5082228  MISS:     126468
cpu0_DTLB RFO       ACCESS:    1059261  HIT:    1037332  MISS:      21929
cpu0_DTLB PREFETCH  ACCESS:          0  HIT:          0  MISS:          0
cpu0_DTLB WRITEBACK ACCESS:          0  HIT:          0  MISS:          0
cpu0_ITLB TOTAL     ACCESS:    2298974  HIT:    2298974  MISS:          0
cpu0_ITLB LOAD      ACCESS:    2298974  HIT:    2298974  MISS:          0
cpu0_ITLB RFO       ACCESS:          0  HIT:          0  MISS:          0
cpu0_ITLB PREFETCH  ACCESS:          0  HIT:          0  MISS:          0
cpu0_ITLB WRITEBACK ACCESS:          0  HIT:          0  MISS:          0
cpu0_L1I TOTAL     ACCESS:     105135  HIT:     105076  MISS:         59
cpu0_L1I LOAD      ACCESS:     105135  HIT:     105076  MISS:         59
cpu0_L1I RFO       ACCESS:          0  HIT:          0  MISS:          0
cpu0_L1I PREFETCH  ACCESS:          0  HIT:          0  MISS:          0
cpu0_L1I WRITEBACK ACCESS:          0  HIT:          0  MISS:          0
cpu0_STLB TOTAL     ACCESS:     148397  HIT:     122664  MISS:      25733
cpu0_STLB LOAD      ACCESS:     126468  HIT:     102171  MISS:      24297
cpu0_STLB RFO       ACCESS:      21929  HIT:      20493  MISS:       1436
cpu0_STLB PREFETCH  ACCESS:          0  HIT:          0  MISS:          0
cpu0_STLB WRITEBACK ACCESS:          0  HIT:          0  MISS:          0
cpu0_L1D TOTAL     ACCESS:    5092418  HIT:    3596433  MISS:    1495985
cpu0_L1D LOAD      ACCESS:    3815913  HIT:    2487937  MISS:    1327976
cpu0_L1D RFO       ACCESS:    1251501  HIT:    1084691  MISS:     166810
cpu0_L1D PREFETCH  ACCESS:          0  HIT:          0  MISS:          0
cpu0_L1D WRITEBACK ACCESS:          0  HIT:          0  MISS:          0
cpu0_L2C TOTAL     ACCESS:    2090224  HIT:     873175  MISS:    1217049
cpu0_L2C LOAD      ACCESS:    1327949  HIT:     262802  MISS:    1065147
cpu0_L2C RFO       ACCESS:     166804  HIT:      15134  MISS:     151670
cpu0_L2C PREFETCH  ACCESS:          0  HIT:          0  MISS:          0
cpu0_L2C WRITEBACK ACCESS:     594272  HIT:     594249  MISS:         23
LLC TOTAL     ACCESS:    1664391  HIT:    1312681  MISS:     351710
LLC LOAD      ACCESS:    1065133  HIT:     727652  MISS:     337481
LLC RFO       ACCESS:     151670  HIT:     137514  MISS:      14156
LLC PREFETCH  ACCESS:          0  HIT:          0  MISS:          0
LLC WRITEBACK ACCESS:     447379  HIT:     447312  MISS:         67
Heartbeat CPU 0 instructions: 82000001 cycles: 75056708 heartbeat IPC: 0.706849 cumulative IPC: 0.546844 (Simulation time: 0 hr 58 min 5 sec) 

Region of Interest Statistics
cpu0_DTLB TOTAL     ACCESS:    6852643  HIT:    6675078  MISS:     177565
cpu0_DTLB LOAD      ACCESS:    5708471  HIT:    5559556  MISS:     148915
cpu0_DTLB RFO       ACCESS:    1144172  HIT:    1115522  MISS:      28650
cpu0_DTLB PREFETCH  ACCESS:          0  HIT:          0  MISS:          0
cpu0_DTLB WRITEBACK ACCESS:          0  HIT:          0  MISS:          0
cpu0_ITLB TOTAL     ACCESS:    2429257  HIT:    2429257  MISS:          0
cpu0_ITLB LOAD      ACCESS:    2429257  HIT:    2429257  MISS:          0
cpu0_ITLB RFO       ACCESS:          0  HIT:          0  MISS:          0
cpu0_ITLB PREFETCH  ACCESS:          0  HIT:          0  MISS:          0
cpu0_ITLB WRITEBACK ACCESS:          0  HIT:          0  MISS:          0
cpu0_L1I TOTAL     ACCESS:     134134  HIT:     134067  MISS:         67
cpu0_L1I LOAD      ACCESS:     134134  HIT:     134067  MISS:         67
cpu0_L1I RFO       ACCESS:          0  HIT:          0  MISS:          0
cpu0_L1I PREFETCH  ACCESS:          0  HIT:          0  MISS:          0
cpu0_L1I WRITEBACK ACCESS:          0  HIT:          0  MISS:          0
cpu0_STLB TOTAL     ACCESS:     177565  HIT:     149747  MISS:      27818
cpu0_STLB LOAD      ACCESS:     148915  HIT:     122762  MISS:      26153
cpu0_STLB RFO       ACCESS:      28650  HIT:      26985  MISS:       1665
cpu0_STLB PREFETCH  ACCESS:          0  HIT:          0  MISS:          0
cpu0_STLB WRITEBACK ACCESS:          0  HIT:          0  MISS:          0
cpu0_L1D TOTAL     ACCESS:    5626968  HIT:    3973817  MISS:    1653151
cpu0_L1D LOAD      ACCESS:    4193353  HIT:    2736687  MISS:    1456666
cpu0_L1D RFO       ACCESS:    1406721  HIT:    1211520  MISS:     195201
cpu0_L1D PREFETCH  ACCESS:          0  HIT:          0  MISS:          0
cpu0_L1D WRITEBACK ACCESS:          0  HIT:          0  MISS:          0
cpu0_L2C TOTAL     ACCESS:    2322308  HIT:     985740  MISS:    1336568
cpu0_L2C LOAD      ACCESS:    1456639  HIT:     296076  MISS:    1160563
cpu0_L2C RFO       ACCESS:     195192  HIT:      19438  MISS:     175754
cpu0_L2C PREFETCH  ACCESS:          0  HIT:          0  MISS:          0
cpu0_L2C WRITEBACK ACCESS:     669193  HIT:     669167  MISS:         26
LLC TOTAL     ACCESS:    1838087  HIT:    1465756  MISS:     372331
LLC LOAD      ACCESS:    1160549  HIT:     804520  MISS:     356029
LLC RFO       ACCESS:     175754  HIT:     159568  MISS:      16186
LLC PREFETCH  ACCESS:          0  HIT:          0  MISS:          0
LLC WRITEBACK ACCESS:     501559  HIT:     501450  MISS:        109
Heartbeat CPU 0 instructions: 84000002 cycles: 78119042 heartbeat IPC: 0.653097 cumulative IPC: 0.552128 (Simulation time: 0 hr 59 min 51 sec) 

Region of Interest Statistics
cpu0_DTLB TOTAL     ACCESS:    7265633  HIT:    7082440  MISS:     183193
cpu0_DTLB LOAD      ACCESS:    6044071  HIT:    5889954  MISS:     154117
cpu0_DTLB RFO       ACCESS:    1221562  HIT:    1192486  MISS:      29076
cpu0_DTLB PREFETCH  ACCESS:          0  HIT:          0  MISS:          0
cpu0_DTLB WRITEBACK ACCESS:          0  HIT:          0  MISS:          0
cpu0_ITLB TOTAL     ACCESS:    2556000  HIT:    2556000  MISS:          0
cpu0_ITLB LOAD      ACCESS:    2556000  HIT:    2556000  MISS:          0
cpu0_ITLB RFO       ACCESS:          0  HIT:          0  MISS:          0
cpu0_ITLB PREFETCH  ACCESS:          0  HIT:          0  MISS:          0
cpu0_ITLB WRITEBACK ACCESS:          0  HIT:          0  MISS:          0
cpu0_L1I TOTAL     ACCESS:     134367  HIT:     134295  MISS:         72
cpu0_L1I LOAD      ACCESS:     134367  HIT:     134295  MISS:         72
cpu0_L1I RFO       ACCESS:          0  HIT:          0  MISS:          0
cpu0_L1I PREFETCH  ACCESS:          0  HIT:          0  MISS:          0
cpu0_L1I WRITEBACK ACCESS:          0  HIT:          0  MISS:          0
cpu0_STLB TOTAL     ACCESS:     183193  HIT:     154465  MISS:      28728
cpu0_STLB LOAD      ACCESS:     154117  HIT:     127146  MISS:      26971
cpu0_STLB RFO       ACCESS:      29076  HIT:      27319  MISS:       1757
cpu0_STLB PREFETCH  ACCESS:          0  HIT:          0  MISS:          0
cpu0_STLB WRITEBACK ACCESS:          0  HIT:          0  MISS:          0
cpu0_L1D TOTAL     ACCESS:    5917201  HIT:    4179579  MISS:    1737622
cpu0_L1D LOAD      ACCESS:    4407833  HIT:    2881746  MISS:    1526087
cpu0_L1D RFO       ACCESS:    1481570  HIT:    1271382  MISS:     210188
cpu0_L1D PREFETCH  ACCESS:          0  HIT:          0  MISS:          0
cpu0_L1D WRITEBACK ACCESS:          0  HIT:          0  MISS:          0
cpu0_L2C TOTAL     ACCESS:    2441729  HIT:    1049468  MISS:    1392261
cpu0_L2C LOAD      ACCESS:    1526060  HIT:     323251  MISS:    1202809
cpu0_L2C RFO       ACCESS:     210179  HIT:      20999  MISS:     189180
cpu0_L2C PREFETCH  ACCESS:          0  HIT:          0  MISS:          0
cpu0_L2C WRITEBACK ACCESS:     704143  HIT:     704113  MISS:         30
LLC TOTAL     ACCESS:    1921269  HIT:    1530039  MISS:     391230
LLC LOAD      ACCESS:    1202795  HIT:     828090  MISS:     374705
LLC RFO       ACCESS:     189180  HIT:     172772  MISS:      16408
LLC PREFETCH  ACCESS:          0  HIT:          0  MISS:          0
LLC WRITEBACK ACCESS:     529052  HIT:     528942  MISS:        110
Heartbeat CPU 0 instructions: 86000002 cycles: 83331656 heartbeat IPC: 0.383685 cumulative IPC: 0.538982 (Simulation time: 1 hr 1 min 31 sec) 

Region of Interest Statistics
cpu0_DTLB TOTAL     ACCESS:    7728445  HIT:    7534891  MISS:     193554
cpu0_DTLB LOAD      ACCESS:    6404208  HIT:    6239828  MISS:     164380
cpu0_DTLB RFO       ACCESS:    1324237  HIT:    1295063  MISS:      29174
cpu0_DTLB PREFETCH  ACCESS:          0  HIT:          0  MISS:          0
cpu0_DTLB WRITEBACK ACCESS:          0  HIT:          0  MISS:          0
cpu0_ITLB TOTAL     ACCESS:    2763625  HIT:    2763625  MISS:          0
cpu0_ITLB LOAD      ACCESS:    2763625  HIT:    2763625  MISS:          0
cpu0_ITLB RFO       ACCESS:          0  HIT:          0  MISS:          0
cpu0_ITLB PREFETCH  ACCESS:          0  HIT:          0  MISS:          0
cpu0_ITLB WRITEBACK ACCESS:          0  HIT:          0  MISS:          0
cpu0_L1I TOTAL     ACCESS:     134376  HIT:     134304  MISS:         72
cpu0_L1I LOAD      ACCESS:     134376  HIT:     134304  MISS:         72
cpu0_L1I RFO       ACCESS:          0  HIT:          0  MISS:          0
cpu0_L1I PREFETCH  ACCESS:          0  HIT:          0  MISS:          0
cpu0_L1I WRITEBACK ACCESS:          0  HIT:          0  MISS:          0
cpu0_STLB TOTAL     ACCESS:     193554  HIT:     161707  MISS:      31847
cpu0_STLB LOAD      ACCESS:     164380  HIT:     134305  MISS:      30075
cpu0_STLB RFO       ACCESS:      29174  HIT:      27402  MISS:       1772
cpu0_STLB PREFETCH  ACCESS:          0  HIT:          0  MISS:          0
cpu0_STLB WRITEBACK ACCESS:          0  HIT:          0  MISS:          0
cpu0_L1D TOTAL     ACCESS:    6335487  HIT:    4473838  MISS:    1861649
cpu0_L1D LOAD      ACCESS:    4693317  HIT:    3044362  MISS:    1648955
cpu0_L1D RFO       ACCESS:    1611290  HIT:    1400148  MISS:     211142
cpu0_L1D PREFETCH  ACCESS:          0  HIT:          0  MISS:          0
cpu0_L1D WRITEBACK ACCESS:          0  HIT:          0  MISS:          0
cpu0_L2C TOTAL     ACCESS:    2640077  HIT:    1142470  MISS:    1497607
cpu0_L2C LOAD      ACCESS:    1648915  HIT:     341734  MISS:    1307181
cpu0_L2C RFO       ACCESS:     211133  HIT:      20999  MISS:     190134
cpu0_L2C PREFETCH  ACCESS:          0  HIT:          0  MISS:          0
cpu0_L2C WRITEBACK ACCESS:     778477  HIT:     778447  MISS:         30
LLC TOTAL     ACCESS:    2086278  HIT:    1658711  MISS:     427567
LLC LOAD      ACCESS:    1307166  HIT:     896129  MISS:     411037
LLC RFO       ACCESS:     190134  HIT:     173725  MISS:      16409
LLC PREFETCH  ACCESS:          0  HIT:          0  MISS:          0
LLC WRITEBACK ACCESS:     588716  HIT:     588602  MISS:        114
Heartbeat CPU 0 instructions: 88000000 cycles: 85949813 heartbeat IPC: 0.763895 cumulative IPC: 0.547466 (Simulation time: 1 hr 2 min 36 sec) 

Region of Interest Statistics
cpu0_DTLB TOTAL     ACCESS:    8055925  HIT:    7861519  MISS:     194406
cpu0_DTLB LOAD      ACCESS:    6691515  HIT:    6526304  MISS:     165211
cpu0_DTLB RFO       ACCESS:    1364410  HIT:    1335215  MISS:      29195
cpu0_DTLB PREFETCH  ACCESS:          0  HIT:          0  MISS:          0
cpu0_DTLB WRITEBACK ACCESS:          0  HIT:          0  MISS:          0
cpu0_ITLB TOTAL     ACCESS:    2942944  HIT:    2942944  MISS:          0
cpu0_ITLB LOAD      ACCESS:    2942944  HIT:    2942944  MISS:          0
cpu0_ITLB RFO       ACCESS:          0  HIT:          0  MISS:          0
cpu0_ITLB PREFETCH  ACCESS:          0  HIT:          0  MISS:          0
cpu0_ITLB WRITEBACK ACCESS:          0  HIT:          0  MISS:          0
cpu0_L1I TOTAL     ACCESS:     134436  HIT:     134360  MISS:         76
cpu0_L1I LOAD      ACCESS:     134436  HIT:     134360  MISS:         76
cpu0_L1I RFO       ACCESS:          0  HIT:          0  MISS:          0
cpu0_L1I PREFETCH  ACCESS:          0  HIT:          0  MISS:          0
cpu0_L1I WRITEBACK ACCESS:          0  HIT:          0  MISS:          0
cpu0_STLB TOTAL     ACCESS:     194406  HIT:     162091  MISS:      32315
cpu0_STLB LOAD      ACCESS:     165211  HIT:     134688  MISS:      30523
cpu0_STLB RFO       ACCESS:      29195  HIT:      27403  MISS:       1792
cpu0_STLB PREFETCH  ACCESS:          0  HIT:          0  MISS:          0
cpu0_STLB WRITEBACK ACCESS:          0  HIT:          0  MISS:          0
cpu0_L1D TOTAL     ACCESS:    6562172  HIT:    4665302  MISS:    1896870
cpu0_L1D LOAD      ACCESS:    4880451  HIT:    3197565  MISS:    1682886
cpu0_L1D RFO       ACCESS:    1650384  HIT:    1437975  MISS:     212409
cpu0_L1D PREFETCH  ACCESS:          0  HIT:          0  MISS:          0
cpu0_L1D WRITEBACK ACCESS:          0  HIT:          0  MISS:          0
cpu0_L2C TOTAL     ACCESS:    2676638  HIT:    1143836  MISS:    1532802
cpu0_L2C LOAD      ACCESS:    1682850  HIT:     341746  MISS:    1341104
cpu0_L2C RFO       ACCESS:     212400  HIT:      21000  MISS:     191400
cpu0_L2C PREFETCH  ACCESS:          0  HIT:          0  MISS:          0
cpu0_L2C WRITEBACK ACCESS:     779813  HIT:     779782  MISS:         31
LLC TOTAL     ACCESS:    2123752  HIT:    1689529  MISS:     434223
LLC LOAD      ACCESS:    1341089  HIT:     923424  MISS:     417665
LLC RFO       ACCESS:     191400  HIT:     174963  MISS:      16437
LLC PREFETCH  ACCESS:          0  HIT:          0  MISS:          0
LLC WRITEBACK ACCESS:     590996  HIT:     590882  MISS:        114
Heartbeat CPU 0 instructions: 90000003 cycles: 90819349 heartbeat IPC: 0.410717 cumulative IPC: 0.538501 (Simulation time: 1 hr 4 min 57 sec) 

Region of Interest Statistics
cpu0_DTLB TOTAL     ACCESS:    8486692  HIT:    8264380  MISS:     222312
cpu0_DTLB LOAD      ACCESS:    7046056  HIT:    6858781  MISS:     187275
cpu0_DTLB RFO       ACCESS:    1440636  HIT:    1405599  MISS:      35037
cpu0_DTLB PREFETCH  ACCESS:          0  HIT:          0  MISS:          0
cpu0_DTLB WRITEBACK ACCESS:          0  HIT:          0  MISS:          0
cpu0_ITLB TOTAL     ACCESS:    3088405  HIT:    3088405  MISS:          0
cpu0_ITLB LOAD      ACCESS:    3088405  HIT:    3088405  MISS:          0
cpu0_ITLB RFO       ACCESS:          0  HIT:          0  MISS:          0
cpu0_ITLB PREFETCH  ACCESS:          0  HIT:          0  MISS:          0
cpu0_ITLB WRITEBACK ACCESS:          0  HIT:          0  MISS:          0
cpu0_L1I TOTAL     ACCESS:     144886  HIT:     144807  MISS:         79
cpu0_L1I LOAD      ACCESS:     144886  HIT:     144807  MISS:         79
cpu0_L1I RFO       ACCESS:          0  HIT:          0  MISS:          0
cpu0_L1I PREFETCH  ACCESS:          0  HIT:          0  MISS:          0
cpu0_L1I WRITEBACK ACCESS:          0  HIT:          0  MISS:          0
cpu0_STLB TOTAL     ACCESS:     222312  HIT:     188018  MISS:      34294
cpu0_STLB LOAD      ACCESS:     187275  HIT:     154960  MISS:      32315
cpu0_STLB RFO       ACCESS:      35037  HIT:      33058  MISS:       1979
cpu0_STLB PREFETCH  ACCESS:          0  HIT:          0  MISS:          0
cpu0_STLB WRITEBACK ACCESS:          0  HIT:          0  MISS:          0
cpu0_L1D TOTAL     ACCESS:    6948955  HIT:    4911817  MISS:    2037138
cpu0_L1D LOAD      ACCESS:    5189234  HIT:    3384292  MISS:    1804942
cpu0_L1D RFO       ACCESS:    1726497  HIT:    1495935  MISS:     230562
cpu0_L1D PREFETCH  ACCESS:          0  HIT:          0  MISS:          0
cpu0_L1D WRITEBACK ACCESS:          0  HIT:          0  MISS:          0
cpu0_L2C TOTAL     ACCESS:    2856596  HIT:    1222209  MISS:    1634387
cpu0_L2C LOAD      ACCESS:    1804902  HIT:     376980  MISS:    1427922
cpu0_L2C RFO       ACCESS:     230552  HIT:      24397  MISS:     206155
cpu0_L2C PREFETCH  ACCESS:          0  HIT:          0  MISS:          0
cpu0_L2C WRITEBACK ACCESS:     819508  HIT:     819477  MISS:         31
LLC TOTAL     ACCESS:    2245261  HIT:    1773592  MISS:     471669
LLC LOAD      ACCESS:    1427906  HIT:     976016  MISS:     451890
LLC RFO       ACCESS:     206155  HIT:     186505  MISS:      19650
LLC PREFETCH  ACCESS:          0  HIT:          0  MISS:          0
LLC WRITEBACK ACCESS:     610921  HIT:     610799  MISS:        122
Heartbeat CPU 0 instructions: 92000002 cycles: 93740592 heartbeat IPC: 0.68464 cumulative IPC: 0.544031 (Simulation time: 1 hr 6 min 57 sec) 

Region of Interest Statistics
cpu0_DTLB TOTAL     ACCESS:    8968206  HIT:    8740019  MISS:     228187
cpu0_DTLB LOAD      ACCESS:    7479303  HIT:    7287206  MISS:     192097
cpu0_DTLB RFO       ACCESS:    1488903  HIT:    1452813  MISS:      36090
cpu0_DTLB PREFETCH  ACCESS:          0  HIT:          0  MISS:          0
cpu0_DTLB WRITEBACK ACCESS:          0  HIT:          0  MISS:          0
cpu0_ITLB TOTAL     ACCESS:    3205280  HIT:    3205280  MISS:          0
cpu0_ITLB LOAD      ACCESS:    3205280  HIT:    3205280  MISS:          0
cpu0_ITLB RFO       ACCESS:          0  HIT:          0  MISS:          0
cpu0_ITLB PREFETCH  ACCESS:          0  HIT:          0  MISS:          0
cpu0_ITLB WRITEBACK ACCESS:          0  HIT:          0  MISS:          0
cpu0_L1I TOTAL     ACCESS:     162792  HIT:     162710  MISS:         82
cpu0_L1I LOAD      ACCESS:     162792  HIT:     162710  MISS:         82
cpu0_L1I RFO       ACCESS:          0  HIT:          0  MISS:          0
cpu0_L1I PREFETCH  ACCESS:          0  HIT:          0  MISS:          0
cpu0_L1I WRITEBACK ACCESS:          0  HIT:          0  MISS:          0
cpu0_STLB TOTAL     ACCESS:     228187  HIT:     192202  MISS:      35985
cpu0_STLB LOAD      ACCESS:     192097  HIT:     158191  MISS:      33906
cpu0_STLB RFO       ACCESS:      36090  HIT:      34011  MISS:       2079
cpu0_STLB PREFETCH  ACCESS:          0  HIT:          0  MISS:          0
cpu0_STLB WRITEBACK ACCESS:          0  HIT:          0  MISS:          0
cpu0_L1D TOTAL     ACCESS:    7337590  HIT:    5182729  MISS:    2154861
cpu0_L1D LOAD      ACCESS:    5475045  HIT:    3576471  MISS:    1898574
cpu0_L1D RFO       ACCESS:    1827715  HIT:    1573119  MISS:     254596
cpu0_L1D PREFETCH  ACCESS:          0  HIT:          0  MISS:          0
cpu0_L1D WRITEBACK ACCESS:          0  HIT:          0  MISS:          0
cpu0_L2C TOTAL     ACCESS:    3031113  HIT:    1294262  MISS:    1736851
cpu0_L2C LOAD      ACCESS:    1898535  HIT:     392125  MISS:    1506410
cpu0_L2C RFO       ACCESS:     254586  HIT:      24478  MISS:     230108
cpu0_L2C PREFETCH  ACCESS:          0  HIT:          0  MISS:          0
cpu0_L2C WRITEBACK ACCESS:     876301  HIT:     876265  MISS:         36
LLC TOTAL     ACCESS:    2400297  HIT:    1911094  MISS:     489203
LLC LOAD      ACCESS:    1506394  HIT:    1037259  MISS:     469135
LLC RFO       ACCESS:     230108  HIT:     210185  MISS:      19923
LLC PREFETCH  ACCESS:          0  HIT:          0  MISS:          0
LLC WRITEBACK ACCESS:     663498  HIT:     663361  MISS:        137
Heartbeat CPU 0 instructions: 94000004 cycles: 98121224 heartbeat IPC: 0.456556 cumulative IPC: 0.539334 (Simulation time: 1 hr 8 min 59 sec) 

Region of Interest Statistics
cpu0_DTLB TOTAL     ACCESS:    9452964  HIT:    9213680  MISS:     239284
cpu0_DTLB LOAD      ACCESS:    7838646  HIT:    7635726  MISS:     202920
cpu0_DTLB RFO       ACCESS:    1614318  HIT:    1577954  MISS:      36364
cpu0_DTLB PREFETCH  ACCESS:          0  HIT:          0  MISS:          0
cpu0_DTLB WRITEBACK ACCESS:          0  HIT:          0  MISS:          0
cpu0_ITLB TOTAL     ACCESS:    3351049  HIT:    3351049  MISS:          0
cpu0_ITLB LOAD      ACCESS:    3351049  HIT:    3351049  MISS:          0
cpu0_ITLB RFO       ACCESS:          0  HIT:          0  MISS:          0
cpu0_ITLB PREFETCH  ACCESS:          0  HIT:          0  MISS:          0
cpu0_ITLB WRITEBACK ACCESS:          0  HIT:          0  MISS:          0
cpu0_L1I TOTAL     ACCESS:     162862  HIT:     162780  MISS:         82
cpu0_L1I LOAD      ACCESS:     162862  HIT:     162780  MISS:         82
cpu0_L1I RFO       ACCESS:          0  HIT:          0  MISS:          0
cpu0_L1I PREFETCH  ACCESS:          0  HIT:          0  MISS:          0
cpu0_L1I WRITEBACK ACCESS:          0  HIT:          0  MISS:          0
cpu0_STLB TOTAL     ACCESS:     239284  HIT:     200597  MISS:      38687
cpu0_STLB LOAD      ACCESS:     202920  HIT:     166397  MISS:      36523
cpu0_STLB RFO       ACCESS:      36364  HIT:      34200  MISS:       2164
cpu0_STLB PREFETCH  ACCESS:          0  HIT:          0  MISS:          0
cpu0_STLB WRITEBACK ACCESS:          0  HIT:          0  MISS:          0
cpu0_L1D TOTAL     ACCESS:    7748800  HIT:    5453768  MISS:    2295032
cpu0_L1D LOAD      ACCESS:    5745175  HIT:    3714597  MISS:    2030578
cpu0_L1D RFO       ACCESS:    1966131  HIT:    1703585  MISS:     262546
cpu0_L1D PREFETCH  ACCESS:          0  HIT:          0  MISS:          0
cpu0_L1D WRITEBACK ACCESS:          0  HIT:          0  MISS:          0
cpu0_L2C TOTAL     ACCESS:    3252248  HIT:    1407694  MISS:    1844554
cpu0_L2C LOAD      ACCESS:    2030523  HIT:     422825  MISS:    1607698
cpu0_L2C RFO       ACCESS:     262536  HIT:      26039  MISS:     236497
cpu0_L2C PREFETCH  ACCESS:          0  HIT:          0  MISS:          0
cpu0_L2C WRITEBACK ACCESS:     957281  HIT:     957243  MISS:         38
LLC TOTAL     ACCESS:    2564356  HIT:    2037324  MISS:     527032
LLC LOAD      ACCESS:    1607681  HIT:    1100942  MISS:     506739
LLC RFO       ACCESS:     236497  HIT:     216352  MISS:      20145
LLC PREFETCH  ACCESS:          0  HIT:          0  MISS:          0
LLC WRITEBACK ACCESS:     719857  HIT:     719717  MISS:        140
Heartbeat CPU 0 instructions: 96000001 cycles: 101341595 heartbeat IPC: 0.621046 cumulative IPC: 0.542437 (Simulation time: 1 hr 10 min 1 sec) 

Region of Interest Statistics
cpu0_DTLB TOTAL     ACCESS:    9838638  HIT:    9596673  MISS:     241965
cpu0_DTLB LOAD      ACCESS:    8153942  HIT:    7948384  MISS:     205558
cpu0_DTLB RFO       ACCESS:    1684696  HIT:    1648289  MISS:      36407
cpu0_DTLB PREFETCH  ACCESS:          0  HIT:          0  MISS:          0
cpu0_DTLB WRITEBACK ACCESS:          0  HIT:          0  MISS:          0
cpu0_ITLB TOTAL     ACCESS:    3551743  HIT:    3551743  MISS:          0
cpu0_ITLB LOAD      ACCESS:    3551743  HIT:    3551743  MISS:          0
cpu0_ITLB RFO       ACCESS:          0  HIT:          0  MISS:          0
cpu0_ITLB PREFETCH  ACCESS:          0  HIT:          0  MISS:          0
cpu0_ITLB WRITEBACK ACCESS:          0  HIT:          0  MISS:          0
cpu0_L1I TOTAL     ACCESS:     162871  HIT:     162789  MISS:         82
cpu0_L1I LOAD      ACCESS:     162871  HIT:     162789  MISS:         82
cpu0_L1I RFO       ACCESS:          0  HIT:          0  MISS:          0
cpu0_L1I PREFETCH  ACCESS:          0  HIT:          0  MISS:          0
cpu0_L1I WRITEBACK ACCESS:          0  HIT:          0  MISS:          0
cpu0_STLB TOTAL     ACCESS:     241965  HIT:     202160  MISS:      39805
cpu0_STLB LOAD      ACCESS:     205558  HIT:     167945  MISS:      37613
cpu0_STLB RFO       ACCESS:      36407  HIT:      34215  MISS:       2192
cpu0_STLB PREFETCH  ACCESS:          0  HIT:          0  MISS:          0
cpu0_STLB WRITEBACK ACCESS:          0  HIT:          0  MISS:          0
cpu0_L1D TOTAL     ACCESS:    8051670  HIT:    5712148  MISS:    2339522
cpu0_L1D LOAD      ACCESS:    5972802  HIT:    3899565  MISS:    2073237
cpu0_L1D RFO       ACCESS:    2040258  HIT:    1775921  MISS:     264337
cpu0_L1D PREFETCH  ACCESS:          0  HIT:          0  MISS:          0
cpu0_L1D WRITEBACK ACCESS:          0  HIT:          0  MISS:          0
cpu0_L2C TOTAL     ACCESS:    3313331  HIT:    1428443  MISS:    1884888
cpu0_L2C LOAD      ACCESS:    2073180  HIT:     426948  MISS:    1646232
cpu0_L2C RFO       ACCESS:     264327  HIT:      26039  MISS:     238288
cpu0_L2C PREFETCH  ACCESS:          0  HIT:          0  MISS:          0
cpu0_L2C WRITEBACK ACCESS:     973876  HIT:     973838  MISS:         38
LLC TOTAL     ACCESS:    2622103  HIT:    2087043  MISS:     535060
LLC LOAD      ACCESS:    1646215  HIT:    1131459  MISS:     514756
LLC RFO       ACCESS:     238288  HIT:     218133  MISS:      20155
LLC PREFETCH  ACCESS:          0  HIT:          0  MISS:          0
LLC WRITEBACK ACCESS:     737270  HIT:     737130  MISS:        140
Heartbeat CPU 0 instructions: 98000001 cycles: 105728976 heartbeat IPC: 0.455853 cumulative IPC: 0.538178 (Simulation time: 1 hr 11 min 54 sec) 

Region of Interest Statistics
cpu0_DTLB TOTAL     ACCESS:   10130594  HIT:    9886251  MISS:     244343
cpu0_DTLB LOAD      ACCESS:    8404375  HIT:    8196605  MISS:     207770
cpu0_DTLB RFO       ACCESS:    1726219  HIT:    1689646  MISS:      36573
cpu0_DTLB PREFETCH  ACCESS:          0  HIT:          0  MISS:          0
cpu0_DTLB WRITEBACK ACCESS:          0  HIT:          0  MISS:          0
cpu0_ITLB TOTAL     ACCESS:    3707964  HIT:    3707964  MISS:          0
cpu0_ITLB LOAD      ACCESS:    3707964  HIT:    3707964  MISS:          0
cpu0_ITLB RFO       ACCESS:          0  HIT:          0  MISS:          0
cpu0_ITLB PREFETCH  ACCESS:          0  HIT:          0  MISS:          0
cpu0_ITLB WRITEBACK ACCESS:          0  HIT:          0  MISS:          0
cpu0_L1I TOTAL     ACCESS:     169159  HIT:     169076  MISS:         83
cpu0_L1I LOAD      ACCESS:     169159  HIT:     169076  MISS:         83
cpu0_L1I RFO       ACCESS:          0  HIT:          0  MISS:          0
cpu0_L1I PREFETCH  ACCESS:          0  HIT:          0  MISS:          0
cpu0_L1I WRITEBACK ACCESS:          0  HIT:          0  MISS:          0
cpu0_STLB TOTAL     ACCESS:     244343  HIT:     202694  MISS:      41649
cpu0_STLB LOAD      ACCESS:     207770  HIT:     168476  MISS:      39294
cpu0_STLB RFO       ACCESS:      36573  HIT:      34218  MISS:       2355
cpu0_STLB PREFETCH  ACCESS:          0  HIT:          0  MISS:          0
cpu0_STLB WRITEBACK ACCESS:          0  HIT:          0  MISS:          0
cpu0_L1D TOTAL     ACCESS:    8257151  HIT:    5833326  MISS:    2423825
cpu0_L1D LOAD      ACCESS:    6151715  HIT:    4004375  MISS:    2147340
cpu0_L1D RFO       ACCESS:    2064992  HIT:    1790478  MISS:     274514
cpu0_L1D PREFETCH  ACCESS:          0  HIT:          0  MISS:          0
cpu0_L1D WRITEBACK ACCESS:          0  HIT:          0  MISS:          0
cpu0_L2C TOTAL     ACCESS:    3407878  HIT:    1438931  MISS:    1968947
cpu0_L2C LOAD      ACCESS:    2147284  HIT:     427178  MISS:    1720106
cpu0_L2C RFO       ACCESS:     274504  HIT:      26043  MISS:     248461
cpu0_L2C PREFETCH  ACCESS:          0  HIT:          0  MISS:          0
cpu0_L2C WRITEBACK ACCESS:     984119  HIT:     984080  MISS:         39
LLC TOTAL     ACCESS:    2709800  HIT:    2145176  MISS:     564624
LLC LOAD      ACCESS:    1720089  HIT:    1178546  MISS:     541543
LLC RFO       ACCESS:     248461  HIT:     225529  MISS:      22932
LLC PREFETCH  ACCESS:          0  HIT:          0  MISS:          0
LLC WRITEBACK ACCESS:     740909  HIT:     740769  MISS:        140
Heartbeat CPU 0 instructions: 100000003 cycles: 108640806 heartbeat IPC: 0.686854 cumulative IPC: 0.542878 (Simulation time: 1 hr 14 min 8 sec) 

Region of Interest Statistics
cpu0_DTLB TOTAL     ACCESS:   10742278  HIT:   10470127  MISS:     272151
cpu0_DTLB LOAD      ACCESS:    8795368  HIT:    8566017  MISS:     229351
cpu0_DTLB RFO       ACCESS:    1946910  HIT:    1904110  MISS:      42800
cpu0_DTLB PREFETCH  ACCESS:          0  HIT:          0  MISS:          0
cpu0_DTLB WRITEBACK ACCESS:          0  HIT:          0  MISS:          0
cpu0_ITLB TOTAL     ACCESS:    3825759  HIT:    3825759  MISS:          0
cpu0_ITLB LOAD      ACCESS:    3825759  HIT:    3825759  MISS:          0
cpu0_ITLB RFO       ACCESS:          0  HIT:          0  MISS:          0
cpu0_ITLB PREFETCH  ACCESS:          0  HIT:          0  MISS:          0
cpu0_ITLB WRITEBACK ACCESS:          0  HIT:          0  MISS:          0
cpu0_L1I TOTAL     ACCESS:     196132  HIT:     196024  MISS:        108
cpu0_L1I LOAD      ACCESS:     196132  HIT:     196024  MISS:        108
cpu0_L1I RFO       ACCESS:          0  HIT:          0  MISS:          0
cpu0_L1I PREFETCH  ACCESS:          0  HIT:          0  MISS:          0
cpu0_L1I WRITEBACK ACCESS:          0  HIT:          0  MISS:          0
cpu0_STLB TOTAL     ACCESS:     272151  HIT:     229827  MISS:      42324
cpu0_STLB LOAD      ACCESS:     229351  HIT:     189484  MISS:      39867
cpu0_STLB RFO       ACCESS:      42800  HIT:      40343  MISS:       2457
cpu0_STLB PREFETCH  ACCESS:          0  HIT:          0  MISS:          0
cpu0_STLB WRITEBACK ACCESS:          0  HIT:          0  MISS:          0
cpu0_L1D TOTAL     ACCESS:    8730127  HIT:    6200248  MISS:    2529879
cpu0_L1D LOAD      ACCESS:    6491868  HIT:    4258553  MISS:    2233315
cpu0_L1D RFO       ACCESS:    2197268  HIT:    1902740  MISS:     294528
cpu0_L1D PREFETCH  ACCESS:          0  HIT:          0  MISS:          0
cpu0_L1D WRITEBACK ACCESS:          0  HIT:          0  MISS:          0
cpu0_L2C TOTAL     ACCESS:    3560111  HIT:    1528116  MISS:    2031995
cpu0_L2C LOAD      ACCESS:    2233275  HIT:     465912  MISS:    1767363
cpu0_L2C RFO       ACCESS:     294517  HIT:      30277  MISS:     264240
cpu0_L2C PREFETCH  ACCESS:          0  HIT:          0  MISS:          0
cpu0_L2C WRITEBACK ACCESS:    1030283  HIT:    1030241  MISS:         42
LLC TOTAL     ACCESS:    2799937  HIT:    2213864  MISS:     586073
LLC LOAD      ACCESS:    1767345  HIT:    1209962  MISS:     557383
LLC RFO       ACCESS:     264240  HIT:     235708  MISS:      28532
LLC PREFETCH  ACCESS:          0  HIT:          0  MISS:          0
LLC WRITEBACK ACCESS:     768002  HIT:     767853  MISS:        149
Heartbeat CPU 0 instructions: 102000004 cycles: 124201464 heartbeat IPC: 0.128529 cumulative IPC: 0.482991 (Simulation time: 1 hr 19 min 43 sec) 

Region of Interest Statistics
cpu0_DTLB TOTAL     ACCESS:   11293328  HIT:   10987925  MISS:     305403
cpu0_DTLB LOAD      ACCESS:    9158586  HIT:    8900445  MISS:     258141
cpu0_DTLB RFO       ACCESS:    2134742  HIT:    2087480  MISS:      47262
cpu0_DTLB PREFETCH  ACCESS:          0  HIT:          0  MISS:          0
cpu0_DTLB WRITEBACK ACCESS:          0  HIT:          0  MISS:          0
cpu0_ITLB TOTAL     ACCESS:    3964519  HIT:    3964519  MISS:          0
cpu0_ITLB LOAD      ACCESS:    3964519  HIT:    3964519  MISS:          0
cpu0_ITLB RFO       ACCESS:          0  HIT:          0  MISS:          0
cpu0_ITLB PREFETCH  ACCESS:          0  HIT:          0  MISS:          0
cpu0_ITLB WRITEBACK ACCESS:          0  HIT:          0  MISS:          0
cpu0_L1I TOTAL     ACCESS:     196155  HIT:     196038  MISS:        117
cpu0_L1I LOAD      ACCESS:     196155  HIT:     196038  MISS:        117
cpu0_L1I RFO       ACCESS:          0  HIT:          0  MISS:          0
cpu0_L1I PREFETCH  ACCESS:          0  HIT:          0  MISS:          0
cpu0_L1I WRITEBACK ACCESS:          0  HIT:          0  MISS:          0
cpu0_STLB TOTAL     ACCESS:     305403  HIT:     246844  MISS:      58559
cpu0_STLB LOAD      ACCESS:     258141  HIT:     202491  MISS:      55650
cpu0_STLB RFO       ACCESS:      47262  HIT:      44353  MISS:       2909
cpu0_STLB PREFETCH  ACCESS:          0  HIT:          0  MISS:          0
cpu0_STLB WRITEBACK ACCESS:          0  HIT:          0  MISS:          0
cpu0_L1D TOTAL     ACCESS:    9257561  HIT:    6602801  MISS:    2654760
cpu0_L1D LOAD      ACCESS:    6910968  HIT:    4578815  MISS:    2332153
cpu0_L1D RFO       ACCESS:    2289462  HIT:    1969019  MISS:     320443
cpu0_L1D PREFETCH  ACCESS:          0  HIT:          0  MISS:          0
cpu0_L1D WRITEBACK ACCESS:          0  HIT:          0  MISS:          0
cpu0_L2C TOTAL     ACCESS:    3728551  HIT:    1585323  MISS:    2143228
cpu0_L2C LOAD      ACCESS:    2332121  HIT:     479453  MISS:    1852668
cpu0_L2C RFO       ACCESS:     320432  HIT:      30277  MISS:     290155
cpu0_L2C PREFETCH  ACCESS:          0  HIT:          0  MISS:          0
cpu0_L2C WRITEBACK ACCESS:    1073834  HIT:    1073786  MISS:         48
LLC TOTAL     ACCESS:    2944489  HIT:    2261003  MISS:     683486
LLC LOAD      ACCESS:    1852650  HIT:    1224024  MISS:     628626
LLC RFO       ACCESS:     290155  HIT:     235721  MISS:      54434
LLC PREFETCH  ACCESS:          0  HIT:          0  MISS:          0
LLC WRITEBACK ACCESS:     801327  HIT:     800912  MISS:        415
Heartbeat CPU 0 instructions: 104000002 cycles: 133361402 heartbeat IPC: 0.218342 cumulative IPC: 0.46224 (Simulation time: 1 hr 23 min 16 sec) 

Region of Interest Statistics
cpu0_DTLB TOTAL     ACCESS:   11908363  HIT:   11555765  MISS:     352598
cpu0_DTLB LOAD      ACCESS:    9512492  HIT:    9224401  MISS:     288091
cpu0_DTLB RFO       ACCESS:    2395871  HIT:    2331364  MISS:      64507
cpu0_DTLB PREFETCH  ACCESS:          0  HIT:          0  MISS:          0
cpu0_DTLB WRITEBACK ACCESS:          0  HIT:          0  MISS:          0
cpu0_ITLB TOTAL     ACCESS:    4122044  HIT:    4122044  MISS:          0
cpu0_ITLB LOAD      ACCESS:    4122044  HIT:    4122044  MISS:          0
cpu0_ITLB RFO       ACCESS:          0  HIT:          0  MISS:          0
cpu0_ITLB PREFETCH  ACCESS:          0  HIT:          0  MISS:          0
cpu0_ITLB WRITEBACK ACCESS:          0  HIT:          0  MISS:          0
cpu0_L1I TOTAL     ACCESS:     222490  HIT:     222360  MISS:        130
cpu0_L1I LOAD      ACCESS:     222490  HIT:     222360  MISS:        130
cpu0_L1I RFO       ACCESS:          0  HIT:          0  MISS:          0
cpu0_L1I PREFETCH  ACCESS:          0  HIT:          0  MISS:          0
cpu0_L1I WRITEBACK ACCESS:          0  HIT:          0  MISS:          0
cpu0_STLB TOTAL     ACCESS:     352598  HIT:     282148  MISS:      70450
cpu0_STLB LOAD      ACCESS:     288091  HIT:     221434  MISS:      66657
cpu0_STLB RFO       ACCESS:      64507  HIT:      60714  MISS:       3793
cpu0_STLB PREFETCH  ACCESS:          0  HIT:          0  MISS:          0
cpu0_STLB WRITEBACK ACCESS:          0  HIT:          0  MISS:          0
cpu0_L1D TOTAL     ACCESS:    9947664  HIT:    7171816  MISS:    2775848
cpu0_L1D LOAD      ACCESS:    7349558  HIT:    4950549  MISS:    2399009
cpu0_L1D RFO       ACCESS:    2529145  HIT:    2154721  MISS:     374424
cpu0_L1D PREFETCH  ACCESS:          0  HIT:          0  MISS:          0
cpu0_L1D WRITEBACK ACCESS:          0  HIT:          0  MISS:          0
cpu0_L2C TOTAL     ACCESS:    3916679  HIT:    1677109  MISS:    2239570
cpu0_L2C LOAD      ACCESS:    2398977  HIT:     492234  MISS:    1906743
cpu0_L2C RFO       ACCESS:     374410  HIT:      42009  MISS:     332401
cpu0_L2C PREFETCH  ACCESS:          0  HIT:          0  MISS:          0
cpu0_L2C WRITEBACK ACCESS:    1140877  HIT:    1140822  MISS:         55
LLC TOTAL     ACCESS:    3093790  HIT:    2354395  MISS:     739395
LLC LOAD      ACCESS:    1906724  HIT:    1248398  MISS:     658326
LLC RFO       ACCESS:     332401  HIT:     251776  MISS:      80625
LLC PREFETCH  ACCESS:          0  HIT:          0  MISS:          0
LLC WRITEBACK ACCESS:     854294  HIT:     853862  MISS:        432
Heartbeat CPU 0 instructions: 106000002 cycles: 139683336 heartbeat IPC: 0.316359 cumulative IPC: 0.454751 (Simulation time: 1 hr 25 min 46 sec) 

Region of Interest Statistics
cpu0_DTLB TOTAL     ACCESS:   12551957  HIT:   12168774  MISS:     383183
cpu0_DTLB LOAD      ACCESS:    9886145  HIT:    9579958  MISS:     306187
cpu0_DTLB RFO       ACCESS:    2665812  HIT:    2588816  MISS:      76996
cpu0_DTLB PREFETCH  ACCESS:          0  HIT:          0  MISS:          0
cpu0_DTLB WRITEBACK ACCESS:          0  HIT:          0  MISS:          0
cpu0_ITLB TOTAL     ACCESS:    4259163  HIT:    4259163  MISS:          0
cpu0_ITLB LOAD      ACCESS:    4259163  HIT:    4259163  MISS:          0
cpu0_ITLB RFO       ACCESS:          0  HIT:          0  MISS:          0
cpu0_ITLB PREFETCH  ACCESS:          0  HIT:          0  MISS:          0
cpu0_ITLB WRITEBACK ACCESS:          0  HIT:          0  MISS:          0
cpu0_L1I TOTAL     ACCESS:     366917  HIT:     366787  MISS:        130
cpu0_L1I LOAD      ACCESS:     366917  HIT:     366787  MISS:        130
cpu0_L1I RFO       ACCESS:          0  HIT:          0  MISS:          0
cpu0_L1I PREFETCH  ACCESS:          0  HIT:          0  MISS:          0
cpu0_L1I WRITEBACK ACCESS:          0  HIT:          0  MISS:          0
cpu0_STLB TOTAL     ACCESS:     383183  HIT:     306182  MISS:      77001
cpu0_STLB LOAD      ACCESS:     306187  HIT:     233378  MISS:      72809
cpu0_STLB RFO       ACCESS:      76996  HIT:      72804  MISS:       4192
cpu0_STLB PREFETCH  ACCESS:          0  HIT:          0  MISS:          0
cpu0_STLB WRITEBACK ACCESS:          0  HIT:          0  MISS:          0
cpu0_L1D TOTAL     ACCESS:   10662625  HIT:    7798211  MISS:    2864414
cpu0_L1D LOAD      ACCESS:    7765343  HIT:    5315022  MISS:    2450321
cpu0_L1D RFO       ACCESS:    2821794  HIT:    2410299  MISS:     411495
cpu0_L1D PREFETCH  ACCESS:          0  HIT:          0  MISS:          0
cpu0_L1D WRITEBACK ACCESS:          0  HIT:          0  MISS:          0
cpu0_L2C TOTAL     ACCESS:    4051900  HIT:    1736872  MISS:    2315028
cpu0_L2C LOAD      ACCESS:    2450271  HIT:     499161  MISS:    1951110
cpu0_L2C RFO       ACCESS:     411481  HIT:      47997  MISS:     363484
cpu0_L2C PREFETCH  ACCESS:          0  HIT:          0  MISS:          0
[...]
cpu0_ITLB RFO       ACCESS:          0  HIT:          0  MISS:          0
cpu0_ITLB PREFETCH  ACCESS:          0  HIT:          0  MISS:          0
cpu0_ITLB WRITEBACK ACCESS:          0  HIT:          0  MISS:          0
cpu0_ITLB TRANSLATION ACCESS:          0  HIT:          0  MISS:          0
cpu0_ITLB PREFETCH  REQUESTED:          0  ISSUED:          0  USEFUL:          0  USELESS:          0
cpu0_ITLB AVERAGE MISS LATENCY: 227.667 cycles
cpu0_L1I TOTAL     ACCESS:    8516758  HIT:    8508424  MISS:       8334
cpu0_L1I LOAD      ACCESS:    8516758  HIT:    8508424  MISS:       8334
cpu0_L1I RFO       ACCESS:          0  HIT:          0  MISS:          0
cpu0_L1I PREFETCH  ACCESS:          0  HIT:          0  MISS:          0
cpu0_L1I WRITEBACK ACCESS:          0  HIT:          0  MISS:          0
cpu0_L1I TRANSLATION ACCESS:          0  HIT:          0  MISS:          0
cpu0_L1I PREFETCH  REQUESTED:          0  ISSUED:          0  USEFUL:          0  USELESS:          0
cpu0_L1I AVERAGE MISS LATENCY: 284.719 cycles
cpu0_STLB TOTAL     ACCESS:   11043396  HIT:    9520038  MISS:    1523358
cpu0_STLB LOAD      ACCESS:    8844249  HIT:    7445192  MISS:    1399057
cpu0_STLB RFO       ACCESS:    2199147  HIT:    2074846  MISS:     124301
cpu0_STLB PREFETCH  ACCESS:          0  HIT:          0  MISS:          0
cpu0_STLB WRITEBACK ACCESS:          0  HIT:          0  MISS:          0
cpu0_STLB TRANSLATION ACCESS:          0  HIT:          0  MISS:          0
cpu0_STLB PREFETCH  REQUESTED:          0  ISSUED:          0  USEFUL:          0  USELESS:          0
cpu0_STLB AVERAGE MISS LATENCY: 12.5608 cycles
cpu0_L1D TOTAL     ACCESS:  293750969  HIT:  217556086  MISS:   76194883
cpu0_L1D LOAD      ACCESS:  212727791  HIT:  147727010  MISS:   65000781
cpu0_L1D RFO       ACCESS:   79537767  HIT:   68405238  MISS:   11132529
cpu0_L1D PREFETCH  ACCESS:          0  HIT:          0  MISS:          0
cpu0_L1D WRITEBACK ACCESS:          0  HIT:          0  MISS:          0
cpu0_L1D TRANSLATION ACCESS:    1485411  HIT:    1423838  MISS:      61573
cpu0_L1D PREFETCH  REQUESTED:          0  ISSUED:          0  USEFUL:          0  USELESS:          0
cpu0_L1D AVERAGE MISS LATENCY: 97.9708 cycles
cpu0_L2C TOTAL     ACCESS:  107895864  HIT:   48311521  MISS:   59584343
cpu0_L2C LOAD      ACCESS:   65003464  HIT:   14751339  MISS:   50252125
cpu0_L2C RFO       ACCESS:   11131403  HIT:    1810818  MISS:    9320585
cpu0_L2C PREFETCH  ACCESS:          0  HIT:          0  MISS:          0
cpu0_L2C WRITEBACK ACCESS:   31699424  HIT:   31697678  MISS:       1746
cpu0_L2C TRANSLATION ACCESS:      61573  HIT:      51686  MISS:       9887
cpu0_L2C PREFETCH  REQUESTED:          0  ISSUED:          0  USEFUL:          0  USELESS:          0
cpu0_L2C AVERAGE MISS LATENCY: 111.05 cycles
LLC TOTAL     ACCESS:   82439488  HIT:   62479217  MISS:   19960271
LLC LOAD      ACCESS:   50251309  HIT:   32855150  MISS:   17396159
LLC RFO       ACCESS:    9320529  HIT:    6789988  MISS:    2530541
LLC PREFETCH  ACCESS:          0  HIT:          0  MISS:          0
LLC WRITEBACK ACCESS:   22857763  HIT:   22824656  MISS:      33107
LLC TRANSLATION ACCESS:       9887  HIT:       9423  MISS:        464
LLC PREFETCH  REQUESTED:          0  ISSUED:          0  USEFUL:          0  USELESS:          0
LLC AVERAGE MISS LATENCY: 268.8 cycles
~~~~~~~~~~Reuse Distance Profiler output~~~~~~~~~~
0	33687664	21098480
1	26842560	20094416
2	26626560	18146912
3	16690288	12283760
4	13974000	10723728
5	9503792	6554176
6	9798496	6710704
7	7472640	5106688
8	6484336	4512480
9	5776784	3796880
10	5323424	3425120
11	4542832	2880944
12	3865232	2518080
13	3021392	2022480
14	2706864	1818160
15	2645072	1844896
16	2383952	1612544
17	2128480	1408928
18	1862864	1217056
19	1699904	1100112
20	1618464	1006656
21	1421888	901088
22	1283984	826560
23	1158224	746752
24	1054624	686512
25	958704	603760
26	926672	578864
27	863040	525664
28	824960	487040
29	779760	458624
30	805888	481952
31	733168	410352
32	707776	382912
33	966160	484256
34	721968	376464
35	550608	316128
36	471872	296832
37	471696	300672
38	445648	287120
39	418384	269024
40	370512	230336
41	349216	211264
42	355488	217312
43	353584	216224
44	333424	196032
45	327808	181184
46	337376	193200
47	318848	179168
48	292288	173808
49	269520	165056
50	257344	164704
51	233728	148704
52	231280	156336
53	221616	153392
54	213584	141936
55	242912	169536
56	220608	142240
57	236080	157488
58	226656	144688
59	233552	153424
60	220480	144032
61	213552	138528
62	234272	148304
63	254336	150272
64	612816	349952
66	684896	373920
68	579776	314560
70	414480	249312
72	313584	197072
74	253888	157568
76	225280	139440
78	207232	135776
80	174864	117536
82	173344	120352
84	159296	112560
86	151152	105632
88	137488	96880
90	122192	87136
92	112848	79984
94	102704	70960
96	96192	67520
98	89088	63216
100	83408	58064
102	76704	54992
104	72928	55152
106	73632	56384
108	72640	54336
110	73392	54576
112	69696	51552
114	68800	50592
116	63360	47184
118	60144	44640
120	60656	45184
122	60240	44016
124	57216	40896
126	55952	42592
128	111344	84704
132	113568	83088
136	106736	74336
140	101824	72416
144	98192	67024
148	99744	65024
152	88256	62864
156	86992	62128
160	85024	61680
164	88160	63936
168	86080	61488
172	74832	55152
176	74832	55136
180	70192	50272
184	68080	51120
188	68080	51008
192	66560	49168
196	66320	48928
200	64576	47936
204	61856	46976
208	57264	44320
212	58320	44096
216	55280	41696
220	57600	42880
224	53040	40128
228	53728	39280
232	57088	41856
236	55168	39552
240	53568	38208
244	49872	36208
248	51504	37584
252	51824	36448
256	93456	68528
264	94192	70352
272	84656	64656
280	77760	60608
288	75168	60080
296	77760	62976
304	72400	58464
312	70128	59312
320	70960	59904
328	70480	59152
336	73360	61472
344	69088	58112
352	66480	56688
360	64544	55312
368	64496	54864
376	62816	52640
384	59856	51104
392	61952	51808
400	58880	49584
408	59440	50304
416	59280	50448
424	59648	51008
432	56368	47664
440	57584	48656
448	56368	47296
456	57280	48176
464	57216	47200
472	53280	44112
480	51312	43152
488	50800	43216
496	46544	39856
504	48608	41504
512	91488	78016
528	98784	84720
544	94880	81328
560	92512	81472
576	88848	77488
592	89728	78416
608	90496	77600
624	87600	77200
640	89680	78464
656	91920	78144
672	92416	80128
688	82672	72352
704	85648	75168
720	86416	74176
736	85968	72864
752	83104	73696
768	81600	72624
784	83120	72688
800	87488	77184
816	86144	77184
832	87936	78432
848	90096	80976
864	85936	76672
880	88736	79408
896	84384	76624
912	85024	75808
928	86544	77280
944	86416	77536
960	89232	79808
976	83696	74912
992	85280	75632
1008	85008	76112
1024	169344	152240
1056	178496	161920
1088	169936	154016
1120	167616	153024
1152	161152	146848
1184	164768	150848
1216	158576	144432
1248	156864	144432
1280	159696	147424
1312	156784	144496
1344	150064	138192
1376	146816	135680
1408	147520	137008
1440	142800	131744
1472	139872	128656
1504	142320	131536
1536	136320	125920
1568	137840	127392
1600	131824	121984
1632	125840	115472
1664	127712	118256
1696	128256	119024
1728	120096	111088
1760	115616	105616
1792	117920	108960
1824	117664	109136
1856	115280	106048
1888	113568	103520
1920	116544	107872
1952	115392	107152
1984	106016	97568
2016	105264	96880
2048	192432	173664
2112	183248	166288
2176	180176	163232
2240	166400	150528
2304	160848	145312
2368	149072	134784
2432	146160	131136
2496	152352	135408
2560	157888	143200
2624	158688	143904
2688	147088	132608
2752	155680	137776
2816	177616	160080
2880	168736	152048
2944	165168	146816
3008	132816	114160
3072	121760	102976
3136	133392	112800
3200	115840	98032
3264	110320	90496
3328	109488	91104
3392	104880	86864
3456	100864	84880
3520	99008	82960
3584	96912	81792
3648	99312	82496
3712	94112	81632
3776	88176	76304
3840	86800	76128
3904	84816	74672
3968	80976	70944
4032	82672	71616
4096	170080	149904
4224	157632	141216
4352	161040	144912
4480	166816	150240
4608	147456	134320
4736	145056	132448
4864	144944	131008
4992	141424	127952
5120	142624	129456
5248	137568	126224
5376	136480	125936
5504	140480	129904
5632	147680	135360
5760	130736	120080
5888	132736	122208
6016	123600	112784
6144	123520	111776
6272	122752	113120
6400	122352	111376
6528	116832	107296
6656	118960	110272
6784	115392	105536
6912	112304	103312
7040	110640	100016
7168	113600	103920
7296	108320	99024
7424	106496	96208
7552	103008	92784
7680	100112	91264
7808	97072	88640
7936	97600	89488
8064	93856	84848
8192	181952	164448
8448	186480	171152
8704	186672	172000
8960	194720	178896
9216	163632	148704
9472	151248	136496
9728	149312	135584
9984	137072	122320
10240	134048	121184
10496	131136	118080
10752	135568	122816
11008	130720	118192
11264	133216	122112
11520	126400	114576
11776	114432	103136
12032	111184	99632
12288	109840	98912
12544	113968	102384
12800	113152	102352
13056	110368	99328
13312	115520	103872
13568	107232	95248
13824	102096	91904
14080	99920	86864
14336	96096	85360
14592	100256	89344
14848	95952	84592
15104	92544	81632
15360	90416	79840
15616	90096	79920
15872	96192	86720
16128	92128	82544
16384	170640	150576
16896	179072	157632
17408	166048	147040
17920	161680	143056
18432	159216	138256
18944	143248	125728
19456	142224	124112
19968	142592	123488
20480	136496	118352
20992	126256	111120
21504	134784	119056
22016	132384	116320
22528	124144	108480
23040	115008	100880
23552	113376	98432
24064	111984	97968
24576	105216	91776
25088	108496	94624
25600	106928	93968
26112	107808	94912
26624	98992	86256
27136	92160	79856
27648	96144	84048
28160	92432	81248
28672	95824	83104
29184	97536	85920
29696	97808	86688
30208	88096	76272
30720	84000	73552
31232	87904	76912
31744	93968	82576
32256	92560	79920
32768	183040	160704
33792	186592	163184
34816	201168	178896
35840	206896	184672
36864	175280	153424
37888	138944	120944
38912	139632	119968
39936	153248	133040
40960	145376	127584
41984	144784	125200
43008	137824	117232
44032	124784	106176
45056	135120	115392
46080	144096	122736
47104	153536	129920
48128	153712	124560
49152	159504	127712
50176	173872	141216
51200	175168	142256
52224	157792	120992
53248	162464	129088
54272	171920	137376
55296	166032	128832
56320	177408	134128
57344	167936	124624
58368	157264	119360
59392	141712	113104
60416	121264	97856
61440	140688	117072
62464	138160	115456
63488	143248	119632
64512	156400	133072
65536	296656	258352
67584	295536	259296
69632	298576	263584
71680	278336	243232
73728	250240	215056
75776	255296	216192
77824	244448	205760
79872	242768	204848
81920	231984	193856
83968	235744	199120
86016	235792	194640
88064	237648	198544
90112	231152	198880
92160	239024	205568
94208	226544	192352
96256	210080	177568
98304	217072	188368
100352	233328	202704
102400	235664	206032
104448	240112	208336
106496	295616	258208
108544	321952	276432
110592	266240	224448
112640	222352	183408
114688	176112	136560
116736	171120	130832
118784	336112	297488
120832	482640	446080
122880	392832	353056
124928	431696	392176
126976	196464	157616
129024	183440	150384
131072	387632	321232
135168	385056	319584
139264	304304	240336
143360	261984	196864
147456	284064	217008
151552	267456	205280
155648	247792	195152
159744	256176	206144
163840	264096	217840
167936	236208	191296
172032	223856	182320
176128	222960	183264
180224	190928	156912
184320	199936	164192
188416	225632	190848
192512	247328	212880
196608	228944	196256
200704	208240	173184
204800	210912	176176
208896	200336	168144
212992	209600	177088
217088	206016	173968
221184	217120	182912
225280	217808	180336
229376	218864	180880
233472	227952	187536
237568	226016	187136
241664	221312	189536
245760	220720	190672
249856	210672	181680
253952	186560	160752
258048	185872	158560
262144	452736	403808
270336	573408	536176
278528	578416	539872
286720	565536	524720
294912	535200	499856
303104	544960	510944
311296	608608	573360
319488	624688	591776
327680	560960	531472
335872	563680	539312
344064	351680	324784
352256	226880	199856
360448	179456	146016
368640	177616	144512
376832	201264	172672
385024	193200	162496
393216	159504	137200
401408	146400	125440
409600	189840	169520
417792	157024	136864
425984	156144	101072
434176	169136	94784
442368	166240	84016
450560	181344	77632
458752	199376	81536
466944	306176	93472
475136	344960	135008
483328	295776	118896
491520	262640	108688
499712	300000	155152
507904	409104	272336
516096	493088	437808
524288	967648	929984
540672	534672	471040
557056	312640	262448
573440	176912	131872
589824	129296	98832
606208	81104	61904
622592	78576	55024
638976	69264	47024
655360	71248	45040
671744	72560	45264
688128	80576	54032
704512	86816	61680
720896	101264	74464
737280	100272	72304
753664	102512	75184
770048	99408	73440
786432	102624	77648
802816	95520	71104
819200	106592	83792
835584	114256	94656
851968	106800	86864
868352	75024	55568
884736	73200	61216
901120	102128	94896
917504	97728	90752
933888	101840	91744
950272	82784	74880
966656	78464	73216
983040	76304	71200
999424	67360	62480
1015808	71056	64608
1032192	98208	89344
1048576	300880	276992
1081344	337680	310128
1114112	284784	254816
1146880	308048	275984
1179648	252304	215360
1212416	242016	201232
1245184	207632	168752
1277952	237248	203376
1310720	299200	246880
1343488	412032	342224
1376256	457888	380368
1409024	3187632	3004176
1441792	2458880	2296176
1474560	541824	485584
1507328	653600	596864
1540096	453856	405872
1572864	1190544	1111152
1605632	1865312	1721488
1638400	1139328	1053264
1671168	794704	714944
1703936	2614400	2462592
1736704	151520	132288
1769472	237392	214528
1802240	421056	394816
1835008	400192	371536
1867776	441760	406192
1900544	211504	194384
1933312	220624	206112
1966080	55248	49600
1998848	30992	27104
2031616	22640	17456
2064384	26064	21600
2097152	41536	33088
2162688	52000	40672
2228224	54480	45040
2293760	54656	44352
2359296	40800	35696
2424832	148000	137712
2490368	204016	190256
2555904	121264	113408
2621440	13616	9808
2686976	9440	5952
2752512	8768	5888
2818048	22048	18544
2883584	13872	5680
2949120	7216	3968
3014656	9984	5728
3080192	13984	4944
3145728	30416	24272
3211264	6016	1744
3276800	8512	4832
3342336	11888	5376
3407872	10320	4096
3473408	9872	5632
3538944	8848	4656
3604480	7664	3520
3670016	11936	4576
3735552	10736	3408
3801088	7232	1920
3866624	9216	2992
3932160	7280	2192
3997696	6656	1008
4063232	6464	496
4128768	6608	464
4194304	13904	592
4325376	12800	1040
4456448	11440	3120
4587520	12432	368
4718592	18736	432
4849664	16112	752
4980736	13696	256
5111808	9920	64
5242880	4208	256
5373952	1360	176
5505024	18768	368
5636096	18288	80
5767168	20096	2592
5898240	47120	5040
6029312	46192	2016
6160384	57792	8832
6291456	216976	38432
6422528	26480	4224
6553600	34320	6464
6684672	21904	18304
6815744	35984	31568
6946816	32160	18848
7077888	100144	63056
7208960	566624	520320
7340032	184144	152192
7471104	278496	243344
7602176	255984	240576
7733248	40256	33872
7864320	13728	11776
7995392	20464	13008
8126464	75024	69648
8257536	368	176
8388608	704	128
8650752	1328	1184
8912896	8064	7792
9175040	2368	704
9437184	368	144
9699328	560	448
9961472	400	272
10223616	1392	608
10485760	432	192
10747904	384	272
11010048	1648	384
11272192	2224	688
11534336	2496	1200
11796480	592	464
12058624	336	160
12320768	896	144
12582912	1472	592
12845056	3184	2240
13107200	1632	768
13369344	880	784
13631488	736	160
13893632	1536	80
14155776	1552	416
14417920	960	704
14680064	7808	368
14942208	5200	96
15204352	8640	96
15466496	12560	160
15728640	12048	320
15990784	23728	8160
16252928	18480	272
16515072	11760	560
16777216	32720	1792
17301504	33760	4304
17825792	31712	2064
18350080	65232	34080
18874368	149792	120384
19398656	237152	185696
19922944	345584	139536
20447232	137648	76848
20971520	148096	125824
21495808	165536	136800
22020096	232512	121648
22544384	247696	122544
23068672	64640	52208
23592960	77264	26352
24117248	95632	56672
24641536	10368	7280
25165824	8560	4320
25690112	20096	14224
26214400	9440	4704
26738688	688	16
27262976	496	48
27787264	752	16
28311552	368	0
28835840	192	160
29360128	48	48
29884416	624	544
30408704	80	80
30932992	16	0
31457280	32	32
31981568	32	0
32505856	0	0
33030144	32	0
33554432	304	176
34603008	96	64
35651584	128	16
36700160	608	384
37748736	112	32
38797312	128	96
39845888	8064	8048
40894464	128	96
41943040	37328	36864
42991616	224	0
44040192	160	48
45088768	224	16
46137344	416	224
47185920	1136	608
48234496	2832	16
49283072	832	800
50331648	96	48
51380224	128	80
52428800	432	432
53477376	0	0
54525952	96	80
55574528	32	0
56623104	16	16
57671680	32	0
58720256	32	32
59768832	80	16
60817408	48	0
61865984	16	0
62914560	96	16
63963136	16	0
65011712	160	48
66060288	256	48
67108864	576	320
69206016	320	48
71303168	48	48
73400320	160	144
75497472	816	800
77594624	96	80
79691776	32	0
81788928	608	352
83886080	35424	35120
85983232	272	272
88080384	48	16
90177536	432	272
92274688	64	0
94371840	32	32
96468992	672	656
98566144	48	48
100663296	480	448
102760448	752	704
104857600	432	384
106954752	2704	48
109051904	144	128
111149056	80	16
113246208	16	16
115343360	48	32
117440512	256	240
119537664	2000	1984
121634816	608	576
123731968	32	32
125829120	64	64
127926272	96	48
130023424	448	336
132120576	512	416
134217728	912	640
138412032	576	576
142606336	16	16
146800640	16	0
150994944	64	48
155189248	848	0
159383552	640	576
163577856	48	48
167772160	0	0
171966464	0	0
176160768	16	0
180355072	96	0
184549376	16	16
188743680	16	16
192937984	48	48
197132288	32	32
201326592	112	16
205520896	144	144
209715200	0	0
213909504	0	0
218103808	16	16
222298112	0	0
226492416	0	0
230686720	0	0
234881024	0	0
239075328	0	0
243269632	0	0
247463936	16	16
251658240	64	64
255852544	0	0
260046848	48	48
264241152	0	0
268435456	0	0
276824064	16	16
285212672	0	0
293601280	0	0
301989888	0	0
310378496	0	0
318767104	0	0
327155712	0	0
335544320	0	0
343932928	0	0
352321536	0	0
360710144	0	0
369098752	0	0
377487360	0	0
385875968	0	0
394264576	0	0
402653184	0	0
411041792	0	0
419430400	0	0
427819008	0	0
436207616	0	0
444596224	0	0
452984832	0	0
461373440	0	0
469762048	0	0
478150656	0	0
486539264	0	0
494927872	0	0
503316480	0	0
511705088	0	0
520093696	0	0
528482304	0	0
536870912	0	0
553648128	0	0
570425344	0	0
587202560	0	0
603979776	0	0
620756992	0	0
637534208	0	0
654311424	0	0
671088640	0	0
687865856	0	0
704643072	0	0
721420288	0	0
738197504	0	0
754974720	0	0
771751936	0	0
788529152	0	0
805306368	0	0
822083584	0	0
838860800	0	0
855638016	0	0
872415232	0	0
889192448	0	0
905969664	0	0
922746880	0	0
939524096	0	0
956301312	0	0
973078528	0	0
989855744	0	0
1006632960	0	0
1023410176	0	0
1040187392	0	0
1056964608	0	0
1073741824	0	0
1107296256	0	0
1140850688	0	0
1174405120	0	0
1207959552	0	0
1241513984	0	0
1275068416	0	0
1308622848	0	0
1342177280	0	0
1375731712	0	0
1409286144	0	0
1442840576	0	0
1476395008	0	0
1509949440	0	0
1543503872	0	0
1577058304	0	0
1610612736	0	0
1644167168	0	0
1677721600	0	0
1711276032	0	0
1744830464	0	0
1778384896	0	0
1811939328	0	0
1845493760	0	0
1879048192	0	0
1912602624	0	0
1946157056	0	0
1979711488	0	0
2013265920	0	0
2046820352	0	0
2080374784	0	0
2113929216	0	0
2147483648	0	0
2214592512	0	0
2281701376	0	0
2348810240	0	0
2415919104	0	0
2483027968	0	0
2550136832	0	0
2617245696	0	0
2684354560	0	0
2751463424	0	0
2818572288	0	0
2885681152	0	0
2952790016	0	0
3019898880	0	0
3087007744	0	0
3154116608	0	0
3221225472	0	0
3288334336	0	0
3355443200	0	0
3422552064	0	0
3489660928	0	0
3556769792	0	0
3623878656	0	0
3690987520	0	0
3758096384	0	0
3825205248	0	0
3892314112	0	0
3959422976	0	0
4026531840	0	0
4093640704	0	0
4160749568	0	0
4227858432	0	0
~~~~~~~~~~Reuse Distance Profiler output end~~~~~~~~~~

Sampler size:30548

DRAM Statistics
 CHANNEL 0
 RQ ROW_BUFFER_HIT:    2222371  ROW_BUFFER_MISS:   17699067
 DBUS AVG_CONGESTED_CYCLE:    3.87591
 WQ ROW_BUFFER_HIT:     334008  ROW_BUFFER_MISS:    3364437  FULL:          0


CPU 0 Branch Prediction Accuracy: 92.3227% MPKI: 13.645 Average ROB Occupancy at Mispredict: 47.0411
Branch type MPKI
BRANCH_DIRECT_JUMP: 3.86667e-05
BRANCH_INDIRECT: 4.8e-05
BRANCH_CONDITIONAL: 13.6442
BRANCH_DIRECT_CALL: 2.86667e-05
BRANCH_INDIRECT_CALL: 0.000114
BRANCH_RETURN: 0.000561333

