
*** ChampSim Multicore Out-of-Order Simulator ***

Warmup Instructions: 50000000
Simulation Instructions: 1500000000
Number of CPUs: 1
Off-chip DRAM Size: 4 GiB Channels: 1 Width: 64-bit Data Rate: 3200 MT/s

VirtualMemory physical capacity: 8588881920 num_ppages: 2096895
VirtualMemory page size: 4096 log2_page_size: 12

CPU 0 runs /s/traces/champsim_traces/458.sjeng-283B.champsimtrace.xz
CPU 0 Bimodal branch predictor
Basic BTB sets: 1024 ways: 8 indirect buffer size: 4096 RAS size: 64
Initializing LRU.
Initializing LRU.
Initializing LRU.
Initializing LRU.
Initializing rdLRU.
Initializing LRU.
Heartbeat CPU 0 instructions: 2000001 cycles: 500248 heartbeat IPC: 3.99802 cumulative IPC: 3.99802 (Simulation time: 0 hr 1 min 0 sec) 
Heartbeat CPU 0 instructions: 4000000 cycles: 1000281 heartbeat IPC: 3.99973 cumulative IPC: 3.99888 (Simulation time: 0 hr 2 min 5 sec) 
Heartbeat CPU 0 instructions: 6000000 cycles: 1500281 heartbeat IPC: 4 cumulative IPC: 3.99925 (Simulation time: 0 hr 3 min 7 sec) 
Heartbeat CPU 0 instructions: 8000000 cycles: 2000281 heartbeat IPC: 4 cumulative IPC: 3.99944 (Simulation time: 0 hr 4 min 14 sec) 
Heartbeat CPU 0 instructions: 10000000 cycles: 2500281 heartbeat IPC: 4 cumulative IPC: 3.99955 (Simulation time: 0 hr 5 min 14 sec) 
Heartbeat CPU 0 instructions: 12000000 cycles: 3000281 heartbeat IPC: 4 cumulative IPC: 3.99963 (Simulation time: 0 hr 6 min 15 sec) 
Heartbeat CPU 0 instructions: 14000000 cycles: 3500281 heartbeat IPC: 4 cumulative IPC: 3.99968 (Simulation time: 0 hr 7 min 22 sec) 
Heartbeat CPU 0 instructions: 16000000 cycles: 4000281 heartbeat IPC: 4 cumulative IPC: 3.99972 (Simulation time: 0 hr 8 min 26 sec) 
Heartbeat CPU 0 instructions: 18000001 cycles: 4500285 heartbeat IPC: 3.99997 cumulative IPC: 3.99975 (Simulation time: 0 hr 9 min 30 sec) 
Heartbeat CPU 0 instructions: 20000001 cycles: 5000329 heartbeat IPC: 3.99965 cumulative IPC: 3.99974 (Simulation time: 0 hr 10 min 35 sec) 
Heartbeat CPU 0 instructions: 22000001 cycles: 5500329 heartbeat IPC: 4 cumulative IPC: 3.99976 (Simulation time: 0 hr 11 min 39 sec) 
Heartbeat CPU 0 instructions: 24000002 cycles: 6000346 heartbeat IPC: 3.99987 cumulative IPC: 3.99977 (Simulation time: 0 hr 12 min 43 sec) 
Heartbeat CPU 0 instructions: 26000002 cycles: 6500346 heartbeat IPC: 4 cumulative IPC: 3.99979 (Simulation time: 0 hr 13 min 46 sec) 
Heartbeat CPU 0 instructions: 28000002 cycles: 7000346 heartbeat IPC: 4 cumulative IPC: 3.9998 (Simulation time: 0 hr 14 min 46 sec) 
Heartbeat CPU 0 instructions: 30000002 cycles: 7500346 heartbeat IPC: 4 cumulative IPC: 3.99982 (Simulation time: 0 hr 15 min 47 sec) 
Heartbeat CPU 0 instructions: 32000002 cycles: 8000346 heartbeat IPC: 4 cumulative IPC: 3.99983 (Simulation time: 0 hr 16 min 52 sec) 
Heartbeat CPU 0 instructions: 34000002 cycles: 8500346 heartbeat IPC: 4 cumulative IPC: 3.99984 (Simulation time: 0 hr 17 min 59 sec) 
Heartbeat CPU 0 instructions: 36000002 cycles: 9000346 heartbeat IPC: 4 cumulative IPC: 3.99985 (Simulation time: 0 hr 19 min 3 sec) 
Heartbeat CPU 0 instructions: 38000002 cycles: 9500346 heartbeat IPC: 4 cumulative IPC: 3.99985 (Simulation time: 0 hr 20 min 6 sec) 
Heartbeat CPU 0 instructions: 40000002 cycles: 10000346 heartbeat IPC: 4 cumulative IPC: 3.99986 (Simulation time: 0 hr 21 min 10 sec) 
Heartbeat CPU 0 instructions: 42000002 cycles: 10500346 heartbeat IPC: 4 cumulative IPC: 3.99987 (Simulation time: 0 hr 22 min 14 sec) 
Heartbeat CPU 0 instructions: 44000002 cycles: 11000346 heartbeat IPC: 4 cumulative IPC: 3.99987 (Simulation time: 0 hr 23 min 16 sec) 
Heartbeat CPU 0 instructions: 46000002 cycles: 11500346 heartbeat IPC: 4 cumulative IPC: 3.99988 (Simulation time: 0 hr 24 min 21 sec) 
Heartbeat CPU 0 instructions: 48000002 cycles: 12000346 heartbeat IPC: 4 cumulative IPC: 3.99988 (Simulation time: 0 hr 25 min 27 sec) 
Heartbeat CPU 0 instructions: 50000002 cycles: 12500346 heartbeat IPC: 4 cumulative IPC: 3.99989 (Simulation time: 0 hr 26 min 34 sec) 

Warmup complete CPU 0 instructions: 50000002 cycles: 12500346 (Simulation time: 0 hr 26 min 34 sec) 

Heartbeat CPU 0 instructions: 52000001 cycles: 14998190 heartbeat IPC: 0.80069 cumulative IPC: 0.80069 (Simulation time: 0 hr 27 min 44 sec) 

Region of Interest Statistics
cpu0_DTLB TOTAL     ACCESS:     435087  HIT:     432117  MISS:       2970
cpu0_DTLB LOAD      ACCESS:     332794  HIT:     330145  MISS:       2649
cpu0_DTLB RFO       ACCESS:     102293  HIT:     101972  MISS:        321
cpu0_DTLB PREFETCH  ACCESS:          0  HIT:          0  MISS:          0
cpu0_DTLB WRITEBACK ACCESS:          0  HIT:          0  MISS:          0
cpu0_ITLB TOTAL     ACCESS:     198690  HIT:     198690  MISS:          0
cpu0_ITLB LOAD      ACCESS:     198690  HIT:     198690  MISS:          0
cpu0_ITLB RFO       ACCESS:          0  HIT:          0  MISS:          0
cpu0_ITLB PREFETCH  ACCESS:          0  HIT:          0  MISS:          0
cpu0_ITLB WRITEBACK ACCESS:          0  HIT:          0  MISS:          0
cpu0_L1I TOTAL     ACCESS:     150554  HIT:     150541  MISS:         13
cpu0_L1I LOAD      ACCESS:     150554  HIT:     150541  MISS:         13
cpu0_L1I RFO       ACCESS:          0  HIT:          0  MISS:          0
cpu0_L1I PREFETCH  ACCESS:          0  HIT:          0  MISS:          0
cpu0_L1I WRITEBACK ACCESS:          0  HIT:          0  MISS:          0
cpu0_STLB TOTAL     ACCESS:       2970  HIT:       2197  MISS:        773
cpu0_STLB LOAD      ACCESS:       2649  HIT:       1878  MISS:        771
cpu0_STLB RFO       ACCESS:        321  HIT:        319  MISS:          2
cpu0_STLB PREFETCH  ACCESS:          0  HIT:          0  MISS:          0
cpu0_STLB WRITEBACK ACCESS:          0  HIT:          0  MISS:          0
cpu0_L1D TOTAL     ACCESS:     527326  HIT:     526009  MISS:       1317
cpu0_L1D LOAD      ACCESS:     357913  HIT:     356764  MISS:       1149
cpu0_L1D RFO       ACCESS:     168640  HIT:     168474  MISS:        166
cpu0_L1D PREFETCH  ACCESS:          0  HIT:          0  MISS:          0
cpu0_L1D WRITEBACK ACCESS:          0  HIT:          0  MISS:          0
cpu0_L2C TOTAL     ACCESS:       2224  HIT:       1290  MISS:        934
cpu0_L2C LOAD      ACCESS:       1162  HIT:        303  MISS:        859
cpu0_L2C RFO       ACCESS:        166  HIT:        105  MISS:         61
cpu0_L2C PREFETCH  ACCESS:          0  HIT:          0  MISS:          0
cpu0_L2C WRITEBACK ACCESS:        894  HIT:        881  MISS:         13
LLC TOTAL     ACCESS:       1649  HIT:        441  MISS:       1208
LLC LOAD      ACCESS:        859  HIT:         21  MISS:        838
LLC RFO       ACCESS:         61  HIT:          2  MISS:         59
LLC PREFETCH  ACCESS:          0  HIT:          0  MISS:          0
LLC WRITEBACK ACCESS:        728  HIT:        418  MISS:        310
Heartbeat CPU 0 instructions: 54000002 cycles: 17531935 heartbeat IPC: 0.789346 cumulative IPC: 0.794977 (Simulation time: 0 hr 28 min 54 sec) 

Region of Interest Statistics
cpu0_DTLB TOTAL     ACCESS:     883133  HIT:     876899  MISS:       6234
cpu0_DTLB LOAD      ACCESS:     671356  HIT:     665884  MISS:       5472
cpu0_DTLB RFO       ACCESS:     211777  HIT:     211015  MISS:        762
cpu0_DTLB PREFETCH  ACCESS:          0  HIT:          0  MISS:          0
cpu0_DTLB WRITEBACK ACCESS:          0  HIT:          0  MISS:          0
cpu0_ITLB TOTAL     ACCESS:     393798  HIT:     393798  MISS:          0
cpu0_ITLB LOAD      ACCESS:     393798  HIT:     393798  MISS:          0
cpu0_ITLB RFO       ACCESS:          0  HIT:          0  MISS:          0
cpu0_ITLB PREFETCH  ACCESS:          0  HIT:          0  MISS:          0
cpu0_ITLB WRITEBACK ACCESS:          0  HIT:          0  MISS:          0
cpu0_L1I TOTAL     ACCESS:     300743  HIT:     300672  MISS:         71
cpu0_L1I LOAD      ACCESS:     300743  HIT:     300672  MISS:         71
cpu0_L1I RFO       ACCESS:          0  HIT:          0  MISS:          0
cpu0_L1I PREFETCH  ACCESS:          0  HIT:          0  MISS:          0
cpu0_L1I WRITEBACK ACCESS:          0  HIT:          0  MISS:          0
cpu0_STLB TOTAL     ACCESS:       6234  HIT:       4655  MISS:       1579
cpu0_STLB LOAD      ACCESS:       5472  HIT:       3903  MISS:       1569
cpu0_STLB RFO       ACCESS:        762  HIT:        752  MISS:         10
cpu0_STLB PREFETCH  ACCESS:          0  HIT:          0  MISS:          0
cpu0_STLB WRITEBACK ACCESS:          0  HIT:          0  MISS:          0
cpu0_L1D TOTAL     ACCESS:    1062704  HIT:    1059625  MISS:       3079
cpu0_L1D LOAD      ACCESS:     711860  HIT:     709332  MISS:       2528
cpu0_L1D RFO       ACCESS:     349265  HIT:     348722  MISS:        543
cpu0_L1D PREFETCH  ACCESS:          0  HIT:          0  MISS:          0
cpu0_L1D WRITEBACK ACCESS:          0  HIT:          0  MISS:          0
cpu0_L2C TOTAL     ACCESS:       5163  HIT:       3125  MISS:       2038
cpu0_L2C LOAD      ACCESS:       2599  HIT:        763  MISS:       1836
cpu0_L2C RFO       ACCESS:        543  HIT:        370  MISS:        173
cpu0_L2C PREFETCH  ACCESS:          0  HIT:          0  MISS:          0
cpu0_L2C WRITEBACK ACCESS:       2013  HIT:       1985  MISS:         28
LLC TOTAL     ACCESS:       3604  HIT:        943  MISS:       2661
LLC LOAD      ACCESS:       1836  HIT:         45  MISS:       1791
LLC RFO       ACCESS:        173  HIT:         43  MISS:        130
LLC PREFETCH  ACCESS:          0  HIT:          0  MISS:          0
LLC WRITEBACK ACCESS:       1594  HIT:        855  MISS:        739
Heartbeat CPU 0 instructions: 56000003 cycles: 20077265 heartbeat IPC: 0.785753 cumulative IPC: 0.791879 (Simulation time: 0 hr 30 min 1 sec) 

Region of Interest Statistics
cpu0_DTLB TOTAL     ACCESS:    1329826  HIT:    1320345  MISS:       9481
cpu0_DTLB LOAD      ACCESS:    1012502  HIT:    1004316  MISS:       8186
cpu0_DTLB RFO       ACCESS:     317324  HIT:     316029  MISS:       1295
cpu0_DTLB PREFETCH  ACCESS:          0  HIT:          0  MISS:          0
cpu0_DTLB WRITEBACK ACCESS:          0  HIT:          0  MISS:          0
cpu0_ITLB TOTAL     ACCESS:     588561  HIT:     588561  MISS:          0
cpu0_ITLB LOAD      ACCESS:     588561  HIT:     588561  MISS:          0
cpu0_ITLB RFO       ACCESS:          0  HIT:          0  MISS:          0
cpu0_ITLB PREFETCH  ACCESS:          0  HIT:          0  MISS:          0
cpu0_ITLB WRITEBACK ACCESS:          0  HIT:          0  MISS:          0
cpu0_L1I TOTAL     ACCESS:     452393  HIT:     452296  MISS:         97
cpu0_L1I LOAD      ACCESS:     452393  HIT:     452296  MISS:         97
cpu0_L1I RFO       ACCESS:          0  HIT:          0  MISS:          0
cpu0_L1I PREFETCH  ACCESS:          0  HIT:          0  MISS:          0
cpu0_L1I WRITEBACK ACCESS:          0  HIT:          0  MISS:          0
cpu0_STLB TOTAL     ACCESS:       9481  HIT:       7135  MISS:       2346
cpu0_STLB LOAD      ACCESS:       8186  HIT:       5856  MISS:       2330
cpu0_STLB RFO       ACCESS:       1295  HIT:       1279  MISS:         16
cpu0_STLB PREFETCH  ACCESS:          0  HIT:          0  MISS:          0
cpu0_STLB WRITEBACK ACCESS:          0  HIT:          0  MISS:          0
cpu0_L1D TOTAL     ACCESS:    1596729  HIT:    1592118  MISS:       4611
cpu0_L1D LOAD      ACCESS:    1068349  HIT:    1064592  MISS:       3757
cpu0_L1D RFO       ACCESS:     526034  HIT:     525190  MISS:        844
cpu0_L1D PREFETCH  ACCESS:          0  HIT:          0  MISS:          0
cpu0_L1D WRITEBACK ACCESS:          0  HIT:          0  MISS:          0
cpu0_L2C TOTAL     ACCESS:       7818  HIT:       4787  MISS:       3031
cpu0_L2C LOAD      ACCESS:       3854  HIT:       1138  MISS:       2716
cpu0_L2C RFO       ACCESS:        844  HIT:        559  MISS:        285
cpu0_L2C PREFETCH  ACCESS:          0  HIT:          0  MISS:          0
cpu0_L2C WRITEBACK ACCESS:       3110  HIT:       3081  MISS:         29
LLC TOTAL     ACCESS:       5377  HIT:       1348  MISS:       4029
LLC LOAD      ACCESS:       2716  HIT:         64  MISS:       2652
LLC RFO       ACCESS:        285  HIT:         79  MISS:        206
LLC PREFETCH  ACCESS:          0  HIT:          0  MISS:          0
LLC WRITEBACK ACCESS:       2375  HIT:       1205  MISS:       1170
Heartbeat CPU 0 instructions: 58000004 cycles: 22539274 heartbeat IPC: 0.812345 cumulative IPC: 0.796898 (Simulation time: 0 hr 31 min 12 sec) 

Region of Interest Statistics
cpu0_DTLB TOTAL     ACCESS:    1777281  HIT:    1764604  MISS:      12677
cpu0_DTLB LOAD      ACCESS:    1350782  HIT:    1339928  MISS:      10854
cpu0_DTLB RFO       ACCESS:     426499  HIT:     424676  MISS:       1823
cpu0_DTLB PREFETCH  ACCESS:          0  HIT:          0  MISS:          0
cpu0_DTLB WRITEBACK ACCESS:          0  HIT:          0  MISS:          0
cpu0_ITLB TOTAL     ACCESS:     785959  HIT:     785959  MISS:          0
cpu0_ITLB LOAD      ACCESS:     785959  HIT:     785959  MISS:          0
cpu0_ITLB RFO       ACCESS:          0  HIT:          0  MISS:          0
cpu0_ITLB PREFETCH  ACCESS:          0  HIT:          0  MISS:          0
cpu0_ITLB WRITEBACK ACCESS:          0  HIT:          0  MISS:          0
cpu0_L1I TOTAL     ACCESS:     593354  HIT:     593245  MISS:        109
cpu0_L1I LOAD      ACCESS:     593354  HIT:     593245  MISS:        109
cpu0_L1I RFO       ACCESS:          0  HIT:          0  MISS:          0
cpu0_L1I PREFETCH  ACCESS:          0  HIT:          0  MISS:          0
cpu0_L1I WRITEBACK ACCESS:          0  HIT:          0  MISS:          0
cpu0_STLB TOTAL     ACCESS:      12677  HIT:       9650  MISS:       3027
cpu0_STLB LOAD      ACCESS:      10854  HIT:       7845  MISS:       3009
cpu0_STLB RFO       ACCESS:       1823  HIT:       1805  MISS:         18
cpu0_STLB PREFETCH  ACCESS:          0  HIT:          0  MISS:          0
cpu0_STLB WRITEBACK ACCESS:          0  HIT:          0  MISS:          0
cpu0_L1D TOTAL     ACCESS:    2131271  HIT:    2125179  MISS:       6092
cpu0_L1D LOAD      ACCESS:    1418633  HIT:    1413748  MISS:       4885
cpu0_L1D RFO       ACCESS:     709611  HIT:     708416  MISS:       1195
cpu0_L1D PREFETCH  ACCESS:          0  HIT:          0  MISS:          0
cpu0_L1D WRITEBACK ACCESS:          0  HIT:          0  MISS:          0
cpu0_L2C TOTAL     ACCESS:      10339  HIT:       6474  MISS:       3865
cpu0_L2C LOAD      ACCESS:       4994  HIT:       1505  MISS:       3489
cpu0_L2C RFO       ACCESS:       1195  HIT:        852  MISS:        343
cpu0_L2C PREFETCH  ACCESS:          0  HIT:          0  MISS:          0
cpu0_L2C WRITEBACK ACCESS:       4138  HIT:       4107  MISS:         31
LLC TOTAL     ACCESS:       6866  HIT:       1600  MISS:       5266
LLC LOAD      ACCESS:       3489  HIT:         79  MISS:       3410
LLC RFO       ACCESS:        343  HIT:         94  MISS:        249
LLC PREFETCH  ACCESS:          0  HIT:          0  MISS:          0
LLC WRITEBACK ACCESS:       3032  HIT:       1426  MISS:       1606
Heartbeat CPU 0 instructions: 60000003 cycles: 25116806 heartbeat IPC: 0.775936 cumulative IPC: 0.792615 (Simulation time: 0 hr 32 min 23 sec) 

Region of Interest Statistics
cpu0_DTLB TOTAL     ACCESS:    2224396  HIT:    2208237  MISS:      16159
cpu0_DTLB LOAD      ACCESS:    1692221  HIT:    1678443  MISS:      13778
cpu0_DTLB RFO       ACCESS:     532175  HIT:     529794  MISS:       2381
cpu0_DTLB PREFETCH  ACCESS:          0  HIT:          0  MISS:          0
cpu0_DTLB WRITEBACK ACCESS:          0  HIT:          0  MISS:          0
cpu0_ITLB TOTAL     ACCESS:     979924  HIT:     979924  MISS:          0
cpu0_ITLB LOAD      ACCESS:     979924  HIT:     979924  MISS:          0
cpu0_ITLB RFO       ACCESS:          0  HIT:          0  MISS:          0
cpu0_ITLB PREFETCH  ACCESS:          0  HIT:          0  MISS:          0
cpu0_ITLB WRITEBACK ACCESS:          0  HIT:          0  MISS:          0
cpu0_L1I TOTAL     ACCESS:     747508  HIT:     747377  MISS:        131
cpu0_L1I LOAD      ACCESS:     747508  HIT:     747377  MISS:        131
cpu0_L1I RFO       ACCESS:          0  HIT:          0  MISS:          0
cpu0_L1I PREFETCH  ACCESS:          0  HIT:          0  MISS:          0
cpu0_L1I WRITEBACK ACCESS:          0  HIT:          0  MISS:          0
cpu0_STLB TOTAL     ACCESS:      16159  HIT:      12407  MISS:       3752
cpu0_STLB LOAD      ACCESS:      13778  HIT:      10046  MISS:       3732
cpu0_STLB RFO       ACCESS:       2381  HIT:       2361  MISS:         20
cpu0_STLB PREFETCH  ACCESS:          0  HIT:          0  MISS:          0
cpu0_STLB WRITEBACK ACCESS:          0  HIT:          0  MISS:          0
cpu0_L1D TOTAL     ACCESS:    2668293  HIT:    2660834  MISS:       7459
cpu0_L1D LOAD      ACCESS:    1776685  HIT:    1770667  MISS:       6018
cpu0_L1D RFO       ACCESS:     887856  HIT:     886430  MISS:       1426
cpu0_L1D PREFETCH  ACCESS:          0  HIT:          0  MISS:          0
cpu0_L1D WRITEBACK ACCESS:          0  HIT:          0  MISS:          0
cpu0_L2C TOTAL     ACCESS:      12748  HIT:       8011  MISS:       4737
cpu0_L2C LOAD      ACCESS:       6149  HIT:       1844  MISS:       4305
cpu0_L2C RFO       ACCESS:       1425  HIT:       1027  MISS:        398
cpu0_L2C PREFETCH  ACCESS:          0  HIT:          0  MISS:          0
cpu0_L2C WRITEBACK ACCESS:       5159  HIT:       5127  MISS:         32
LLC TOTAL     ACCESS:       8433  HIT:       1871  MISS:       6562
LLC LOAD      ACCESS:       4305  HIT:         91  MISS:       4214
LLC RFO       ACCESS:        398  HIT:         97  MISS:        301
LLC PREFETCH  ACCESS:          0  HIT:          0  MISS:          0
LLC WRITEBACK ACCESS:       3728  HIT:       1682  MISS:       2046
Heartbeat CPU 0 instructions: 62000003 cycles: 27670566 heartbeat IPC: 0.783159 cumulative IPC: 0.791024 (Simulation time: 0 hr 33 min 36 sec) 

Region of Interest Statistics
cpu0_DTLB TOTAL     ACCESS:    2665536  HIT:    2645982  MISS:      19554
cpu0_DTLB LOAD      ACCESS:    2027057  HIT:    2010374  MISS:      16683
cpu0_DTLB RFO       ACCESS:     638479  HIT:     635608  MISS:       2871
cpu0_DTLB PREFETCH  ACCESS:          0  HIT:          0  MISS:          0
cpu0_DTLB WRITEBACK ACCESS:          0  HIT:          0  MISS:          0
cpu0_ITLB TOTAL     ACCESS:    1177566  HIT:    1177566  MISS:          0
cpu0_ITLB LOAD      ACCESS:    1177566  HIT:    1177566  MISS:          0
cpu0_ITLB RFO       ACCESS:          0  HIT:          0  MISS:          0
cpu0_ITLB PREFETCH  ACCESS:          0  HIT:          0  MISS:          0
cpu0_ITLB WRITEBACK ACCESS:          0  HIT:          0  MISS:          0
cpu0_L1I TOTAL     ACCESS:     896703  HIT:     896559  MISS:        144
cpu0_L1I LOAD      ACCESS:     896703  HIT:     896559  MISS:        144
cpu0_L1I RFO       ACCESS:          0  HIT:          0  MISS:          0
cpu0_L1I PREFETCH  ACCESS:          0  HIT:          0  MISS:          0
cpu0_L1I WRITEBACK ACCESS:          0  HIT:          0  MISS:          0
cpu0_STLB TOTAL     ACCESS:      19554  HIT:      14874  MISS:       4680
cpu0_STLB LOAD      ACCESS:      16683  HIT:      12029  MISS:       4654
cpu0_STLB RFO       ACCESS:       2871  HIT:       2845  MISS:         26
cpu0_STLB PREFETCH  ACCESS:          0  HIT:          0  MISS:          0
cpu0_STLB WRITEBACK ACCESS:          0  HIT:          0  MISS:          0
cpu0_L1D TOTAL     ACCESS:    3196845  HIT:    3187484  MISS:       9361
cpu0_L1D LOAD      ACCESS:    2127353  HIT:    2119846  MISS:       7507
cpu0_L1D RFO       ACCESS:    1064812  HIT:    1062976  MISS:       1836
cpu0_L1D PREFETCH  ACCESS:          0  HIT:          0  MISS:          0
cpu0_L1D WRITEBACK ACCESS:          0  HIT:          0  MISS:          0
cpu0_L2C TOTAL     ACCESS:      15888  HIT:      10129  MISS:       5759
cpu0_L2C LOAD      ACCESS:       7651  HIT:       2394  MISS:       5257
cpu0_L2C RFO       ACCESS:       1835  HIT:       1370  MISS:        465
cpu0_L2C PREFETCH  ACCESS:          0  HIT:          0  MISS:          0
cpu0_L2C WRITEBACK ACCESS:       6384  HIT:       6349  MISS:         35
LLC TOTAL     ACCESS:      10276  HIT:       2159  MISS:       8117
LLC LOAD      ACCESS:       5257  HIT:        126  MISS:       5131
LLC RFO       ACCESS:        465  HIT:         99  MISS:        366
LLC PREFETCH  ACCESS:          0  HIT:          0  MISS:          0
LLC WRITEBACK ACCESS:       4552  HIT:       1933  MISS:       2619
Heartbeat CPU 0 instructions: 64000000 cycles: 30220754 heartbeat IPC: 0.784255 cumulative IPC: 0.790049 (Simulation time: 0 hr 34 min 46 sec) 

Region of Interest Statistics
cpu0_DTLB TOTAL     ACCESS:    3111301  HIT:    3088336  MISS:      22965
cpu0_DTLB LOAD      ACCESS:    2364346  HIT:    2344699  MISS:      19647
cpu0_DTLB RFO       ACCESS:     746955  HIT:     743637  MISS:       3318
cpu0_DTLB PREFETCH  ACCESS:          0  HIT:          0  MISS:          0
cpu0_DTLB WRITEBACK ACCESS:          0  HIT:          0  MISS:          0
cpu0_ITLB TOTAL     ACCESS:    1372570  HIT:    1372570  MISS:          0
cpu0_ITLB LOAD      ACCESS:    1372570  HIT:    1372570  MISS:          0
cpu0_ITLB RFO       ACCESS:          0  HIT:          0  MISS:          0
cpu0_ITLB PREFETCH  ACCESS:          0  HIT:          0  MISS:          0
cpu0_ITLB WRITEBACK ACCESS:          0  HIT:          0  MISS:          0
cpu0_L1I TOTAL     ACCESS:    1055867  HIT:    1055687  MISS:        180
cpu0_L1I LOAD      ACCESS:    1055867  HIT:    1055687  MISS:        180
cpu0_L1I RFO       ACCESS:          0  HIT:          0  MISS:          0
cpu0_L1I PREFETCH  ACCESS:          0  HIT:          0  MISS:          0
cpu0_L1I WRITEBACK ACCESS:          0  HIT:          0  MISS:          0
cpu0_STLB TOTAL     ACCESS:      22965  HIT:      17460  MISS:       5505
cpu0_STLB LOAD      ACCESS:      19647  HIT:      14172  MISS:       5475
cpu0_STLB RFO       ACCESS:       3318  HIT:       3288  MISS:         30
cpu0_STLB PREFETCH  ACCESS:          0  HIT:          0  MISS:          0
cpu0_STLB WRITEBACK ACCESS:          0  HIT:          0  MISS:          0
cpu0_L1D TOTAL     ACCESS:    3728616  HIT:    3717687  MISS:      10929
cpu0_L1D LOAD      ACCESS:    2481636  HIT:    2472883  MISS:       8753
cpu0_L1D RFO       ACCESS:    1241475  HIT:    1239323  MISS:       2152
cpu0_L1D PREFETCH  ACCESS:          0  HIT:          0  MISS:          0
cpu0_L1D WRITEBACK ACCESS:          0  HIT:          0  MISS:          0
cpu0_L2C TOTAL     ACCESS:      18538  HIT:      11801  MISS:       6737
cpu0_L2C LOAD      ACCESS:       8933  HIT:       2776  MISS:       6157
cpu0_L2C RFO       ACCESS:       2151  HIT:       1611  MISS:        540
cpu0_L2C PREFETCH  ACCESS:          0  HIT:          0  MISS:          0
cpu0_L2C WRITEBACK ACCESS:       7430  HIT:       7392  MISS:         38
LLC TOTAL     ACCESS:      12052  HIT:       2470  MISS:       9582
LLC LOAD      ACCESS:       6157  HIT:        182  MISS:       5975
LLC RFO       ACCESS:        540  HIT:        112  MISS:        428
LLC PREFETCH  ACCESS:          0  HIT:          0  MISS:          0
LLC WRITEBACK ACCESS:       5353  HIT:       2175  MISS:       3178
Heartbeat CPU 0 instructions: 66000002 cycles: 32760742 heartbeat IPC: 0.787406 cumulative IPC: 0.789718 (Simulation time: 0 hr 35 min 51 sec) 

Region of Interest Statistics
cpu0_DTLB TOTAL     ACCESS:    3562802  HIT:    3536297  MISS:      26505
cpu0_DTLB LOAD      ACCESS:    2704124  HIT:    2681496  MISS:      22628
cpu0_DTLB RFO       ACCESS:     858678  HIT:     854801  MISS:       3877
cpu0_DTLB PREFETCH  ACCESS:          0  HIT:          0  MISS:          0
cpu0_DTLB WRITEBACK ACCESS:          0  HIT:          0  MISS:          0
cpu0_ITLB TOTAL     ACCESS:    1569429  HIT:    1569429  MISS:          0
cpu0_ITLB LOAD      ACCESS:    1569429  HIT:    1569429  MISS:          0
cpu0_ITLB RFO       ACCESS:          0  HIT:          0  MISS:          0
cpu0_ITLB PREFETCH  ACCESS:          0  HIT:          0  MISS:          0
cpu0_ITLB WRITEBACK ACCESS:          0  HIT:          0  MISS:          0
cpu0_L1I TOTAL     ACCESS:    1213085  HIT:    1212820  MISS:        265
cpu0_L1I LOAD      ACCESS:    1213085  HIT:    1212820  MISS:        265
cpu0_L1I RFO       ACCESS:          0  HIT:          0  MISS:          0
cpu0_L1I PREFETCH  ACCESS:          0  HIT:          0  MISS:          0
cpu0_L1I WRITEBACK ACCESS:          0  HIT:          0  MISS:          0
cpu0_STLB TOTAL     ACCESS:      26505  HIT:      20108  MISS:       6397
cpu0_STLB LOAD      ACCESS:      22628  HIT:      16262  MISS:       6366
cpu0_STLB RFO       ACCESS:       3877  HIT:       3846  MISS:         31
cpu0_STLB PREFETCH  ACCESS:          0  HIT:          0  MISS:          0
cpu0_STLB WRITEBACK ACCESS:          0  HIT:          0  MISS:          0
cpu0_L1D TOTAL     ACCESS:    4264412  HIT:    4251694  MISS:      12718
cpu0_L1D LOAD      ACCESS:    2834404  HIT:    2824293  MISS:      10111
cpu0_L1D RFO       ACCESS:    1423611  HIT:    1421032  MISS:       2579
cpu0_L1D PREFETCH  ACCESS:          0  HIT:          0  MISS:          0
cpu0_L1D WRITEBACK ACCESS:          0  HIT:          0  MISS:          0
cpu0_L2C TOTAL     ACCESS:      21593  HIT:      13796  MISS:       7797
cpu0_L2C LOAD      ACCESS:      10376  HIT:       3246  MISS:       7130
cpu0_L2C RFO       ACCESS:       2578  HIT:       1952  MISS:        626
cpu0_L2C PREFETCH  ACCESS:          0  HIT:          0  MISS:          0
cpu0_L2C WRITEBACK ACCESS:       8611  HIT:       8572  MISS:         39
LLC TOTAL     ACCESS:      13984  HIT:       2818  MISS:      11166
LLC LOAD      ACCESS:       7130  HIT:        245  MISS:       6885
LLC RFO       ACCESS:        626  HIT:        124  MISS:        502
LLC PREFETCH  ACCESS:          0  HIT:          0  MISS:          0
LLC WRITEBACK ACCESS:       6226  HIT:       2448  MISS:       3778
Heartbeat CPU 0 instructions: 68000001 cycles: 35345420 heartbeat IPC: 0.77379 cumulative IPC: 0.787916 (Simulation time: 0 hr 36 min 57 sec) 

Region of Interest Statistics
cpu0_DTLB TOTAL     ACCESS:    4009373  HIT:    3979754  MISS:      29619
cpu0_DTLB LOAD      ACCESS:    3040046  HIT:    3014860  MISS:      25186
cpu0_DTLB RFO       ACCESS:     969327  HIT:     964894  MISS:       4433
cpu0_DTLB PREFETCH  ACCESS:          0  HIT:          0  MISS:          0
cpu0_DTLB WRITEBACK ACCESS:          0  HIT:          0  MISS:          0
cpu0_ITLB TOTAL     ACCESS:    1763787  HIT:    1763787  MISS:          0
cpu0_ITLB LOAD      ACCESS:    1763787  HIT:    1763787  MISS:          0
cpu0_ITLB RFO       ACCESS:          0  HIT:          0  MISS:          0
cpu0_ITLB PREFETCH  ACCESS:          0  HIT:          0  MISS:          0
cpu0_ITLB WRITEBACK ACCESS:          0  HIT:          0  MISS:          0
cpu0_L1I TOTAL     ACCESS:    1367452  HIT:    1367154  MISS:        298
cpu0_L1I LOAD      ACCESS:    1367452  HIT:    1367154  MISS:        298
cpu0_L1I RFO       ACCESS:          0  HIT:          0  MISS:          0
cpu0_L1I PREFETCH  ACCESS:          0  HIT:          0  MISS:          0
cpu0_L1I WRITEBACK ACCESS:          0  HIT:          0  MISS:          0
cpu0_STLB TOTAL     ACCESS:      29619  HIT:      22319  MISS:       7300
cpu0_STLB LOAD      ACCESS:      25186  HIT:      17928  MISS:       7258
cpu0_STLB RFO       ACCESS:       4433  HIT:       4391  MISS:         42
cpu0_STLB PREFETCH  ACCESS:          0  HIT:          0  MISS:          0
cpu0_STLB WRITEBACK ACCESS:          0  HIT:          0  MISS:          0
cpu0_L1D TOTAL     ACCESS:    4798463  HIT:    4783856  MISS:      14607
cpu0_L1D LOAD      ACCESS:    3183649  HIT:    3172150  MISS:      11499
cpu0_L1D RFO       ACCESS:    1607514  HIT:    1604439  MISS:       3075
cpu0_L1D PREFETCH  ACCESS:          0  HIT:          0  MISS:          0
cpu0_L1D WRITEBACK ACCESS:          0  HIT:          0  MISS:          0
cpu0_L2C TOTAL     ACCESS:      24771  HIT:      15905  MISS:       8866
cpu0_L2C LOAD      ACCESS:      11797  HIT:       3685  MISS:       8112
cpu0_L2C RFO       ACCESS:       3074  HIT:       2362  MISS:        712
cpu0_L2C PREFETCH  ACCESS:          0  HIT:          0  MISS:          0
cpu0_L2C WRITEBACK ACCESS:       9867  HIT:       9827  MISS:         40
LLC TOTAL     ACCESS:      15937  HIT:       3111  MISS:      12826
LLC LOAD      ACCESS:       8112  HIT:        276  MISS:       7836
LLC RFO       ACCESS:        712  HIT:        130  MISS:        582
LLC PREFETCH  ACCESS:          0  HIT:          0  MISS:          0
LLC WRITEBACK ACCESS:       7111  HIT:       2704  MISS:       4407
Heartbeat CPU 0 instructions: 70000004 cycles: 37925274 heartbeat IPC: 0.775239 cumulative IPC: 0.78663 (Simulation time: 0 hr 38 min 2 sec) 

Region of Interest Statistics
cpu0_DTLB TOTAL     ACCESS:    4453900  HIT:    4420629  MISS:      33271
cpu0_DTLB LOAD      ACCESS:    3378017  HIT:    3349709  MISS:      28308
cpu0_DTLB RFO       ACCESS:    1075883  HIT:    1070920  MISS:       4963
cpu0_DTLB PREFETCH  ACCESS:          0  HIT:          0  MISS:          0
cpu0_DTLB WRITEBACK ACCESS:          0  HIT:          0  MISS:          0
cpu0_ITLB TOTAL     ACCESS:    1953104  HIT:    1953104  MISS:          0
cpu0_ITLB LOAD      ACCESS:    1953104  HIT:    1953104  MISS:          0
cpu0_ITLB RFO       ACCESS:          0  HIT:          0  MISS:          0
cpu0_ITLB PREFETCH  ACCESS:          0  HIT:          0  MISS:          0
cpu0_ITLB WRITEBACK ACCESS:          0  HIT:          0  MISS:          0
cpu0_L1I TOTAL     ACCESS:    1539331  HIT:    1538979  MISS:        352
cpu0_L1I LOAD      ACCESS:    1539331  HIT:    1538979  MISS:        352
cpu0_L1I RFO       ACCESS:          0  HIT:          0  MISS:          0
cpu0_L1I PREFETCH  ACCESS:          0  HIT:          0  MISS:          0
cpu0_L1I WRITEBACK ACCESS:          0  HIT:          0  MISS:          0
cpu0_STLB TOTAL     ACCESS:      33271  HIT:      25134  MISS:       8137
cpu0_STLB LOAD      ACCESS:      28308  HIT:      20218  MISS:       8090
cpu0_STLB RFO       ACCESS:       4963  HIT:       4916  MISS:         47
cpu0_STLB PREFETCH  ACCESS:          0  HIT:          0  MISS:          0
cpu0_STLB WRITEBACK ACCESS:          0  HIT:          0  MISS:          0
cpu0_L1D TOTAL     ACCESS:    5327940  HIT:    5311682  MISS:      16258
cpu0_L1D LOAD      ACCESS:    3539959  HIT:    3527125  MISS:      12834
cpu0_L1D RFO       ACCESS:    1779844  HIT:    1776459  MISS:       3385
cpu0_L1D PREFETCH  ACCESS:          0  HIT:          0  MISS:          0
cpu0_L1D WRITEBACK ACCESS:          0  HIT:          0  MISS:          0
cpu0_L2C TOTAL     ACCESS:      27570  HIT:      17629  MISS:       9941
cpu0_L2C LOAD      ACCESS:      13186  HIT:       4121  MISS:       9065
cpu0_L2C RFO       ACCESS:       3384  HIT:       2556  MISS:        828
cpu0_L2C PREFETCH  ACCESS:          0  HIT:          0  MISS:          0
cpu0_L2C WRITEBACK ACCESS:      10961  HIT:      10916  MISS:         45
LLC TOTAL     ACCESS:      17895  HIT:       3463  MISS:      14432
LLC LOAD      ACCESS:       9065  HIT:        350  MISS:       8715
LLC RFO       ACCESS:        828  HIT:        160  MISS:        668
LLC PREFETCH  ACCESS:          0  HIT:          0  MISS:          0
LLC WRITEBACK ACCESS:       7999  HIT:       2952  MISS:       5047
Heartbeat CPU 0 instructions: 72000002 cycles: 40193193 heartbeat IPC: 0.881865 cumulative IPC: 0.794429 (Simulation time: 0 hr 39 min 8 sec) 

Region of Interest Statistics
cpu0_DTLB TOTAL     ACCESS:    4886798  HIT:    4851186  MISS:      35612
cpu0_DTLB LOAD      ACCESS:    3700331  HIT:    3670050  MISS:      30281
cpu0_DTLB RFO       ACCESS:    1186467  HIT:    1181136  MISS:       5331
cpu0_DTLB PREFETCH  ACCESS:          0  HIT:          0  MISS:          0
cpu0_DTLB WRITEBACK ACCESS:          0  HIT:          0  MISS:          0
cpu0_ITLB TOTAL     ACCESS:    2151881  HIT:    2151881  MISS:          0
cpu0_ITLB LOAD      ACCESS:    2151881  HIT:    2151881  MISS:          0
cpu0_ITLB RFO       ACCESS:          0  HIT:          0  MISS:          0
cpu0_ITLB PREFETCH  ACCESS:          0  HIT:          0  MISS:          0
cpu0_ITLB WRITEBACK ACCESS:          0  HIT:          0  MISS:          0
cpu0_L1I TOTAL     ACCESS:    1659754  HIT:    1659180  MISS:        574
cpu0_L1I LOAD      ACCESS:    1659754  HIT:    1659180  MISS:        574
cpu0_L1I RFO       ACCESS:          0  HIT:          0  MISS:          0
cpu0_L1I PREFETCH  ACCESS:          0  HIT:          0  MISS:          0
cpu0_L1I WRITEBACK ACCESS:          0  HIT:          0  MISS:          0
cpu0_STLB TOTAL     ACCESS:      35612  HIT:      26920  MISS:       8692
cpu0_STLB LOAD      ACCESS:      30281  HIT:      21637  MISS:       8644
cpu0_STLB RFO       ACCESS:       5331  HIT:       5283  MISS:         48
cpu0_STLB PREFETCH  ACCESS:          0  HIT:          0  MISS:          0
cpu0_STLB WRITEBACK ACCESS:          0  HIT:          0  MISS:          0
cpu0_L1D TOTAL     ACCESS:    5835358  HIT:    5817749  MISS:      17609
cpu0_L1D LOAD      ACCESS:    3862489  HIT:    3848729  MISS:      13760
cpu0_L1D RFO       ACCESS:    1964177  HIT:    1960371  MISS:       3806
cpu0_L1D PREFETCH  ACCESS:          0  HIT:          0  MISS:          0
cpu0_L1D WRITEBACK ACCESS:          0  HIT:          0  MISS:          0
cpu0_L2C TOTAL     ACCESS:      30033  HIT:      19327  MISS:      10706
cpu0_L2C LOAD      ACCESS:      14334  HIT:       4579  MISS:       9755
cpu0_L2C RFO       ACCESS:       3805  HIT:       2903  MISS:        902
cpu0_L2C PREFETCH  ACCESS:          0  HIT:          0  MISS:          0
cpu0_L2C WRITEBACK ACCESS:      11851  HIT:      11806  MISS:         45
LLC TOTAL     ACCESS:      19275  HIT:       3691  MISS:      15584
LLC LOAD      ACCESS:       9755  HIT:        359  MISS:       9396
LLC RFO       ACCESS:        902  HIT:        182  MISS:        720
LLC PREFETCH  ACCESS:          0  HIT:          0  MISS:          0
LLC WRITEBACK ACCESS:       8614  HIT:       3149  MISS:       5465
Heartbeat CPU 0 instructions: 74000000 cycles: 42472269 heartbeat IPC: 0.877548 cumulative IPC: 0.800749 (Simulation time: 0 hr 40 min 14 sec) 

Region of Interest Statistics
cpu0_DTLB TOTAL     ACCESS:    5310595  HIT:    5272427  MISS:      38168
cpu0_DTLB LOAD      ACCESS:    4015222  HIT:    3982837  MISS:      32385
cpu0_DTLB RFO       ACCESS:    1295373  HIT:    1289590  MISS:       5783
cpu0_DTLB PREFETCH  ACCESS:          0  HIT:          0  MISS:          0
cpu0_DTLB WRITEBACK ACCESS:          0  HIT:          0  MISS:          0
cpu0_ITLB TOTAL     ACCESS:    2349264  HIT:    2349264  MISS:          0
cpu0_ITLB LOAD      ACCESS:    2349264  HIT:    2349264  MISS:          0
cpu0_ITLB RFO       ACCESS:          0  HIT:          0  MISS:          0
cpu0_ITLB PREFETCH  ACCESS:          0  HIT:          0  MISS:          0
cpu0_ITLB WRITEBACK ACCESS:          0  HIT:          0  MISS:          0
cpu0_L1I TOTAL     ACCESS:    1775748  HIT:    1775017  MISS:        731
cpu0_L1I LOAD      ACCESS:    1775748  HIT:    1775017  MISS:        731
cpu0_L1I RFO       ACCESS:          0  HIT:          0  MISS:          0
cpu0_L1I PREFETCH  ACCESS:          0  HIT:          0  MISS:          0
cpu0_L1I WRITEBACK ACCESS:          0  HIT:          0  MISS:          0
cpu0_STLB TOTAL     ACCESS:      38168  HIT:      28870  MISS:       9298
cpu0_STLB LOAD      ACCESS:      32385  HIT:      23135  MISS:       9250
cpu0_STLB RFO       ACCESS:       5783  HIT:       5735  MISS:         48
cpu0_STLB PREFETCH  ACCESS:          0  HIT:          0  MISS:          0
cpu0_STLB WRITEBACK ACCESS:          0  HIT:          0  MISS:          0
cpu0_L1D TOTAL     ACCESS:    6339748  HIT:    6320827  MISS:      18921
cpu0_L1D LOAD      ACCESS:    4183732  HIT:    4168939  MISS:      14793
cpu0_L1D RFO       ACCESS:    2146718  HIT:    2142633  MISS:       4085
cpu0_L1D PREFETCH  ACCESS:          0  HIT:          0  MISS:          0
cpu0_L1D WRITEBACK ACCESS:          0  HIT:          0  MISS:          0
cpu0_L2C TOTAL     ACCESS:      32327  HIT:      20880  MISS:      11447
cpu0_L2C LOAD      ACCESS:      15524  HIT:       5078  MISS:      10446
cpu0_L2C RFO       ACCESS:       4084  HIT:       3132  MISS:        952
cpu0_L2C PREFETCH  ACCESS:          0  HIT:          0  MISS:          0
cpu0_L2C WRITEBACK ACCESS:      12676  HIT:      12631  MISS:         45
LLC TOTAL     ACCESS:      20618  HIT:       3872  MISS:      16746
LLC LOAD      ACCESS:      10446  HIT:        369  MISS:      10077
LLC RFO       ACCESS:        952  HIT:        185  MISS:        767
LLC PREFETCH  ACCESS:          0  HIT:          0  MISS:          0
LLC WRITEBACK ACCESS:       9216  HIT:       3317  MISS:       5899
Heartbeat CPU 0 instructions: 76000001 cycles: 44736442 heartbeat IPC: 0.883325 cumulative IPC: 0.806549 (Simulation time: 0 hr 41 min 16 sec) 

Region of Interest Statistics
cpu0_DTLB TOTAL     ACCESS:    5741114  HIT:    5700214  MISS:      40900
cpu0_DTLB LOAD      ACCESS:    4332892  HIT:    4298235  MISS:      34657
cpu0_DTLB RFO       ACCESS:    1408222  HIT:    1401979  MISS:       6243
cpu0_DTLB PREFETCH  ACCESS:          0  HIT:          0  MISS:          0
cpu0_DTLB WRITEBACK ACCESS:          0  HIT:          0  MISS:          0
cpu0_ITLB TOTAL     ACCESS:    2546119  HIT:    2546119  MISS:          0
cpu0_ITLB LOAD      ACCESS:    2546119  HIT:    2546119  MISS:          0
cpu0_ITLB RFO       ACCESS:          0  HIT:          0  MISS:          0
cpu0_ITLB PREFETCH  ACCESS:          0  HIT:          0  MISS:          0
cpu0_ITLB WRITEBACK ACCESS:          0  HIT:          0  MISS:          0
cpu0_L1I TOTAL     ACCESS:    1893166  HIT:    1892329  MISS:        837
cpu0_L1I LOAD      ACCESS:    1893166  HIT:    1892329  MISS:        837
cpu0_L1I RFO       ACCESS:          0  HIT:          0  MISS:          0
cpu0_L1I PREFETCH  ACCESS:          0  HIT:          0  MISS:          0
cpu0_L1I WRITEBACK ACCESS:          0  HIT:          0  MISS:          0
cpu0_STLB TOTAL     ACCESS:      40900  HIT:      30993  MISS:       9907
cpu0_STLB LOAD      ACCESS:      34657  HIT:      24800  MISS:       9857
cpu0_STLB RFO       ACCESS:       6243  HIT:       6193  MISS:         50
cpu0_STLB PREFETCH  ACCESS:          0  HIT:          0  MISS:          0
cpu0_STLB WRITEBACK ACCESS:          0  HIT:          0  MISS:          0
cpu0_L1D TOTAL     ACCESS:    6853474  HIT:    6833143  MISS:      20331
cpu0_L1D LOAD      ACCESS:    4509269  HIT:    4493424  MISS:      15845
cpu0_L1D RFO       ACCESS:    2334298  HIT:    2329857  MISS:       4441
cpu0_L1D PREFETCH  ACCESS:          0  HIT:          0  MISS:          0
cpu0_L1D WRITEBACK ACCESS:          0  HIT:          0  MISS:          0
cpu0_L2C TOTAL     ACCESS:      34698  HIT:      22515  MISS:      12183
cpu0_L2C LOAD      ACCESS:      16682  HIT:       5563  MISS:      11119
cpu0_L2C RFO       ACCESS:       4440  HIT:       3425  MISS:       1015
cpu0_L2C PREFETCH  ACCESS:          0  HIT:          0  MISS:          0
cpu0_L2C WRITEBACK ACCESS:      13531  HIT:      13486  MISS:         45
LLC TOTAL     ACCESS:      21959  HIT:       4029  MISS:      17930
LLC LOAD      ACCESS:      11119  HIT:        372  MISS:      10747
LLC RFO       ACCESS:       1015  HIT:        190  MISS:        825
LLC PREFETCH  ACCESS:          0  HIT:          0  MISS:          0
LLC WRITEBACK ACCESS:       9821  HIT:       3466  MISS:       6355
Heartbeat CPU 0 instructions: 78000001 cycles: 46866193 heartbeat IPC: 0.939077 cumulative IPC: 0.814762 (Simulation time: 0 hr 42 min 17 sec) 

Region of Interest Statistics
cpu0_DTLB TOTAL     ACCESS:    6163415  HIT:    6120633  MISS:      42782
cpu0_DTLB LOAD      ACCESS:    4646191  HIT:    4609934  MISS:      36257
cpu0_DTLB RFO       ACCESS:    1517224  HIT:    1510699  MISS:       6525
cpu0_DTLB PREFETCH  ACCESS:          0  HIT:          0  MISS:          0
cpu0_DTLB WRITEBACK ACCESS:          0  HIT:          0  MISS:          0
cpu0_ITLB TOTAL     ACCESS:    2757522  HIT:    2757522  MISS:          0
cpu0_ITLB LOAD      ACCESS:    2757522  HIT:    2757522  MISS:          0
cpu0_ITLB RFO       ACCESS:          0  HIT:          0  MISS:          0
cpu0_ITLB PREFETCH  ACCESS:          0  HIT:          0  MISS:          0
cpu0_ITLB WRITEBACK ACCESS:          0  HIT:          0  MISS:          0
cpu0_L1I TOTAL     ACCESS:    1984569  HIT:    1983578  MISS:        991
cpu0_L1I LOAD      ACCESS:    1984569  HIT:    1983578  MISS:        991
cpu0_L1I RFO       ACCESS:          0  HIT:          0  MISS:          0
cpu0_L1I PREFETCH  ACCESS:          0  HIT:          0  MISS:          0
cpu0_L1I WRITEBACK ACCESS:          0  HIT:          0  MISS:          0
cpu0_STLB TOTAL     ACCESS:      42782  HIT:      32494  MISS:      10288
cpu0_STLB LOAD      ACCESS:      36257  HIT:      26020  MISS:      10237
cpu0_STLB RFO       ACCESS:       6525  HIT:       6474  MISS:         51
cpu0_STLB PREFETCH  ACCESS:          0  HIT:          0  MISS:          0
cpu0_STLB WRITEBACK ACCESS:          0  HIT:          0  MISS:          0
cpu0_L1D TOTAL     ACCESS:    7338117  HIT:    7316929  MISS:      21188
cpu0_L1D LOAD      ACCESS:    4812453  HIT:    4795947  MISS:      16506
cpu0_L1D RFO       ACCESS:    2515376  HIT:    2510743  MISS:       4633
cpu0_L1D PREFETCH  ACCESS:          0  HIT:          0  MISS:          0
cpu0_L1D WRITEBACK ACCESS:          0  HIT:          0  MISS:          0
cpu0_L2C TOTAL     ACCESS:      36226  HIT:      23569  MISS:      12657
cpu0_L2C LOAD      ACCESS:      17497  HIT:       5941  MISS:      11556
cpu0_L2C RFO       ACCESS:       4632  HIT:       3580  MISS:       1052
cpu0_L2C PREFETCH  ACCESS:          0  HIT:          0  MISS:          0
cpu0_L2C WRITEBACK ACCESS:      14048  HIT:      14003  MISS:         45
LLC TOTAL     ACCESS:      22810  HIT:       4143  MISS:      18667
LLC LOAD      ACCESS:      11556  HIT:        376  MISS:      11180
LLC RFO       ACCESS:       1052  HIT:        192  MISS:        860
LLC PREFETCH  ACCESS:          0  HIT:          0  MISS:          0
LLC WRITEBACK ACCESS:      10198  HIT:       3574  MISS:       6624
Heartbeat CPU 0 instructions: 80000000 cycles: 49246229 heartbeat IPC: 0.840323 cumulative IPC: 0.816418 (Simulation time: 0 hr 43 min 22 sec) 

Region of Interest Statistics
cpu0_DTLB TOTAL     ACCESS:    6594052  HIT:    6548652  MISS:      45400
cpu0_DTLB LOAD      ACCESS:    4972485  HIT:    4934022  MISS:      38463
cpu0_DTLB RFO       ACCESS:    1621567  HIT:    1614630  MISS:       6937
cpu0_DTLB PREFETCH  ACCESS:          0  HIT:          0  MISS:          0
cpu0_DTLB WRITEBACK ACCESS:          0  HIT:          0  MISS:          0
cpu0_ITLB TOTAL     ACCESS:    2961078  HIT:    2961078  MISS:          0
cpu0_ITLB LOAD      ACCESS:    2961078  HIT:    2961078  MISS:          0
cpu0_ITLB RFO       ACCESS:          0  HIT:          0  MISS:          0
cpu0_ITLB PREFETCH  ACCESS:          0  HIT:          0  MISS:          0
cpu0_ITLB WRITEBACK ACCESS:          0  HIT:          0  MISS:          0
cpu0_L1I TOTAL     ACCESS:    2109731  HIT:    2108660  MISS:       1071
cpu0_L1I LOAD      ACCESS:    2109731  HIT:    2108660  MISS:       1071
cpu0_L1I RFO       ACCESS:          0  HIT:          0  MISS:          0
cpu0_L1I PREFETCH  ACCESS:          0  HIT:          0  MISS:          0
cpu0_L1I WRITEBACK ACCESS:          0  HIT:          0  MISS:          0
cpu0_STLB TOTAL     ACCESS:      45400  HIT:      34566  MISS:      10834
cpu0_STLB LOAD      ACCESS:      38463  HIT:      27684  MISS:      10779
cpu0_STLB RFO       ACCESS:       6937  HIT:       6882  MISS:         55
cpu0_STLB PREFETCH  ACCESS:          0  HIT:          0  MISS:          0
cpu0_STLB WRITEBACK ACCESS:          0  HIT:          0  MISS:          0
cpu0_L1D TOTAL     ACCESS:    7841561  HIT:    7819124  MISS:      22437
cpu0_L1D LOAD      ACCESS:    5139622  HIT:    5122195  MISS:      17427
cpu0_L1D RFO       ACCESS:    2691105  HIT:    2686150  MISS:       4955
cpu0_L1D PREFETCH  ACCESS:          0  HIT:          0  MISS:          0
cpu0_L1D WRITEBACK ACCESS:          0  HIT:          0  MISS:          0
cpu0_L2C TOTAL     ACCESS:      38389  HIT:      25067  MISS:      13322
cpu0_L2C LOAD      ACCESS:      18498  HIT:       6344  MISS:      12154
cpu0_L2C RFO       ACCESS:       4954  HIT:       3840  MISS:       1114
cpu0_L2C PREFETCH  ACCESS:          0  HIT:          0  MISS:          0
cpu0_L2C WRITEBACK ACCESS:      14882  HIT:      14833  MISS:         49
LLC TOTAL     ACCESS:      23985  HIT:       4312  MISS:      19673
LLC LOAD      ACCESS:      12154  HIT:        381  MISS:      11773
LLC RFO       ACCESS:       1114  HIT:        204  MISS:        910
LLC PREFETCH  ACCESS:          0  HIT:          0  MISS:          0
LLC WRITEBACK ACCESS:      10712  HIT:       3726  MISS:       6986
Heartbeat CPU 0 instructions: 82000003 cycles: 51602423 heartbeat IPC: 0.848828 cumulative IPC: 0.818371 (Simulation time: 0 hr 44 min 26 sec) 

Region of Interest Statistics
cpu0_DTLB TOTAL     ACCESS:    7031582  HIT:    6983247  MISS:      48335
cpu0_DTLB LOAD      ACCESS:    5300462  HIT:    5259544  MISS:      40918
cpu0_DTLB RFO       ACCESS:    1731120  HIT:    1723703  MISS:       7417
cpu0_DTLB PREFETCH  ACCESS:          0  HIT:          0  MISS:          0
cpu0_DTLB WRITEBACK ACCESS:          0  HIT:          0  MISS:          0
cpu0_ITLB TOTAL     ACCESS:    3161905  HIT:    3161905  MISS:          0
cpu0_ITLB LOAD      ACCESS:    3161905  HIT:    3161905  MISS:          0
cpu0_ITLB RFO       ACCESS:          0  HIT:          0  MISS:          0
cpu0_ITLB PREFETCH  ACCESS:          0  HIT:          0  MISS:          0
cpu0_ITLB WRITEBACK ACCESS:          0  HIT:          0  MISS:          0
cpu0_L1I TOTAL     ACCESS:    2236487  HIT:    2235266  MISS:       1221
cpu0_L1I LOAD      ACCESS:    2236487  HIT:    2235266  MISS:       1221
cpu0_L1I RFO       ACCESS:          0  HIT:          0  MISS:          0
cpu0_L1I PREFETCH  ACCESS:          0  HIT:          0  MISS:          0
cpu0_L1I WRITEBACK ACCESS:          0  HIT:          0  MISS:          0
cpu0_STLB TOTAL     ACCESS:      48335  HIT:      36860  MISS:      11475
cpu0_STLB LOAD      ACCESS:      40918  HIT:      29502  MISS:      11416
cpu0_STLB RFO       ACCESS:       7417  HIT:       7358  MISS:         59
cpu0_STLB PREFETCH  ACCESS:          0  HIT:          0  MISS:          0
cpu0_STLB WRITEBACK ACCESS:          0  HIT:          0  MISS:          0
cpu0_L1D TOTAL     ACCESS:    8356086  HIT:    8332057  MISS:      24029
cpu0_L1D LOAD      ACCESS:    5470131  HIT:    5451528  MISS:      18603
cpu0_L1D RFO       ACCESS:    2874480  HIT:    2869114  MISS:       5366
cpu0_L1D PREFETCH  ACCESS:          0  HIT:          0  MISS:          0
cpu0_L1D WRITEBACK ACCESS:          0  HIT:          0  MISS:          0
cpu0_L2C TOTAL     ACCESS:      41169  HIT:      27058  MISS:      14111
cpu0_L2C LOAD      ACCESS:      19824  HIT:       6946  MISS:      12878
cpu0_L2C RFO       ACCESS:       5365  HIT:       4188  MISS:       1177
cpu0_L2C PREFETCH  ACCESS:          0  HIT:          0  MISS:          0
cpu0_L2C WRITEBACK ACCESS:      15920  HIT:      15869  MISS:         51
LLC TOTAL     ACCESS:      25366  HIT:       4524  MISS:      20842
LLC LOAD      ACCESS:      12878  HIT:        393  MISS:      12485
LLC RFO       ACCESS:       1177  HIT:        213  MISS:        964
LLC PREFETCH  ACCESS:          0  HIT:          0  MISS:          0
LLC WRITEBACK ACCESS:      11306  HIT:       3917  MISS:       7389
Heartbeat CPU 0 instructions: 84000001 cycles: 53968345 heartbeat IPC: 0.845336 cumulative IPC: 0.819909 (Simulation time: 0 hr 45 min 29 sec) 

Region of Interest Statistics
cpu0_DTLB TOTAL     ACCESS:    7463608  HIT:    7412436  MISS:      51172
cpu0_DTLB LOAD      ACCESS:    5625418  HIT:    5582114  MISS:      43304
cpu0_DTLB RFO       ACCESS:    1838190  HIT:    1830322  MISS:       7868
cpu0_DTLB PREFETCH  ACCESS:          0  HIT:          0  MISS:          0
cpu0_DTLB WRITEBACK ACCESS:          0  HIT:          0  MISS:          0
cpu0_ITLB TOTAL     ACCESS:    3366830  HIT:    3366830  MISS:          0
cpu0_ITLB LOAD      ACCESS:    3366830  HIT:    3366830  MISS:          0
cpu0_ITLB RFO       ACCESS:          0  HIT:          0  MISS:          0
cpu0_ITLB PREFETCH  ACCESS:          0  HIT:          0  MISS:          0
cpu0_ITLB WRITEBACK ACCESS:          0  HIT:          0  MISS:          0
cpu0_L1I TOTAL     ACCESS:    2357548  HIT:    2356156  MISS:       1392
cpu0_L1I LOAD      ACCESS:    2357548  HIT:    2356156  MISS:       1392
cpu0_L1I RFO       ACCESS:          0  HIT:          0  MISS:          0
cpu0_L1I PREFETCH  ACCESS:          0  HIT:          0  MISS:          0
cpu0_L1I WRITEBACK ACCESS:          0  HIT:          0  MISS:          0
cpu0_STLB TOTAL     ACCESS:      51172  HIT:      39071  MISS:      12101
cpu0_STLB LOAD      ACCESS:      43304  HIT:      31262  MISS:      12042
cpu0_STLB RFO       ACCESS:       7868  HIT:       7809  MISS:         59
cpu0_STLB PREFETCH  ACCESS:          0  HIT:          0  MISS:          0
cpu0_STLB WRITEBACK ACCESS:          0  HIT:          0  MISS:          0
cpu0_L1D TOTAL     ACCESS:    8863767  HIT:    8838229  MISS:      25538
cpu0_L1D LOAD      ACCESS:    5797894  HIT:    5778184  MISS:      19710
cpu0_L1D RFO       ACCESS:    3053772  HIT:    3048007  MISS:       5765
cpu0_L1D PREFETCH  ACCESS:          0  HIT:          0  MISS:          0
cpu0_L1D WRITEBACK ACCESS:          0  HIT:          0  MISS:          0
cpu0_L2C TOTAL     ACCESS:      43850  HIT:      28964  MISS:      14886
cpu0_L2C LOAD      ACCESS:      21102  HIT:       7506  MISS:      13596
cpu0_L2C RFO       ACCESS:       5764  HIT:       4533  MISS:       1231
cpu0_L2C PREFETCH  ACCESS:          0  HIT:          0  MISS:          0
cpu0_L2C WRITEBACK ACCESS:      16921  HIT:      16867  MISS:         54
LLC TOTAL     ACCESS:      26747  HIT:       4727  MISS:      22020
LLC LOAD      ACCESS:      13596  HIT:        400  MISS:      13196
LLC RFO       ACCESS:       1231  HIT:        214  MISS:       1017
LLC PREFETCH  ACCESS:          0  HIT:          0  MISS:          0
LLC WRITEBACK ACCESS:      11915  HIT:       4112  MISS:       7803
Heartbeat CPU 0 instructions: 86000001 cycles: 56380028 heartbeat IPC: 0.829296 cumulative IPC: 0.820425 (Simulation time: 0 hr 46 min 34 sec) 

Region of Interest Statistics
cpu0_DTLB TOTAL     ACCESS:    7889352  HIT:    7835267  MISS:      54085
cpu0_DTLB LOAD      ACCESS:    5949191  HIT:    5903378  MISS:      45813
cpu0_DTLB RFO       ACCESS:    1940161  HIT:    1931889  MISS:       8272
cpu0_DTLB PREFETCH  ACCESS:          0  HIT:          0  MISS:          0
cpu0_DTLB WRITEBACK ACCESS:          0  HIT:          0  MISS:          0
cpu0_ITLB TOTAL     ACCESS:    3566773  HIT:    3566773  MISS:          0
cpu0_ITLB LOAD      ACCESS:    3566773  HIT:    3566773  MISS:          0
cpu0_ITLB RFO       ACCESS:          0  HIT:          0  MISS:          0
cpu0_ITLB PREFETCH  ACCESS:          0  HIT:          0  MISS:          0
cpu0_ITLB WRITEBACK ACCESS:          0  HIT:          0  MISS:          0
cpu0_L1I TOTAL     ACCESS:    2487848  HIT:    2486372  MISS:       1476
cpu0_L1I LOAD      ACCESS:    2487848  HIT:    2486372  MISS:       1476
cpu0_L1I RFO       ACCESS:          0  HIT:          0  MISS:          0
cpu0_L1I PREFETCH  ACCESS:          0  HIT:          0  MISS:          0
cpu0_L1I WRITEBACK ACCESS:          0  HIT:          0  MISS:          0
cpu0_STLB TOTAL     ACCESS:      54085  HIT:      41376  MISS:      12709
cpu0_STLB LOAD      ACCESS:      45813  HIT:      33165  MISS:      12648
cpu0_STLB RFO       ACCESS:       8272  HIT:       8211  MISS:         61
cpu0_STLB PREFETCH  ACCESS:          0  HIT:          0  MISS:          0
cpu0_STLB WRITEBACK ACCESS:          0  HIT:          0  MISS:          0
cpu0_L1D TOTAL     ACCESS:    9371026  HIT:    9344273  MISS:      26753
cpu0_L1D LOAD      ACCESS:    6130770  HIT:    6110029  MISS:      20741
cpu0_L1D RFO       ACCESS:    3227547  HIT:    3221604  MISS:       5943
cpu0_L1D PREFETCH  ACCESS:          0  HIT:          0  MISS:          0
cpu0_L1D WRITEBACK ACCESS:          0  HIT:          0  MISS:          0
cpu0_L2C TOTAL     ACCESS:      45943  HIT:      30296  MISS:      15647
cpu0_L2C LOAD      ACCESS:      22217  HIT:       7899  MISS:      14318
cpu0_L2C RFO       ACCESS:       5942  HIT:       4673  MISS:       1269
cpu0_L2C PREFETCH  ACCESS:          0  HIT:          0  MISS:          0
cpu0_L2C WRITEBACK ACCESS:      17715  HIT:      17660  MISS:         55
LLC TOTAL     ACCESS:      28114  HIT:       4947  MISS:      23167
LLC LOAD      ACCESS:      14318  HIT:        408  MISS:      13910
LLC RFO       ACCESS:       1269  HIT:        214  MISS:       1055
LLC PREFETCH  ACCESS:          0  HIT:          0  MISS:          0
LLC WRITEBACK ACCESS:      12522  HIT:       4324  MISS:       8198
Heartbeat CPU 0 instructions: 88000002 cycles: 58809529 heartbeat IPC: 0.823215 cumulative IPC: 0.820572 (Simulation time: 0 hr 47 min 38 sec) 

Region of Interest Statistics
cpu0_DTLB TOTAL     ACCESS:    8321671  HIT:    8264301  MISS:      57370
cpu0_DTLB LOAD      ACCESS:    6277726  HIT:    6229086  MISS:      48640
cpu0_DTLB RFO       ACCESS:    2043945  HIT:    2035215  MISS:       8730
cpu0_DTLB PREFETCH  ACCESS:          0  HIT:          0  MISS:          0
cpu0_DTLB WRITEBACK ACCESS:          0  HIT:          0  MISS:          0
cpu0_ITLB TOTAL     ACCESS:    3770252  HIT:    3770252  MISS:          0
cpu0_ITLB LOAD      ACCESS:    3770252  HIT:    3770252  MISS:          0
cpu0_ITLB RFO       ACCESS:          0  HIT:          0  MISS:          0
cpu0_ITLB PREFETCH  ACCESS:          0  HIT:          0  MISS:          0
cpu0_ITLB WRITEBACK ACCESS:          0  HIT:          0  MISS:          0
cpu0_L1I TOTAL     ACCESS:    2621102  HIT:    2619517  MISS:       1585
cpu0_L1I LOAD      ACCESS:    2621102  HIT:    2619517  MISS:       1585
cpu0_L1I RFO       ACCESS:          0  HIT:          0  MISS:          0
cpu0_L1I PREFETCH  ACCESS:          0  HIT:          0  MISS:          0
cpu0_L1I WRITEBACK ACCESS:          0  HIT:          0  MISS:          0
cpu0_STLB TOTAL     ACCESS:      57370  HIT:      43983  MISS:      13387
cpu0_STLB LOAD      ACCESS:      48640  HIT:      35314  MISS:      13326
cpu0_STLB RFO       ACCESS:       8730  HIT:       8669  MISS:         61
cpu0_STLB PREFETCH  ACCESS:          0  HIT:          0  MISS:          0
cpu0_STLB WRITEBACK ACCESS:          0  HIT:          0  MISS:          0
cpu0_L1D TOTAL     ACCESS:    9884364  HIT:    9856189  MISS:      28175
cpu0_L1D LOAD      ACCESS:    6468276  HIT:    6446325  MISS:      21951
cpu0_L1D RFO       ACCESS:    3402701  HIT:    3396551  MISS:       6150
cpu0_L1D PREFETCH  ACCESS:          0  HIT:          0  MISS:          0
cpu0_L1D WRITEBACK ACCESS:          0  HIT:          0  MISS:          0
cpu0_L2C TOTAL     ACCESS:      48417  HIT:      31951  MISS:      16466
cpu0_L2C LOAD      ACCESS:      23536  HIT:       8445  MISS:      15091
cpu0_L2C RFO       ACCESS:       6149  HIT:       4836  MISS:       1313
cpu0_L2C PREFETCH  ACCESS:          0  HIT:          0  MISS:          0
cpu0_L2C WRITEBACK ACCESS:      18658  HIT:      18602  MISS:         56
LLC TOTAL     ACCESS:      29547  HIT:       5170  MISS:      24377
LLC LOAD      ACCESS:      15091  HIT:        420  MISS:      14671
LLC RFO       ACCESS:       1313  HIT:        215  MISS:       1098
LLC PREFETCH  ACCESS:          0  HIT:          0  MISS:          0
LLC WRITEBACK ACCESS:      13137  HIT:       4534  MISS:       8603
Heartbeat CPU 0 instructions: 90000001 cycles: 61263208 heartbeat IPC: 0.815102 cumulative IPC: 0.820296 (Simulation time: 0 hr 48 min 43 sec) 

Region of Interest Statistics
cpu0_DTLB TOTAL     ACCESS:    8757306  HIT:    8696872  MISS:      60434
cpu0_DTLB LOAD      ACCESS:    6607625  HIT:    6556385  MISS:      51240
cpu0_DTLB RFO       ACCESS:    2149681  HIT:    2140487  MISS:       9194
cpu0_DTLB PREFETCH  ACCESS:          0  HIT:          0  MISS:          0
cpu0_DTLB WRITEBACK ACCESS:          0  HIT:          0  MISS:          0
cpu0_ITLB TOTAL     ACCESS:    3969045  HIT:    3969045  MISS:          0
cpu0_ITLB LOAD      ACCESS:    3969045  HIT:    3969045  MISS:          0
cpu0_ITLB RFO       ACCESS:          0  HIT:          0  MISS:          0
cpu0_ITLB PREFETCH  ACCESS:          0  HIT:          0  MISS:          0
cpu0_ITLB WRITEBACK ACCESS:          0  HIT:          0  MISS:          0
cpu0_L1I TOTAL     ACCESS:    2759263  HIT:    2757549  MISS:       1714
cpu0_L1I LOAD      ACCESS:    2759263  HIT:    2757549  MISS:       1714
cpu0_L1I RFO       ACCESS:          0  HIT:          0  MISS:          0
cpu0_L1I PREFETCH  ACCESS:          0  HIT:          0  MISS:          0
cpu0_L1I WRITEBACK ACCESS:          0  HIT:          0  MISS:          0
cpu0_STLB TOTAL     ACCESS:      60434  HIT:      46387  MISS:      14047
cpu0_STLB LOAD      ACCESS:      51240  HIT:      37256  MISS:      13984
cpu0_STLB RFO       ACCESS:       9194  HIT:       9131  MISS:         63
cpu0_STLB PREFETCH  ACCESS:          0  HIT:          0  MISS:          0
cpu0_STLB WRITEBACK ACCESS:          0  HIT:          0  MISS:          0
cpu0_L1D TOTAL     ACCESS:   10403197  HIT:   10373667  MISS:      29530
cpu0_L1D LOAD      ACCESS:    6807709  HIT:    6784702  MISS:      23007
cpu0_L1D RFO       ACCESS:    3581441  HIT:    3574995  MISS:       6446
cpu0_L1D PREFETCH  ACCESS:          0  HIT:          0  MISS:          0
cpu0_L1D WRITEBACK ACCESS:          0  HIT:          0  MISS:          0
cpu0_L2C TOTAL     ACCESS:      50827  HIT:      33590  MISS:      17237
cpu0_L2C LOAD      ACCESS:      24721  HIT:       8906  MISS:      15815
cpu0_L2C RFO       ACCESS:       6445  HIT:       5088  MISS:       1357
cpu0_L2C PREFETCH  ACCESS:          0  HIT:          0  MISS:          0
cpu0_L2C WRITEBACK ACCESS:      19584  HIT:      19525  MISS:         59
LLC TOTAL     ACCESS:      30924  HIT:       5434  MISS:      25490
LLC LOAD      ACCESS:      15815  HIT:        433  MISS:      15382
LLC RFO       ACCESS:       1357  HIT:        217  MISS:       1140
LLC PREFETCH  ACCESS:          0  HIT:          0  MISS:          0
LLC WRITEBACK ACCESS:      13746  HIT:       4783  MISS:       8963
Heartbeat CPU 0 instructions: 92000000 cycles: 63715372 heartbeat IPC: 0.815606 cumulative IPC: 0.820072 (Simulation time: 0 hr 49 min 47 sec) 

Region of Interest Statistics
cpu0_DTLB TOTAL     ACCESS:    9195825  HIT:    9132193  MISS:      63632
cpu0_DTLB LOAD      ACCESS:    6939199  HIT:    6885265  MISS:      53934
cpu0_DTLB RFO       ACCESS:    2256626  HIT:    2246928  MISS:       9698
cpu0_DTLB PREFETCH  ACCESS:          0  HIT:          0  MISS:          0
cpu0_DTLB WRITEBACK ACCESS:          0  HIT:          0  MISS:          0
cpu0_ITLB TOTAL     ACCESS:    4170049  HIT:    4170049  MISS:          0
cpu0_ITLB LOAD      ACCESS:    4170049  HIT:    4170049  MISS:          0
cpu0_ITLB RFO       ACCESS:          0  HIT:          0  MISS:          0
cpu0_ITLB PREFETCH  ACCESS:          0  HIT:          0  MISS:          0
cpu0_ITLB WRITEBACK ACCESS:          0  HIT:          0  MISS:          0
cpu0_L1I TOTAL     ACCESS:    2895253  HIT:    2893408  MISS:       1845
cpu0_L1I LOAD      ACCESS:    2895253  HIT:    2893408  MISS:       1845
cpu0_L1I RFO       ACCESS:          0  HIT:          0  MISS:          0
cpu0_L1I PREFETCH  ACCESS:          0  HIT:          0  MISS:          0
cpu0_L1I WRITEBACK ACCESS:          0  HIT:          0  MISS:          0
cpu0_STLB TOTAL     ACCESS:      63632  HIT:      48935  MISS:      14697
cpu0_STLB LOAD      ACCESS:      53934  HIT:      39300  MISS:      14634
cpu0_STLB RFO       ACCESS:       9698  HIT:       9635  MISS:         63
cpu0_STLB PREFETCH  ACCESS:          0  HIT:          0  MISS:          0
cpu0_STLB WRITEBACK ACCESS:          0  HIT:          0  MISS:          0
cpu0_L1D TOTAL     ACCESS:   10922365  HIT:   10891362  MISS:      31003
cpu0_L1D LOAD      ACCESS:    7146231  HIT:    7122054  MISS:      24177
cpu0_L1D RFO       ACCESS:    3761437  HIT:    3754693  MISS:       6744
cpu0_L1D PREFETCH  ACCESS:          0  HIT:          0  MISS:          0
cpu0_L1D WRITEBACK ACCESS:          0  HIT:          0  MISS:          0
cpu0_L2C TOTAL     ACCESS:      53424  HIT:      35421  MISS:      18003
cpu0_L2C LOAD      ACCESS:      26022  HIT:       9485  MISS:      16537
cpu0_L2C RFO       ACCESS:       6743  HIT:       5343  MISS:       1400
cpu0_L2C PREFETCH  ACCESS:          0  HIT:          0  MISS:          0
cpu0_L2C WRITEBACK ACCESS:      20577  HIT:      20518  MISS:         59
LLC TOTAL     ACCESS:      32266  HIT:       5676  MISS:      26590
LLC LOAD      ACCESS:      16537  HIT:        441  MISS:      16096
LLC RFO       ACCESS:       1400  HIT:        219  MISS:       1181
LLC PREFETCH  ACCESS:          0  HIT:          0  MISS:          0
LLC WRITEBACK ACCESS:      14322  HIT:       5015  MISS:       9307
Heartbeat CPU 0 instructions: 94000000 cycles: 66192620 heartbeat IPC: 0.807348 cumulative IPC: 0.819485 (Simulation time: 0 hr 50 min 50 sec) 

Region of Interest Statistics
cpu0_DTLB TOTAL     ACCESS:    9644482  HIT:    9577439  MISS:      67043
cpu0_DTLB LOAD      ACCESS:    7274108  HIT:    7217256  MISS:      56852
cpu0_DTLB RFO       ACCESS:    2370374  HIT:    2360183  MISS:      10191
cpu0_DTLB PREFETCH  ACCESS:          0  HIT:          0  MISS:          0
cpu0_DTLB WRITEBACK ACCESS:          0  HIT:          0  MISS:          0
cpu0_ITLB TOTAL     ACCESS:    4367282  HIT:    4367282  MISS:          0
cpu0_ITLB LOAD      ACCESS:    4367282  HIT:    4367282  MISS:          0
cpu0_ITLB RFO       ACCESS:          0  HIT:          0  MISS:          0
cpu0_ITLB PREFETCH  ACCESS:          0  HIT:          0  MISS:          0
cpu0_ITLB WRITEBACK ACCESS:          0  HIT:          0  MISS:          0
cpu0_L1I TOTAL     ACCESS:    3040208  HIT:    3038241  MISS:       1967
cpu0_L1I LOAD      ACCESS:    3040208  HIT:    3038241  MISS:       1967
cpu0_L1I RFO       ACCESS:          0  HIT:          0  MISS:          0
cpu0_L1I PREFETCH  ACCESS:          0  HIT:          0  MISS:          0
cpu0_L1I WRITEBACK ACCESS:          0  HIT:          0  MISS:          0
cpu0_STLB TOTAL     ACCESS:      67043  HIT:      51513  MISS:      15530
cpu0_STLB LOAD      ACCESS:      56852  HIT:      41390  MISS:      15462
cpu0_STLB RFO       ACCESS:      10191  HIT:      10123  MISS:         68
cpu0_STLB PREFETCH  ACCESS:          0  HIT:          0  MISS:          0
cpu0_STLB WRITEBACK ACCESS:          0  HIT:          0  MISS:          0
cpu0_L1D TOTAL     ACCESS:   11457538  HIT:   11424819  MISS:      32719
cpu0_L1D LOAD      ACCESS:    7494129  HIT:    7468606  MISS:      25523
cpu0_L1D RFO       ACCESS:    3947879  HIT:    3940770  MISS:       7109
cpu0_L1D PREFETCH  ACCESS:          0  HIT:          0  MISS:          0
cpu0_L1D WRITEBACK ACCESS:          0  HIT:          0  MISS:          0
cpu0_L2C TOTAL     ACCESS:      56442  HIT:      37454  MISS:      18988
cpu0_L2C LOAD      ACCESS:      27490  HIT:      10051  MISS:      17439
cpu0_L2C RFO       ACCESS:       7108  HIT:       5635  MISS:       1473
cpu0_L2C PREFETCH  ACCESS:          0  HIT:          0  MISS:          0
cpu0_L2C WRITEBACK ACCESS:      21757  HIT:      21688  MISS:         69
LLC TOTAL     ACCESS:      33996  HIT:       6022  MISS:      27974
LLC LOAD      ACCESS:      17439  HIT:        462  MISS:      16977
LLC RFO       ACCESS:       1473  HIT:        232  MISS:       1241
LLC PREFETCH  ACCESS:          0  HIT:          0  MISS:          0
LLC WRITEBACK ACCESS:      15077  HIT:       5327  MISS:       9750
Heartbeat CPU 0 instructions: 96000000 cycles: 68442878 heartbeat IPC: 0.888787 cumulative IPC: 0.822272 (Simulation time: 0 hr 51 min 52 sec) 

Region of Interest Statistics
cpu0_DTLB TOTAL     ACCESS:   10081578  HIT:   10011930  MISS:      69648
cpu0_DTLB LOAD      ACCESS:    7595253  HIT:    7536246  MISS:      59007
cpu0_DTLB RFO       ACCESS:    2486325  HIT:    2475684  MISS:      10641
cpu0_DTLB PREFETCH  ACCESS:          0  HIT:          0  MISS:          0
cpu0_DTLB WRITEBACK ACCESS:          0  HIT:          0  MISS:          0
cpu0_ITLB TOTAL     ACCESS:    4567067  HIT:    4567067  MISS:          0
cpu0_ITLB LOAD      ACCESS:    4567067  HIT:    4567067  MISS:          0
cpu0_ITLB RFO       ACCESS:          0  HIT:          0  MISS:          0
cpu0_ITLB PREFETCH  ACCESS:          0  HIT:          0  MISS:          0
cpu0_ITLB WRITEBACK ACCESS:          0  HIT:          0  MISS:          0
cpu0_L1I TOTAL     ACCESS:    3155797  HIT:    3153691  MISS:       2106
cpu0_L1I LOAD      ACCESS:    3155797  HIT:    3153691  MISS:       2106
cpu0_L1I RFO       ACCESS:          0  HIT:          0  MISS:          0
cpu0_L1I PREFETCH  ACCESS:          0  HIT:          0  MISS:          0
cpu0_L1I WRITEBACK ACCESS:          0  HIT:          0  MISS:          0
cpu0_STLB TOTAL     ACCESS:      69648  HIT:      53563  MISS:      16085
cpu0_STLB LOAD      ACCESS:      59007  HIT:      42992  MISS:      16015
cpu0_STLB RFO       ACCESS:      10641  HIT:      10571  MISS:         70
cpu0_STLB PREFETCH  ACCESS:          0  HIT:          0  MISS:          0
cpu0_STLB WRITEBACK ACCESS:          0  HIT:          0  MISS:          0
cpu0_L1D TOTAL     ACCESS:   11976733  HIT:   11942789  MISS:      33944
cpu0_L1D LOAD      ACCESS:    7822503  HIT:    7796029  MISS:      26474
cpu0_L1D RFO       ACCESS:    4138145  HIT:    4130766  MISS:       7379
cpu0_L1D PREFETCH  ACCESS:          0  HIT:          0  MISS:          0
cpu0_L1D WRITEBACK ACCESS:          0  HIT:          0  MISS:          0
cpu0_L2C TOTAL     ACCESS:      58566  HIT:      38892  MISS:      19674
cpu0_L2C LOAD      ACCESS:      28580  HIT:      10509  MISS:      18071
cpu0_L2C RFO       ACCESS:       7378  HIT:       5856  MISS:       1522
cpu0_L2C PREFETCH  ACCESS:          0  HIT:          0  MISS:          0
cpu0_L2C WRITEBACK ACCESS:      22517  HIT:      22443  MISS:         74
LLC TOTAL     ACCESS:      35221  HIT:       6275  MISS:      28946
LLC LOAD      ACCESS:      18071  HIT:        482  MISS:      17589
LLC RFO       ACCESS:       1522  HIT:        234  MISS:       1288
LLC PREFETCH  ACCESS:          0  HIT:          0  MISS:          0
LLC WRITEBACK ACCESS:      15621  HIT:       5558  MISS:      10063
Heartbeat CPU 0 instructions: 98000001 cycles: 70819644 heartbeat IPC: 0.84148 cumulative IPC: 0.823055 (Simulation time: 0 hr 52 min 55 sec) 

Region of Interest Statistics
cpu0_DTLB TOTAL     ACCESS:   10518259  HIT:   10445521  MISS:      72738
cpu0_DTLB LOAD      ACCESS:    7924209  HIT:    7862586  MISS:      61623
cpu0_DTLB RFO       ACCESS:    2594050  HIT:    2582935  MISS:      11115
cpu0_DTLB PREFETCH  ACCESS:          0  HIT:          0  MISS:          0
cpu0_DTLB WRITEBACK ACCESS:          0  HIT:          0  MISS:          0
cpu0_ITLB TOTAL     ACCESS:    4765241  HIT:    4765241  MISS:          0
cpu0_ITLB LOAD      ACCESS:    4765241  HIT:    4765241  MISS:          0
cpu0_ITLB RFO       ACCESS:          0  HIT:          0  MISS:          0
cpu0_ITLB PREFETCH  ACCESS:          0  HIT:          0  MISS:          0
cpu0_ITLB WRITEBACK ACCESS:          0  HIT:          0  MISS:          0
cpu0_L1I TOTAL     ACCESS:    3295741  HIT:    3293460  MISS:       2281
cpu0_L1I LOAD      ACCESS:    3295741  HIT:    3293460  MISS:       2281
cpu0_L1I RFO       ACCESS:          0  HIT:          0  MISS:          0
cpu0_L1I PREFETCH  ACCESS:          0  HIT:          0  MISS:          0
cpu0_L1I WRITEBACK ACCESS:          0  HIT:          0  MISS:          0
cpu0_STLB TOTAL     ACCESS:      72738  HIT:      56034  MISS:      16704
cpu0_STLB LOAD      ACCESS:      61623  HIT:      44996  MISS:      16627
cpu0_STLB RFO       ACCESS:      11115  HIT:      11038  MISS:         77
cpu0_STLB PREFETCH  ACCESS:          0  HIT:          0  MISS:          0
cpu0_STLB WRITEBACK ACCESS:          0  HIT:          0  MISS:          0
cpu0_L1D TOTAL     ACCESS:   12494263  HIT:   12459073  MISS:      35190
cpu0_L1D LOAD      ACCESS:    8164227  HIT:    8136800  MISS:      27427
cpu0_L1D RFO       ACCESS:    4313332  HIT:    4305666  MISS:       7666
cpu0_L1D PREFETCH  ACCESS:          0  HIT:          0  MISS:          0
cpu0_L1D WRITEBACK ACCESS:          0  HIT:          0  MISS:          0
cpu0_L2C TOTAL     ACCESS:      60833  HIT:      40393  MISS:      20440
cpu0_L2C LOAD      ACCESS:      29708  HIT:      10938  MISS:      18770
cpu0_L2C RFO       ACCESS:       7665  HIT:       6077  MISS:       1588
cpu0_L2C PREFETCH  ACCESS:          0  HIT:          0  MISS:          0
cpu0_L2C WRITEBACK ACCESS:      23363  HIT:      23288  MISS:         75
LLC TOTAL     ACCESS:      36600  HIT:       6575  MISS:      30025
LLC LOAD      ACCESS:      18770  HIT:        505  MISS:      18265
LLC RFO       ACCESS:       1588  HIT:        248  MISS:       1340
LLC PREFETCH  ACCESS:          0  HIT:          0  MISS:          0
LLC WRITEBACK ACCESS:      16235  HIT:       5821  MISS:      10414
Heartbeat CPU 0 instructions: 100000004 cycles: 73069849 heartbeat IPC: 0.888809 cumulative IPC: 0.825498 (Simulation time: 0 hr 53 min 58 sec) 

Region of Interest Statistics
cpu0_DTLB TOTAL     ACCESS:   10943493  HIT:   10868740  MISS:      74753
cpu0_DTLB LOAD      ACCESS:    8237810  HIT:    8174555  MISS:      63255
cpu0_DTLB RFO       ACCESS:    2705683  HIT:    2694185  MISS:      11498
cpu0_DTLB PREFETCH  ACCESS:          0  HIT:          0  MISS:          0
cpu0_DTLB WRITEBACK ACCESS:          0  HIT:          0  MISS:          0
cpu0_ITLB TOTAL     ACCESS:    4971155  HIT:    4971155  MISS:          0
cpu0_ITLB LOAD      ACCESS:    4971155  HIT:    4971155  MISS:          0
cpu0_ITLB RFO       ACCESS:          0  HIT:          0  MISS:          0
cpu0_ITLB PREFETCH  ACCESS:          0  HIT:          0  MISS:          0
cpu0_ITLB WRITEBACK ACCESS:          0  HIT:          0  MISS:          0
cpu0_L1I TOTAL     ACCESS:    3400814  HIT:    3398433  MISS:       2381
cpu0_L1I LOAD      ACCESS:    3400814  HIT:    3398433  MISS:       2381
cpu0_L1I RFO       ACCESS:          0  HIT:          0  MISS:          0
cpu0_L1I PREFETCH  ACCESS:          0  HIT:          0  MISS:          0
cpu0_L1I WRITEBACK ACCESS:          0  HIT:          0  MISS:          0
cpu0_STLB TOTAL     ACCESS:      74753  HIT:      57570  MISS:      17183
cpu0_STLB LOAD      ACCESS:      63255  HIT:      46156  MISS:      17099
cpu0_STLB RFO       ACCESS:      11498  HIT:      11414  MISS:         84
cpu0_STLB PREFETCH  ACCESS:          0  HIT:          0  MISS:          0
cpu0_STLB WRITEBACK ACCESS:          0  HIT:          0  MISS:          0
cpu0_L1D TOTAL     ACCESS:   13004449  HIT:   12968244  MISS:      36205
cpu0_L1D LOAD      ACCESS:    8487464  HIT:    8459226  MISS:      28238
cpu0_L1D RFO       ACCESS:    4499802  HIT:    4491936  MISS:       7866
cpu0_L1D PREFETCH  ACCESS:          0  HIT:          0  MISS:          0
cpu0_L1D WRITEBACK ACCESS:          0  HIT:          0  MISS:          0
cpu0_L2C TOTAL     ACCESS:      62597  HIT:      41497  MISS:      21100
cpu0_L2C LOAD      ACCESS:      30619  HIT:      11286  MISS:      19333
cpu0_L2C RFO       ACCESS:       7865  HIT:       6193  MISS:       1672
cpu0_L2C PREFETCH  ACCESS:          0  HIT:          0  MISS:          0
cpu0_L2C WRITEBACK ACCESS:      24012  HIT:      23924  MISS:         88
LLC TOTAL     ACCESS:      37788  HIT:       6855  MISS:      30933
LLC LOAD      ACCESS:      19333  HIT:        516  MISS:      18817
LLC RFO       ACCESS:       1672  HIT:        285  MISS:       1387
LLC PREFETCH  ACCESS:          0  HIT:          0  MISS:          0
LLC WRITEBACK ACCESS:      16776  HIT:       6053  MISS:      10723
Heartbeat CPU 0 instructions: 102000000 cycles: 75313965 heartbeat IPC: 0.891218 cumulative IPC: 0.827846 (Simulation time: 0 hr 55 min 0 sec) 

Region of Interest Statistics
cpu0_DTLB TOTAL     ACCESS:   11371427  HIT:   11294654  MISS:      76773
cpu0_DTLB LOAD      ACCESS:    8551226  HIT:    8486343  MISS:      64883
cpu0_DTLB RFO       ACCESS:    2820201  HIT:    2808311  MISS:      11890
cpu0_DTLB PREFETCH  ACCESS:          0  HIT:          0  MISS:          0
cpu0_DTLB WRITEBACK ACCESS:          0  HIT:          0  MISS:          0
cpu0_ITLB TOTAL     ACCESS:    5173319  HIT:    5173319  MISS:          0
cpu0_ITLB LOAD      ACCESS:    5173319  HIT:    5173319  MISS:          0
cpu0_ITLB RFO       ACCESS:          0  HIT:          0  MISS:          0
cpu0_ITLB PREFETCH  ACCESS:          0  HIT:          0  MISS:          0
cpu0_ITLB WRITEBACK ACCESS:          0  HIT:          0  MISS:          0
cpu0_L1I TOTAL     ACCESS:    3514709  HIT:    3512198  MISS:       2511
cpu0_L1I LOAD      ACCESS:    3514709  HIT:    3512198  MISS:       2511
cpu0_L1I RFO       ACCESS:          0  HIT:          0  MISS:          0
cpu0_L1I PREFETCH  ACCESS:          0  HIT:          0  MISS:          0
cpu0_L1I WRITEBACK ACCESS:          0  HIT:          0  MISS:          0
cpu0_STLB TOTAL     ACCESS:      76773  HIT:      59070  MISS:      17703
cpu0_STLB LOAD      ACCESS:      64883  HIT:      47276  MISS:      17607
cpu0_STLB RFO       ACCESS:      11890  HIT:      11794  MISS:         96
cpu0_STLB PREFETCH  ACCESS:          0  HIT:          0  MISS:          0
cpu0_STLB WRITEBACK ACCESS:          0  HIT:          0  MISS:          0
cpu0_L1D TOTAL     ACCESS:   13523896  HIT:   13486656  MISS:      37240
cpu0_L1D LOAD      ACCESS:    8814894  HIT:    8785863  MISS:      29031
cpu0_L1D RFO       ACCESS:    4691299  HIT:    4683197  MISS:       8102
cpu0_L1D PREFETCH  ACCESS:          0  HIT:          0  MISS:          0
cpu0_L1D WRITEBACK ACCESS:          0  HIT:          0  MISS:          0
cpu0_L2C TOTAL     ACCESS:      64413  HIT:      42585  MISS:      21828
cpu0_L2C LOAD      ACCESS:      31542  HIT:      11616  MISS:      19926
cpu0_L2C RFO       ACCESS:       8100  HIT:       6297  MISS:       1803
cpu0_L2C PREFETCH  ACCESS:          0  HIT:          0  MISS:          0
cpu0_L2C WRITEBACK ACCESS:      24664  HIT:      24572  MISS:         92
LLC TOTAL     ACCESS:      39108  HIT:       7150  MISS:      31958
LLC LOAD      ACCESS:      19926  HIT:        526  MISS:      19400
LLC RFO       ACCESS:       1803  HIT:        310  MISS:       1493
LLC PREFETCH  ACCESS:          0  HIT:          0  MISS:          0
LLC WRITEBACK ACCESS:      17372  HIT:       6313  MISS:      11059
Heartbeat CPU 0 instructions: 104000002 cycles: 77599330 heartbeat IPC: 0.875135 cumulative IPC: 0.829506 (Simulation time: 0 hr 56 min 4 sec) 

Region of Interest Statistics
cpu0_DTLB TOTAL     ACCESS:   11795917  HIT:   11716951  MISS:      78966
cpu0_DTLB LOAD      ACCESS:    8865417  HIT:    8798739  MISS:      66678
cpu0_DTLB RFO       ACCESS:    2930500  HIT:    2918212  MISS:      12288
cpu0_DTLB PREFETCH  ACCESS:          0  HIT:          0  MISS:          0
cpu0_DTLB WRITEBACK ACCESS:          0  HIT:          0  MISS:          0
cpu0_ITLB TOTAL     ACCESS:    5377914  HIT:    5377914  MISS:          0
cpu0_ITLB LOAD      ACCESS:    5377914  HIT:    5377914  MISS:          0
cpu0_ITLB RFO       ACCESS:          0  HIT:          0  MISS:          0
cpu0_ITLB PREFETCH  ACCESS:          0  HIT:          0  MISS:          0
cpu0_ITLB WRITEBACK ACCESS:          0  HIT:          0  MISS:          0
cpu0_L1I TOTAL     ACCESS:    3627253  HIT:    3624596  MISS:       2657
cpu0_L1I LOAD      ACCESS:    3627253  HIT:    3624596  MISS:       2657
cpu0_L1I RFO       ACCESS:          0  HIT:          0  MISS:          0
cpu0_L1I PREFETCH  ACCESS:          0  HIT:          0  MISS:          0
cpu0_L1I WRITEBACK ACCESS:          0  HIT:          0  MISS:          0
cpu0_STLB TOTAL     ACCESS:      78966  HIT:      60768  MISS:      18198
cpu0_STLB LOAD      ACCESS:      66678  HIT:      48579  MISS:      18099
cpu0_STLB RFO       ACCESS:      12288  HIT:      12189  MISS:         99
cpu0_STLB PREFETCH  ACCESS:          0  HIT:          0  MISS:          0
cpu0_STLB WRITEBACK ACCESS:          0  HIT:          0  MISS:          0
cpu0_L1D TOTAL     ACCESS:   14034457  HIT:   13995986  MISS:      38471
cpu0_L1D LOAD      ACCESS:    9140009  HIT:    9110031  MISS:      29978
cpu0_L1D RFO       ACCESS:    4876250  HIT:    4867870  MISS:       8380
cpu0_L1D PREFETCH  ACCESS:          0  HIT:          0  MISS:          0
cpu0_L1D WRITEBACK ACCESS:          0  HIT:          0  MISS:          0
cpu0_L2C TOTAL     ACCESS:      66619  HIT:      44185  MISS:      22434
cpu0_L2C LOAD      ACCESS:      32635  HIT:      12165  MISS:      20470
cpu0_L2C RFO       ACCESS:       8378  HIT:       6514  MISS:       1864
cpu0_L2C PREFETCH  ACCESS:          0  HIT:          0  MISS:          0
cpu0_L2C WRITEBACK ACCESS:      25493  HIT:      25400  MISS:         93
LLC TOTAL     ACCESS:      40211  HIT:       7388  MISS:      32823
LLC LOAD      ACCESS:      20470  HIT:        532  MISS:      19938
LLC RFO       ACCESS:       1864  HIT:        313  MISS:       1551
LLC PREFETCH  ACCESS:          0  HIT:          0  MISS:          0
LLC WRITEBACK ACCESS:      17870  HIT:       6542  MISS:      11328
Heartbeat CPU 0 instructions: 106000000 cycles: 79797964 heartbeat IPC: 0.909655 cumulative IPC: 0.832125 (Simulation time: 0 hr 57 min 7 sec) 

Region of Interest Statistics
cpu0_DTLB TOTAL     ACCESS:   12218294  HIT:   12137209  MISS:      81085
cpu0_DTLB LOAD      ACCESS:    9176460  HIT:    9108064  MISS:      68396
cpu0_DTLB RFO       ACCESS:    3041834  HIT:    3029145  MISS:      12689
cpu0_DTLB PREFETCH  ACCESS:          0  HIT:          0  MISS:          0
cpu0_DTLB WRITEBACK ACCESS:          0  HIT:          0  MISS:          0
cpu0_ITLB TOTAL     ACCESS:    5584847  HIT:    5584847  MISS:          0
cpu0_ITLB LOAD      ACCESS:    5584847  HIT:    5584847  MISS:          0
cpu0_ITLB RFO       ACCESS:          0  HIT:          0  MISS:          0
cpu0_ITLB PREFETCH  ACCESS:          0  HIT:          0  MISS:          0
cpu0_ITLB WRITEBACK ACCESS:          0  HIT:          0  MISS:          0
cpu0_L1I TOTAL     ACCESS:    3729838  HIT:    3727034  MISS:       2804
cpu0_L1I LOAD      ACCESS:    3729838  HIT:    3727034  MISS:       2804
cpu0_L1I RFO       ACCESS:          0  HIT:          0  MISS:          0
cpu0_L1I PREFETCH  ACCESS:          0  HIT:          0  MISS:          0
cpu0_L1I WRITEBACK ACCESS:          0  HIT:          0  MISS:          0
cpu0_STLB TOTAL     ACCESS:      81085  HIT:      62435  MISS:      18650
cpu0_STLB LOAD      ACCESS:      68396  HIT:      49845  MISS:      18551
cpu0_STLB RFO       ACCESS:      12689  HIT:      12590  MISS:         99
cpu0_STLB PREFETCH  ACCESS:          0  HIT:          0  MISS:          0
cpu0_STLB WRITEBACK ACCESS:          0  HIT:          0  MISS:          0
cpu0_L1D TOTAL     ACCESS:   14541608  HIT:   14501969  MISS:      39639
cpu0_L1D LOAD      ACCESS:    9461158  HIT:    9430297  MISS:      30861
cpu0_L1D RFO       ACCESS:    5061800  HIT:    5053136  MISS:       8664
cpu0_L1D PREFETCH  ACCESS:          0  HIT:          0  MISS:          0
cpu0_L1D WRITEBACK ACCESS:          0  HIT:          0  MISS:          0
cpu0_L2C TOTAL     ACCESS:      68664  HIT:      45702  MISS:      22962
cpu0_L2C LOAD      ACCESS:      33665  HIT:      12688  MISS:      20977
cpu0_L2C RFO       ACCESS:       8661  HIT:       6776  MISS:       1885
cpu0_L2C PREFETCH  ACCESS:          0  HIT:          0  MISS:          0
cpu0_L2C WRITEBACK ACCESS:      26224  HIT:      26131  MISS:         93
LLC TOTAL     ACCESS:      41160  HIT:       7601  MISS:      33559
[...]
cpu0_DTLB RFO       ACCESS:   81615793  HIT:   81301472  MISS:     314321
cpu0_DTLB PREFETCH  ACCESS:          0  HIT:          0  MISS:          0
cpu0_DTLB WRITEBACK ACCESS:          0  HIT:          0  MISS:          0
cpu0_DTLB TRANSLATION ACCESS:          0  HIT:          0  MISS:          0
cpu0_DTLB PREFETCH  REQUESTED:          0  ISSUED:          0  USEFUL:          0  USELESS:          0
cpu0_DTLB AVERAGE MISS LATENCY: 14.0547 cycles
cpu0_ITLB TOTAL     ACCESS:  150962636  HIT:  150962634  MISS:          2
cpu0_ITLB LOAD      ACCESS:  150962636  HIT:  150962634  MISS:          2
cpu0_ITLB RFO       ACCESS:          0  HIT:          0  MISS:          0
cpu0_ITLB PREFETCH  ACCESS:          0  HIT:          0  MISS:          0
cpu0_ITLB WRITEBACK ACCESS:          0  HIT:          0  MISS:          0
cpu0_ITLB TRANSLATION ACCESS:          0  HIT:          0  MISS:          0
cpu0_ITLB PREFETCH  REQUESTED:          0  ISSUED:          0  USEFUL:          0  USELESS:          0
cpu0_ITLB AVERAGE MISS LATENCY: 222.5 cycles
cpu0_L1I TOTAL     ACCESS:   95479419  HIT:   95408780  MISS:      70639
cpu0_L1I LOAD      ACCESS:   95479419  HIT:   95408780  MISS:      70639
cpu0_L1I RFO       ACCESS:          0  HIT:          0  MISS:          0
cpu0_L1I PREFETCH  ACCESS:          0  HIT:          0  MISS:          0
cpu0_L1I WRITEBACK ACCESS:          0  HIT:          0  MISS:          0
cpu0_L1I TRANSLATION ACCESS:          0  HIT:          0  MISS:          0
cpu0_L1I PREFETCH  REQUESTED:          0  ISSUED:          0  USEFUL:          0  USELESS:          0
cpu0_L1I AVERAGE MISS LATENCY: 13.9225 cycles
cpu0_STLB TOTAL     ACCESS:    1973517  HIT:    1541968  MISS:     431549
cpu0_STLB LOAD      ACCESS:    1659196  HIT:    1229723  MISS:     429473
cpu0_STLB RFO       ACCESS:     314321  HIT:     312245  MISS:       2076
cpu0_STLB PREFETCH  ACCESS:          0  HIT:          0  MISS:          0
cpu0_STLB WRITEBACK ACCESS:          0  HIT:          0  MISS:          0
cpu0_STLB TRANSLATION ACCESS:          0  HIT:          0  MISS:          0
cpu0_STLB PREFETCH  REQUESTED:          0  ISSUED:          0  USEFUL:          0  USELESS:          0
cpu0_STLB AVERAGE MISS LATENCY: 23.0876 cycles
cpu0_L1D TOTAL     ACCESS:  386082466  HIT:  385121151  MISS:     961315
cpu0_L1D LOAD      ACCESS:  250116442  HIT:  249383589  MISS:     732853
cpu0_L1D RFO       ACCESS:  135534502  HIT:  135310047  MISS:     224455
cpu0_L1D PREFETCH  ACCESS:          0  HIT:          0  MISS:          0
cpu0_L1D WRITEBACK ACCESS:          0  HIT:          0  MISS:          0
cpu0_L1D TRANSLATION ACCESS:     431522  HIT:     427515  MISS:       4007
cpu0_L1D PREFETCH  REQUESTED:          0  ISSUED:          0  USEFUL:          0  USELESS:          0
cpu0_L1D AVERAGE MISS LATENCY: 108.677 cycles
cpu0_L2C TOTAL     ACCESS:    1653529  HIT:    1128781  MISS:     524748
cpu0_L2C LOAD      ACCESS:     803489  HIT:     320352  MISS:     483137
cpu0_L2C RFO       ACCESS:     224429  HIT:     184563  MISS:      39866
cpu0_L2C PREFETCH  ACCESS:          0  HIT:          0  MISS:          0
cpu0_L2C WRITEBACK ACCESS:     621604  HIT:     620091  MISS:       1513
cpu0_L2C TRANSLATION ACCESS:       4007  HIT:       3775  MISS:        232
cpu0_L2C PREFETCH  REQUESTED:          0  ISSUED:          0  USEFUL:          0  USELESS:          0
cpu0_L2C AVERAGE MISS LATENCY: 179.316 cycles
LLC TOTAL     ACCESS:     928914  HIT:     189112  MISS:     739802
LLC LOAD      ACCESS:     483137  HIT:       9129  MISS:     474008
LLC RFO       ACCESS:      39866  HIT:       5518  MISS:      34348
LLC PREFETCH  ACCESS:          0  HIT:          0  MISS:          0
LLC WRITEBACK ACCESS:     405679  HIT:     174418  MISS:     231261
LLC TRANSLATION ACCESS:        232  HIT:         47  MISS:        185
LLC PREFETCH  REQUESTED:          0  ISSUED:          0  USEFUL:          0  USELESS:          0
LLC AVERAGE MISS LATENCY: 112.338 cycles
~~~~~~~~~~Reuse Distance Profiler output~~~~~~~~~~
0	62163056	18471456
1	31648320	16035664
2	20904672	11722352
3	18306992	12350784
4	14009440	9941728
5	10796320	7803648
6	9832912	6619280
7	9241520	6149376
8	8399296	5793728
9	8389328	5888592
10	6609536	4460352
11	6175216	4527136
12	5419904	3699280
13	5269600	3461984
14	4581504	2668560
15	4291440	3074464
16	3502320	2541872
17	3750896	2686400
18	3330400	2525456
19	2967120	2180384
20	3169760	2476160
21	3121024	2219456
22	3016848	2112784
23	2859152	2220176
24	2821664	2256896
25	3230576	2715168
26	3317440	2627280
27	3086112	2497120
28	3307744	2820384
29	2720080	2262080
30	2608480	1952432
31	2280656	1800640
32	2094192	1651248
33	2105968	1643072
34	2010848	1426544
35	1940768	1379040
36	1724656	1324496
37	1663888	1153872
38	1687120	1219040
39	1744880	1139712
40	1449232	1092096
41	1389856	1100384
42	1426448	1084592
43	1442448	1023584
44	1337184	927072
45	1291328	915984
46	1306304	885840
47	1117936	812192
48	1043712	798608
49	1005936	768672
50	985568	765680
51	900800	677856
52	876416	678032
53	908208	721312
54	941680	764336
55	965744	784112
56	986496	806032
57	958608	766384
58	1001616	810416
59	1003152	805872
60	1052240	792384
61	950464	753856
62	952304	735072
63	979056	724000
64	1827072	1418832
66	1735664	1299008
68	1607168	1116384
70	1576160	1039552
72	1523568	1012816
74	1466432	986832
76	1435344	978592
78	1383360	974912
80	1404496	998320
82	1363200	976960
84	1262000	922592
86	1178992	848208
88	1099696	814848
90	1042768	796752
92	1002864	764400
94	950608	713024
96	878848	656032
98	784080	598272
100	720560	566400
102	627616	503472
104	557824	460240
106	538288	459424
108	510912	445040
110	531168	472720
112	559184	507200
114	614320	558480
116	616512	564624
118	556736	502816
120	488032	435872
122	472624	416560
124	450896	391360
126	434944	377600
128	840944	733696
132	822928	725824
136	833872	735312
140	949024	826112
144	1114912	948608
148	1176480	994512
152	1054480	891376
156	839376	705280
160	715472	603728
164	614096	521904
168	539744	460592
172	474192	405904
176	435936	377888
180	404208	352464
184	376672	333136
188	347344	309024
192	340672	305216
196	343216	310000
200	339776	307088
204	338752	307072
208	334592	303936
212	327856	298576
216	306096	276912
220	282096	255696
224	255568	233664
228	242368	221328
232	233584	212400
236	221152	200480
240	210080	190016
244	195296	175824
248	187024	169600
252	178304	161488
256	332976	300752
264	318000	282768
272	308784	271648
280	299984	263952
288	292752	257296
296	296416	261376
304	280784	245888
312	253872	219696
320	228416	198400
328	220592	190768
336	214800	187184
344	211600	186336
352	202880	178016
360	192912	169600
368	181728	157152
376	171968	147968
384	166656	140576
392	162512	136656
400	159760	133136
408	155568	129648
416	155040	130032
424	150064	127120
432	151152	126912
440	149920	127200
448	148720	127584
456	146448	126592
464	144016	123984
472	142896	124288
480	146288	128288
488	143040	124352
496	137216	117952
504	136112	119088
512	274000	240864
528	254656	222496
544	240592	206896
560	228160	195888
576	232416	197568
592	246160	208512
608	249104	212032
624	255072	216896
640	265312	229488
656	280512	242656
672	284448	247680
688	292720	253616
704	301664	261520
720	305280	265696
736	323264	280048
752	314416	274688
768	313536	273504
784	309952	268944
800	308944	269888
816	311088	271680
832	308384	267744
848	291984	254288
864	282656	245072
880	266512	234336
896	254048	226304
912	252800	225440
928	241312	213328
944	235280	207472
960	242400	213680
976	237936	208624
992	261360	228928
1008	236912	209744
1024	439872	394528
1056	385472	347424
1088	349600	315232
1120	331856	296816
1152	348416	312896
1184	326592	293232
1216	311296	278336
1248	317952	285072
1280	314464	280592
1312	310160	275392
1344	299360	266368
1376	300784	265968
1408	293744	258608
1440	288896	252656
1472	284400	248576
1504	275728	238048
1536	276400	242048
1568	261376	228624
1600	247936	215696
1632	230688	198320
1664	218656	188352
1696	205328	174368
1728	189168	160512
1760	177392	149648
1792	167008	141552
1824	151424	127952
1856	139456	117024
1888	134784	111952
1920	120704	101120
1952	113840	94208
1984	110208	92272
2016	106256	87904
2048	190032	157136
2112	178416	148064
2176	163504	132192
2240	162480	131680
2304	157792	127616
2368	149664	120192
2432	144000	116736
2496	136736	111040
2560	135904	109120
2624	136112	109408
2688	127248	100752
2752	128048	102544
2816	118240	95456
2880	115584	94208
2944	109424	90160
3008	104448	84400
3072	100880	81216
3136	98480	80320
3200	91616	73888
3264	89536	72224
3328	83728	66208
3392	83840	66400
3456	80256	63360
3520	77600	60192
3584	76944	59472
3648	74736	58688
3712	76992	60224
3776	75920	59424
3840	72352	56512
3904	74112	56976
3968	73472	56656
4032	70512	54416
4096	139424	107376
4224	134032	103248
4352	132224	101456
4480	126400	96528
4608	122048	93792
4736	120096	92032
4864	118480	91248
4992	114560	87680
5120	113072	86896
5248	108784	83696
5376	108816	84176
5504	105920	80592
5632	103120	80400
5760	101088	77904
5888	99520	77536
6016	96528	75440
6144	93824	73040
6272	93904	72704
6400	90240	70848
6528	85104	66640
6656	84624	65936
6784	80400	63264
6912	80240	62976
7040	75840	59056
7168	72304	56592
7296	70848	55712
7424	66160	51232
7552	68944	53456
7680	64272	49840
7808	64208	49920
7936	60976	46912
8064	59600	46512
8192	112688	87072
8448	108080	84096
8704	100592	78688
8960	95264	74240
9216	88400	68080
9472	83904	64640
9728	80192	61072
9984	74368	56656
10240	67872	51488
10496	67712	50704
10752	62848	46160
11008	58304	42720
11264	55328	39568
11520	52528	38144
11776	52224	37696
12032	52160	37328
12288	49616	35824
12544	48160	34480
12800	45152	31632
13056	44512	30672
13312	43664	30720
13568	43888	30624
13824	43104	30528
14080	42336	29072
14336	41600	28960
14592	41312	28096
14848	40352	28512
15104	37824	26128
15360	40288	26848
15616	36464	25488
15872	36032	24576
16128	36176	24928
16384	68304	46160
16896	64864	44352
17408	60880	40672
17920	55248	37632
18432	51168	33984
18944	47040	31488
19456	43472	28832
19968	40912	26944
20480	37328	24624
20992	37168	24176
21504	34672	23072
22016	34272	22336
22528	32896	21088
23040	31168	19616
23552	30512	19440
24064	29856	19568
24576	28000	18128
25088	28416	18224
25600	24992	15792
26112	24688	15968
26624	24288	15744
27136	23552	14848
27648	22352	14160
28160	21552	13440
28672	20496	12576
29184	21056	13632
29696	20480	12592
30208	19072	11888
30720	19104	11952
31232	18160	10624
31744	17872	10944
32256	16704	10368
32768	31968	20080
33792	29056	18288
34816	27104	16192
35840	27424	15984
36864	26704	16448
37888	25392	15536
38912	22416	13568
39936	21728	12800
40960	21648	12736
41984	19040	10960
43008	17888	10928
44032	18288	11584
45056	17264	10304
46080	15840	9408
47104	15904	9216
48128	15392	8896
49152	14496	8080
50176	14928	8704
51200	13984	7984
52224	13104	8048
53248	13520	7712
54272	11776	6816
55296	12560	7152
56320	11440	6944
57344	11056	5808
58368	11232	6272
59392	10400	5952
60416	9776	5552
61440	10688	6464
62464	8992	5184
63488	9664	5600
64512	8176	5040
65536	17728	9616
67584	15840	8896
69632	16528	9200
71680	14928	8272
73728	13776	7680
75776	12384	6672
77824	12384	6704
79872	11968	6816
81920	10368	5872
83968	9888	5248
86016	9184	5344
88064	9296	5328
90112	9504	5120
92160	8704	4688
94208	8688	4576
96256	8800	4656
98304	7808	4416
100352	7152	3824
102400	6384	3472
104448	6688	3504
106496	6464	3440
108544	6496	3248
110592	6768	3504
112640	6160	3232
114688	6096	3648
116736	5408	3152
118784	5536	2976
120832	5280	2752
122880	4672	2624
124928	5008	2848
126976	4864	2816
129024	4528	2592
131072	9136	4576
135168	8512	4432
139264	8000	4256
143360	8064	3920
147456	7488	3968
151552	6848	3408
155648	6384	3392
159744	6144	3504
163840	5984	3456
167936	6400	3360
172032	6160	3456
176128	6272	3616
180224	5296	2992
184320	4704	2832
188416	4672	2688
192512	5136	2560
196608	4688	2960
200704	4512	2528
204800	4592	2352
208896	4976	2896
212992	4560	2640
217088	3728	2048
221184	4112	2400
225280	3856	1920
229376	3376	1952
233472	3312	1984
237568	3632	1888
241664	3456	1856
245760	3744	2208
249856	2992	1600
253952	2912	1392
258048	3104	1568
262144	5440	3264
270336	5648	2864
278528	5024	2864
286720	4752	2768
294912	4544	2496
303104	4720	2752
311296	4128	2224
319488	4192	2160
327680	3904	2208
335872	3616	2160
344064	3456	2096
352256	3632	2160
360448	3680	2496
368640	3056	1776
376832	3136	1984
385024	2944	1744
393216	2880	1952
401408	3104	1968
409600	2752	1760
417792	3040	1856
425984	3120	1808
434176	2416	1472
442368	2352	1200
450560	2080	1200
458752	2320	1328
466944	2208	1312
475136	2320	1264
483328	2144	1216
491520	2224	1280
499712	1984	1168
507904	1680	848
516096	2160	1456
524288	3328	2320
540672	3024	1760
557056	3200	1904
573440	3040	2144
589824	3152	1920
606208	2656	1600
622592	2816	1680
638976	2400	1472
655360	2256	1344
671744	1952	1280
688128	2224	1472
704512	1904	1200
720896	2032	1456
737280	2096	1328
753664	2384	1600
770048	1808	1168
786432	1920	1152
802816	1808	1056
819200	1376	784
835584	1456	1008
851968	1632	1104
868352	1856	1072
884736	1296	912
901120	1648	1008
917504	1504	1024
933888	1312	864
950272	1472	1072
966656	1744	1168
983040	1856	1232
999424	1200	960
1015808	1456	912
1032192	1584	976
1048576	2480	1568
1081344	2432	1504
1114112	2112	1232
1146880	1840	1232
1179648	1920	1104
1212416	1936	1344
1245184	2288	1552
1277952	1680	1024
1310720	1728	1232
1343488	1328	976
1376256	1376	848
1409024	1392	800
1441792	1552	1056
1474560	1344	848
1507328	1216	704
1540096	1280	896
1572864	1072	640
1605632	1168	656
1638400	1296	896
1671168	1008	624
1703936	1040	720
1736704	1072	720
1769472	1008	624
1802240	1008	656
1835008	928	576
1867776	672	512
1900544	688	544
1933312	800	560
1966080	864	624
1998848	800	576
2031616	896	544
2064384	784	448
2097152	1360	1040
2162688	1120	848
2228224	1264	816
2293760	1056	752
2359296	1120	816
2424832	1088	784
2490368	880	528
2555904	1056	720
2621440	736	448
2686976	800	624
2752512	848	544
2818048	992	720
2883584	944	608
2949120	496	416
3014656	720	576
3080192	784	608
3145728	544	432
3211264	560	416
3276800	448	336
3342336	688	544
3407872	560	464
3473408	560	400
3538944	640	352
3604480	496	256
3670016	512	352
3735552	624	272
3801088	544	448
3866624	640	448
3932160	528	336
3997696	576	400
4063232	496	368
4128768	272	192
4194304	496	384
4325376	832	544
4456448	784	544
4587520	736	528
4718592	752	448
4849664	1040	656
4980736	992	640
5111808	640	416
5242880	544	400
5373952	432	288
5505024	528	416
5636096	576	416
5767168	480	368
5898240	496	352
6029312	480	416
6160384	736	560
6291456	256	224
6422528	592	400
6553600	400	368
6684672	416	240
6815744	304	272
6946816	512	416
7077888	624	400
7208960	672	512
7340032	272	208
7471104	432	352
7602176	288	256
7733248	384	272
7864320	384	320
7995392	240	192
8126464	224	192
8257536	272	272
8388608	592	400
8650752	768	528
8912896	848	656
9175040	672	560
9437184	528	352
9699328	640	480
9961472	560	384
10223616	480	416
10485760	496	384
10747904	496	400
11010048	560	480
11272192	432	336
11534336	368	288
11796480	624	384
12058624	368	304
12320768	368	288
12582912	336	256
12845056	400	304
13107200	352	336
13369344	304	240
13631488	336	240
13893632	400	352
14155776	272	240
14417920	416	256
14680064	336	304
14942208	336	224
15204352	224	192
15466496	224	208
15728640	224	192
15990784	192	160
16252928	368	320
16515072	240	192
16777216	416	272
17301504	336	272
17825792	352	256
18350080	448	400
18874368	480	464
19398656	560	528
19922944	464	368
20447232	384	288
20971520	528	432
21495808	656	560
22020096	400	368
22544384	480	400
23068672	384	352
23592960	272	240
24117248	384	352
24641536	480	416
25165824	368	288
25690112	384	272
26214400	352	304
26738688	448	368
27262976	272	240
27787264	224	208
28311552	448	384
28835840	608	560
29360128	400	368
29884416	304	272
30408704	416	368
30932992	416	368
31457280	512	432
31981568	384	352
32505856	272	224
33030144	544	480
33554432	528	432
34603008	592	512
35651584	880	768
36700160	608	528
37748736	976	928
38797312	560	512
39845888	560	512
40894464	352	336
41943040	576	544
42991616	608	448
44040192	480	416
45088768	448	400
46137344	448	416
47185920	704	656
48234496	608	544
49283072	432	368
50331648	496	464
51380224	320	240
52428800	528	448
53477376	672	592
54525952	336	256
55574528	528	464
56623104	288	256
57671680	464	432
58720256	416	320
59768832	592	528
60817408	480	416
61865984	432	400
62914560	672	608
63963136	304	304
65011712	448	384
66060288	464	432
67108864	880	816
69206016	896	704
71303168	864	784
73400320	992	912
75497472	768	752
77594624	1008	912
79691776	624	544
81788928	752	704
83886080	864	816
85983232	1056	944
88080384	688	672
90177536	768	720
92274688	576	560
94371840	640	592
96468992	816	720
98566144	640	608
100663296	768	720
102760448	736	624
104857600	624	608
106954752	592	496
109051904	720	720
111149056	784	768
113246208	656	624
115343360	576	544
117440512	704	656
119537664	544	480
121634816	544	464
123731968	512	480
125829120	560	560
127926272	496	464
130023424	352	304
132120576	480	432
134217728	1312	1120
138412032	1072	1008
142606336	1264	1184
146800640	1040	976
150994944	1200	1104
155189248	912	784
159383552	1088	1008
163577856	848	768
167772160	1104	1056
171966464	928	848
176160768	992	896
180355072	752	672
184549376	992	912
188743680	800	736
192937984	816	704
197132288	672	608
201326592	864	800
205520896	656	624
209715200	560	496
213909504	608	528
218103808	608	528
222298112	576	528
226492416	768	688
230686720	512	496
234881024	576	496
239075328	480	448
243269632	704	640
247463936	496	416
251658240	480	464
255852544	560	544
260046848	432	384
264241152	432	400
268435456	1152	1056
276824064	704	640
285212672	592	496
293601280	864	800
301989888	624	608
310378496	752	656
318767104	576	512
327155712	480	432
335544320	464	416
343932928	256	224
352321536	192	160
360710144	192	176
369098752	128	128
377487360	48	32
385875968	64	64
394264576	0	0
402653184	0	0
411041792	0	0
419430400	0	0
427819008	0	0
436207616	0	0
444596224	0	0
452984832	0	0
461373440	0	0
469762048	0	0
478150656	0	0
486539264	0	0
494927872	0	0
503316480	0	0
511705088	0	0
520093696	0	0
528482304	0	0
536870912	0	0
553648128	0	0
570425344	0	0
587202560	0	0
603979776	0	0
620756992	0	0
637534208	0	0
654311424	0	0
671088640	0	0
687865856	0	0
704643072	0	0
721420288	0	0
738197504	0	0
754974720	0	0
771751936	0	0
788529152	0	0
805306368	0	0
822083584	0	0
838860800	0	0
855638016	0	0
872415232	0	0
889192448	0	0
905969664	0	0
922746880	0	0
939524096	0	0
956301312	0	0
973078528	0	0
989855744	0	0
1006632960	0	0
1023410176	0	0
1040187392	0	0
1056964608	0	0
1073741824	0	0
1107296256	0	0
1140850688	0	0
1174405120	0	0
1207959552	0	0
1241513984	0	0
1275068416	0	0
1308622848	0	0
1342177280	0	0
1375731712	0	0
1409286144	0	0
1442840576	0	0
1476395008	0	0
1509949440	0	0
1543503872	0	0
1577058304	0	0
1610612736	0	0
1644167168	0	0
1677721600	0	0
1711276032	0	0
1744830464	0	0
1778384896	0	0
1811939328	0	0
1845493760	0	0
1879048192	0	0
1912602624	0	0
1946157056	0	0
1979711488	0	0
2013265920	0	0
2046820352	0	0
2080374784	0	0
2113929216	0	0
2147483648	0	0
2214592512	0	0
2281701376	0	0
2348810240	0	0
2415919104	0	0
2483027968	0	0
2550136832	0	0
2617245696	0	0
2684354560	0	0
2751463424	0	0
2818572288	0	0
2885681152	0	0
2952790016	0	0
3019898880	0	0
3087007744	0	0
3154116608	0	0
3221225472	0	0
3288334336	0	0
3355443200	0	0
3422552064	0	0
3489660928	0	0
3556769792	0	0
3623878656	0	0
3690987520	0	0
3758096384	0	0
3825205248	0	0
3892314112	0	0
3959422976	0	0
4026531840	0	0
4093640704	0	0
4160749568	0	0
4227858432	0	0
~~~~~~~~~~Reuse Distance Profiler output end~~~~~~~~~~

Sampler size:26766

DRAM Statistics
 CHANNEL 0
 RQ ROW_BUFFER_HIT:        177  ROW_BUFFER_MISS:     508364
 DBUS AVG_CONGESTED_CYCLE:    3.80452
 WQ ROW_BUFFER_HIT:      20048  ROW_BUFFER_MISS:     374538  FULL:          0


CPU 0 Branch Prediction Accuracy: 86.8395% MPKI: 29.8479 Average ROB Occupancy at Mispredict: 16.3507
Branch type MPKI
BRANCH_DIRECT_JUMP: 2.33333e-05
BRANCH_INDIRECT: 0.656315
BRANCH_CONDITIONAL: 28.9849
BRANCH_DIRECT_CALL: 1.06667e-05
BRANCH_INDIRECT_CALL: 0.206729
BRANCH_RETURN: 1.13333e-05

