
*** ChampSim Multicore Out-of-Order Simulator ***

Warmup Instructions: 50000000
Simulation Instructions: 1500000000
Number of CPUs: 1
Off-chip DRAM Size: 4 GiB Channels: 1 Width: 64-bit Data Rate: 3200 MT/s

VirtualMemory physical capacity: 8588881920 num_ppages: 2096895
VirtualMemory page size: 4096 log2_page_size: 12

CPU 0 runs /s/traces/champsim_traces/459.GemsFDTD-1211B.champsimtrace.xz
CPU 0 Bimodal branch predictor
Basic BTB sets: 1024 ways: 8 indirect buffer size: 4096 RAS size: 64
Initializing LRU.
Initializing LRU.
Initializing LRU.
Initializing LRU.
Initializing rdLRU.
Initializing LRU.
Heartbeat CPU 0 instructions: 2000002 cycles: 1091269 heartbeat IPC: 1.83273 cumulative IPC: 1.83273 (Simulation time: 0 hr 3 min 10 sec) 
Heartbeat CPU 0 instructions: 4000002 cycles: 2182394 heartbeat IPC: 1.83297 cumulative IPC: 1.83285 (Simulation time: 0 hr 6 min 24 sec) 
Heartbeat CPU 0 instructions: 6000000 cycles: 3273528 heartbeat IPC: 1.83295 cumulative IPC: 1.83288 (Simulation time: 0 hr 9 min 31 sec) 
Heartbeat CPU 0 instructions: 8000000 cycles: 4364667 heartbeat IPC: 1.83295 cumulative IPC: 1.8329 (Simulation time: 0 hr 12 min 41 sec) 
Heartbeat CPU 0 instructions: 10000004 cycles: 5455809 heartbeat IPC: 1.83295 cumulative IPC: 1.83291 (Simulation time: 0 hr 15 min 46 sec) 
Heartbeat CPU 0 instructions: 12000000 cycles: 6546928 heartbeat IPC: 1.83298 cumulative IPC: 1.83292 (Simulation time: 0 hr 18 min 58 sec) 
Heartbeat CPU 0 instructions: 14000001 cycles: 7638064 heartbeat IPC: 1.83295 cumulative IPC: 1.83293 (Simulation time: 0 hr 22 min 13 sec) 
Heartbeat CPU 0 instructions: 16000003 cycles: 8729224 heartbeat IPC: 1.83291 cumulative IPC: 1.83292 (Simulation time: 0 hr 25 min 28 sec) 
Heartbeat CPU 0 instructions: 18000002 cycles: 9820367 heartbeat IPC: 1.83294 cumulative IPC: 1.83293 (Simulation time: 0 hr 28 min 40 sec) 
Heartbeat CPU 0 instructions: 20000000 cycles: 10911480 heartbeat IPC: 1.83299 cumulative IPC: 1.83293 (Simulation time: 0 hr 31 min 53 sec) 
Heartbeat CPU 0 instructions: 22000001 cycles: 12002625 heartbeat IPC: 1.83294 cumulative IPC: 1.83293 (Simulation time: 0 hr 35 min 5 sec) 
Heartbeat CPU 0 instructions: 24000001 cycles: 13093759 heartbeat IPC: 1.83296 cumulative IPC: 1.83293 (Simulation time: 0 hr 38 min 10 sec) 
Heartbeat CPU 0 instructions: 26000002 cycles: 14184896 heartbeat IPC: 1.83295 cumulative IPC: 1.83294 (Simulation time: 0 hr 41 min 12 sec) 
Heartbeat CPU 0 instructions: 28000001 cycles: 15276018 heartbeat IPC: 1.83297 cumulative IPC: 1.83294 (Simulation time: 0 hr 44 min 19 sec) 
Heartbeat CPU 0 instructions: 30000003 cycles: 16367160 heartbeat IPC: 1.83294 cumulative IPC: 1.83294 (Simulation time: 0 hr 47 min 19 sec) 
Heartbeat CPU 0 instructions: 32000001 cycles: 17458290 heartbeat IPC: 1.83296 cumulative IPC: 1.83294 (Simulation time: 0 hr 50 min 24 sec) 
Heartbeat CPU 0 instructions: 34000002 cycles: 18549434 heartbeat IPC: 1.83294 cumulative IPC: 1.83294 (Simulation time: 0 hr 53 min 27 sec) 
Heartbeat CPU 0 instructions: 36000001 cycles: 19640546 heartbeat IPC: 1.83299 cumulative IPC: 1.83294 (Simulation time: 0 hr 56 min 32 sec) 
Heartbeat CPU 0 instructions: 38000000 cycles: 20731695 heartbeat IPC: 1.83293 cumulative IPC: 1.83294 (Simulation time: 0 hr 59 min 31 sec) 
Heartbeat CPU 0 instructions: 40000000 cycles: 21854954 heartbeat IPC: 1.78053 cumulative IPC: 1.83025 (Simulation time: 1 hr 2 min 41 sec) 
Heartbeat CPU 0 instructions: 42000004 cycles: 23081022 heartbeat IPC: 1.63123 cumulative IPC: 1.81968 (Simulation time: 1 hr 6 min 9 sec) 
Heartbeat CPU 0 instructions: 44000001 cycles: 24229256 heartbeat IPC: 1.7418 cumulative IPC: 1.81599 (Simulation time: 1 hr 9 min 27 sec) 
Heartbeat CPU 0 instructions: 46000001 cycles: 25321505 heartbeat IPC: 1.83108 cumulative IPC: 1.81664 (Simulation time: 1 hr 12 min 33 sec) 
Heartbeat CPU 0 instructions: 48000001 cycles: 26413748 heartbeat IPC: 1.83109 cumulative IPC: 1.81724 (Simulation time: 1 hr 15 min 40 sec) 
Heartbeat CPU 0 instructions: 50000002 cycles: 27505991 heartbeat IPC: 1.8311 cumulative IPC: 1.81779 (Simulation time: 1 hr 18 min 46 sec) 

Warmup complete CPU 0 instructions: 50000002 cycles: 27505991 (Simulation time: 1 hr 18 min 46 sec) 

Heartbeat CPU 0 instructions: 52000000 cycles: 30378435 heartbeat IPC: 0.69627 cumulative IPC: 0.69627 (Simulation time: 1 hr 23 min 17 sec) 

Region of Interest Statistics
cpu0_DTLB TOTAL     ACCESS:     911367  HIT:     896102  MISS:      15265
cpu0_DTLB LOAD      ACCESS:     824980  HIT:     811126  MISS:      13854
cpu0_DTLB RFO       ACCESS:      86387  HIT:      84976  MISS:       1411
cpu0_DTLB PREFETCH  ACCESS:          0  HIT:          0  MISS:          0
cpu0_DTLB WRITEBACK ACCESS:          0  HIT:          0  MISS:          0
cpu0_ITLB TOTAL     ACCESS:      37992  HIT:      37992  MISS:          0
cpu0_ITLB LOAD      ACCESS:      37992  HIT:      37992  MISS:          0
cpu0_ITLB RFO       ACCESS:          0  HIT:          0  MISS:          0
cpu0_ITLB PREFETCH  ACCESS:          0  HIT:          0  MISS:          0
cpu0_ITLB WRITEBACK ACCESS:          0  HIT:          0  MISS:          0
cpu0_L1I TOTAL     ACCESS:     223807  HIT:     223807  MISS:          0
cpu0_L1I LOAD      ACCESS:     223807  HIT:     223807  MISS:          0
cpu0_L1I RFO       ACCESS:          0  HIT:          0  MISS:          0
cpu0_L1I PREFETCH  ACCESS:          0  HIT:          0  MISS:          0
cpu0_L1I WRITEBACK ACCESS:          0  HIT:          0  MISS:          0
cpu0_STLB TOTAL     ACCESS:      15265  HIT:      13114  MISS:       2151
cpu0_STLB LOAD      ACCESS:      13854  HIT:      11703  MISS:       2151
cpu0_STLB RFO       ACCESS:       1411  HIT:       1411  MISS:          0
cpu0_STLB PREFETCH  ACCESS:          0  HIT:          0  MISS:          0
cpu0_STLB WRITEBACK ACCESS:          0  HIT:          0  MISS:          0
cpu0_L1D TOTAL     ACCESS:    1069690  HIT:    1051437  MISS:      18253
cpu0_L1D LOAD      ACCESS:     914170  HIT:     895935  MISS:      18235
cpu0_L1D RFO       ACCESS:     153372  HIT:     153372  MISS:          0
cpu0_L1D PREFETCH  ACCESS:          0  HIT:          0  MISS:          0
cpu0_L1D WRITEBACK ACCESS:          0  HIT:          0  MISS:          0
cpu0_L2C TOTAL     ACCESS:      26826  HIT:      12024  MISS:      14802
cpu0_L2C LOAD      ACCESS:      18235  HIT:       3435  MISS:      14800
cpu0_L2C RFO       ACCESS:          0  HIT:          0  MISS:          0
cpu0_L2C PREFETCH  ACCESS:          0  HIT:          0  MISS:          0
cpu0_L2C WRITEBACK ACCESS:       8573  HIT:       8573  MISS:          0
LLC TOTAL     ACCESS:      23313  HIT:       7897  MISS:      15416
LLC LOAD      ACCESS:      14800  HIT:        509  MISS:      14291
LLC RFO       ACCESS:          0  HIT:          0  MISS:          0
LLC PREFETCH  ACCESS:          0  HIT:          0  MISS:          0
LLC WRITEBACK ACCESS:       8511  HIT:       7386  MISS:       1125
Heartbeat CPU 0 instructions: 54000004 cycles: 33263482 heartbeat IPC: 0.693231 cumulative IPC: 0.694747 (Simulation time: 1 hr 27 min 47 sec) 

Region of Interest Statistics
cpu0_DTLB TOTAL     ACCESS:    1823766  HIT:    1793949  MISS:      29817
cpu0_DTLB LOAD      ACCESS:    1650976  HIT:    1624117  MISS:      26859
cpu0_DTLB RFO       ACCESS:     172790  HIT:     169832  MISS:       2958
cpu0_DTLB PREFETCH  ACCESS:          0  HIT:          0  MISS:          0
cpu0_DTLB WRITEBACK ACCESS:          0  HIT:          0  MISS:          0
cpu0_ITLB TOTAL     ACCESS:      76009  HIT:      76009  MISS:          0
cpu0_ITLB LOAD      ACCESS:      76009  HIT:      76009  MISS:          0
cpu0_ITLB RFO       ACCESS:          0  HIT:          0  MISS:          0
cpu0_ITLB PREFETCH  ACCESS:          0  HIT:          0  MISS:          0
cpu0_ITLB WRITEBACK ACCESS:          0  HIT:          0  MISS:          0
cpu0_L1I TOTAL     ACCESS:     447686  HIT:     447686  MISS:          0
cpu0_L1I LOAD      ACCESS:     447686  HIT:     447686  MISS:          0
cpu0_L1I RFO       ACCESS:          0  HIT:          0  MISS:          0
cpu0_L1I PREFETCH  ACCESS:          0  HIT:          0  MISS:          0
cpu0_L1I WRITEBACK ACCESS:          0  HIT:          0  MISS:          0
cpu0_STLB TOTAL     ACCESS:      29817  HIT:      25507  MISS:       4310
cpu0_STLB LOAD      ACCESS:      26859  HIT:      22549  MISS:       4310
cpu0_STLB RFO       ACCESS:       2958  HIT:       2958  MISS:          0
cpu0_STLB PREFETCH  ACCESS:          0  HIT:          0  MISS:          0
cpu0_STLB WRITEBACK ACCESS:          0  HIT:          0  MISS:          0
cpu0_L1D TOTAL     ACCESS:    2139785  HIT:    2103264  MISS:      36521
cpu0_L1D LOAD      ACCESS:    1828738  HIT:    1792254  MISS:      36484
cpu0_L1D RFO       ACCESS:     306749  HIT:     306749  MISS:          0
cpu0_L1D PREFETCH  ACCESS:          0  HIT:          0  MISS:          0
cpu0_L1D WRITEBACK ACCESS:          0  HIT:          0  MISS:          0
cpu0_L2C TOTAL     ACCESS:      53693  HIT:      23903  MISS:      29790
cpu0_L2C LOAD      ACCESS:      36484  HIT:       6698  MISS:      29786
cpu0_L2C RFO       ACCESS:          0  HIT:          0  MISS:          0
cpu0_L2C PREFETCH  ACCESS:          0  HIT:          0  MISS:          0
cpu0_L2C WRITEBACK ACCESS:      17172  HIT:      17172  MISS:          0
LLC TOTAL     ACCESS:      46883  HIT:      16099  MISS:      30784
LLC LOAD      ACCESS:      29786  HIT:       1118  MISS:      28668
LLC RFO       ACCESS:          0  HIT:          0  MISS:          0
LLC PREFETCH  ACCESS:          0  HIT:          0  MISS:          0
LLC WRITEBACK ACCESS:      17093  HIT:      14978  MISS:       2115
Heartbeat CPU 0 instructions: 56000004 cycles: 36127894 heartbeat IPC: 0.698224 cumulative IPC: 0.695902 (Simulation time: 1 hr 32 min 17 sec) 

Region of Interest Statistics
cpu0_DTLB TOTAL     ACCESS:    2738061  HIT:    2697799  MISS:      40262
cpu0_DTLB LOAD      ACCESS:    2478856  HIT:    2442424  MISS:      36432
cpu0_DTLB RFO       ACCESS:     259205  HIT:     255375  MISS:       3830
cpu0_DTLB PREFETCH  ACCESS:          0  HIT:          0  MISS:          0
cpu0_DTLB WRITEBACK ACCESS:          0  HIT:          0  MISS:          0
cpu0_ITLB TOTAL     ACCESS:     113993  HIT:     113993  MISS:          0
cpu0_ITLB LOAD      ACCESS:     113993  HIT:     113993  MISS:          0
cpu0_ITLB RFO       ACCESS:          0  HIT:          0  MISS:          0
cpu0_ITLB PREFETCH  ACCESS:          0  HIT:          0  MISS:          0
cpu0_ITLB WRITEBACK ACCESS:          0  HIT:          0  MISS:          0
cpu0_L1I TOTAL     ACCESS:     671502  HIT:     671502  MISS:          0
cpu0_L1I LOAD      ACCESS:     671502  HIT:     671502  MISS:          0
cpu0_L1I RFO       ACCESS:          0  HIT:          0  MISS:          0
cpu0_L1I PREFETCH  ACCESS:          0  HIT:          0  MISS:          0
cpu0_L1I WRITEBACK ACCESS:          0  HIT:          0  MISS:          0
cpu0_STLB TOTAL     ACCESS:      40262  HIT:      33796  MISS:       6466
cpu0_STLB LOAD      ACCESS:      36432  HIT:      29966  MISS:       6466
cpu0_STLB RFO       ACCESS:       3830  HIT:       3830  MISS:          0
cpu0_STLB PREFETCH  ACCESS:          0  HIT:          0  MISS:          0
cpu0_STLB WRITEBACK ACCESS:          0  HIT:          0  MISS:          0
cpu0_L1D TOTAL     ACCESS:    3209649  HIT:    3154865  MISS:      54784
cpu0_L1D LOAD      ACCESS:    2743081  HIT:    2688352  MISS:      54729
cpu0_L1D RFO       ACCESS:     460118  HIT:     460118  MISS:          0
cpu0_L1D PREFETCH  ACCESS:          0  HIT:          0  MISS:          0
cpu0_L1D WRITEBACK ACCESS:          0  HIT:          0  MISS:          0
cpu0_L2C TOTAL     ACCESS:      80528  HIT:      35752  MISS:      44776
cpu0_L2C LOAD      ACCESS:      54729  HIT:       9958  MISS:      44771
cpu0_L2C RFO       ACCESS:          0  HIT:          0  MISS:          0
cpu0_L2C PREFETCH  ACCESS:          0  HIT:          0  MISS:          0
cpu0_L2C WRITEBACK ACCESS:      25744  HIT:      25744  MISS:          0
LLC TOTAL     ACCESS:      70488  HIT:      24166  MISS:      46322
LLC LOAD      ACCESS:      44771  HIT:       1729  MISS:      43042
LLC RFO       ACCESS:          0  HIT:          0  MISS:          0
LLC PREFETCH  ACCESS:          0  HIT:          0  MISS:          0
LLC WRITEBACK ACCESS:      25712  HIT:      22433  MISS:       3279
Heartbeat CPU 0 instructions: 58000004 cycles: 38986900 heartbeat IPC: 0.699544 cumulative IPC: 0.696809 (Simulation time: 1 hr 36 min 48 sec) 

Region of Interest Statistics
cpu0_DTLB TOTAL     ACCESS:    3651379  HIT:    3598774  MISS:      52605
cpu0_DTLB LOAD      ACCESS:    3305864  HIT:    3258069  MISS:      47795
cpu0_DTLB RFO       ACCESS:     345515  HIT:     340705  MISS:       4810
cpu0_DTLB PREFETCH  ACCESS:          0  HIT:          0  MISS:          0
cpu0_DTLB WRITEBACK ACCESS:          0  HIT:          0  MISS:          0
cpu0_ITLB TOTAL     ACCESS:     151985  HIT:     151985  MISS:          0
cpu0_ITLB LOAD      ACCESS:     151985  HIT:     151985  MISS:          0
cpu0_ITLB RFO       ACCESS:          0  HIT:          0  MISS:          0
cpu0_ITLB PREFETCH  ACCESS:          0  HIT:          0  MISS:          0
cpu0_ITLB WRITEBACK ACCESS:          0  HIT:          0  MISS:          0
cpu0_L1I TOTAL     ACCESS:     895361  HIT:     895361  MISS:          0
cpu0_L1I LOAD      ACCESS:     895361  HIT:     895361  MISS:          0
cpu0_L1I RFO       ACCESS:          0  HIT:          0  MISS:          0
cpu0_L1I PREFETCH  ACCESS:          0  HIT:          0  MISS:          0
cpu0_L1I WRITEBACK ACCESS:          0  HIT:          0  MISS:          0
cpu0_STLB TOTAL     ACCESS:      52605  HIT:      43984  MISS:       8621
cpu0_STLB LOAD      ACCESS:      47795  HIT:      39174  MISS:       8621
cpu0_STLB RFO       ACCESS:       4810  HIT:       4810  MISS:          0
cpu0_STLB PREFETCH  ACCESS:          0  HIT:          0  MISS:          0
cpu0_STLB WRITEBACK ACCESS:          0  HIT:          0  MISS:          0
cpu0_L1D TOTAL     ACCESS:    4279272  HIT:    4206226  MISS:      73046
cpu0_L1D LOAD      ACCESS:    3657183  HIT:    3584213  MISS:      72970
cpu0_L1D RFO       ACCESS:     613488  HIT:     613488  MISS:          0
cpu0_L1D PREFETCH  ACCESS:          0  HIT:          0  MISS:          0
cpu0_L1D WRITEBACK ACCESS:          0  HIT:          0  MISS:          0
cpu0_L2C TOTAL     ACCESS:     107390  HIT:      47789  MISS:      59601
cpu0_L2C LOAD      ACCESS:      72970  HIT:      13376  MISS:      59594
cpu0_L2C RFO       ACCESS:          0  HIT:          0  MISS:          0
cpu0_L2C PREFETCH  ACCESS:          0  HIT:          0  MISS:          0
cpu0_L2C WRITEBACK ACCESS:      34344  HIT:      34344  MISS:          0
LLC TOTAL     ACCESS:      93848  HIT:      32265  MISS:      61583
LLC LOAD      ACCESS:      59594  HIT:       2229  MISS:      57365
LLC RFO       ACCESS:          0  HIT:          0  MISS:          0
LLC PREFETCH  ACCESS:          0  HIT:          0  MISS:          0
LLC WRITEBACK ACCESS:      34247  HIT:      30031  MISS:       4216
Heartbeat CPU 0 instructions: 60000001 cycles: 41844586 heartbeat IPC: 0.699866 cumulative IPC: 0.697418 (Simulation time: 1 hr 41 min 17 sec) 

Region of Interest Statistics
cpu0_DTLB TOTAL     ACCESS:    4563957  HIT:    4497317  MISS:      66640
cpu0_DTLB LOAD      ACCESS:    4132121  HIT:    4071527  MISS:      60594
cpu0_DTLB RFO       ACCESS:     431836  HIT:     425790  MISS:       6046
cpu0_DTLB PREFETCH  ACCESS:          0  HIT:          0  MISS:          0
cpu0_DTLB WRITEBACK ACCESS:          0  HIT:          0  MISS:          0
cpu0_ITLB TOTAL     ACCESS:     189973  HIT:     189973  MISS:          0
cpu0_ITLB LOAD      ACCESS:     189973  HIT:     189973  MISS:          0
cpu0_ITLB RFO       ACCESS:          0  HIT:          0  MISS:          0
cpu0_ITLB PREFETCH  ACCESS:          0  HIT:          0  MISS:          0
cpu0_ITLB WRITEBACK ACCESS:          0  HIT:          0  MISS:          0
cpu0_L1I TOTAL     ACCESS:    1119291  HIT:    1119291  MISS:          0
cpu0_L1I LOAD      ACCESS:    1119291  HIT:    1119291  MISS:          0
cpu0_L1I RFO       ACCESS:          0  HIT:          0  MISS:          0
cpu0_L1I PREFETCH  ACCESS:          0  HIT:          0  MISS:          0
cpu0_L1I WRITEBACK ACCESS:          0  HIT:          0  MISS:          0
cpu0_STLB TOTAL     ACCESS:      66640  HIT:      55862  MISS:      10778
cpu0_STLB LOAD      ACCESS:      60594  HIT:      49816  MISS:      10778
cpu0_STLB RFO       ACCESS:       6046  HIT:       6046  MISS:          0
cpu0_STLB PREFETCH  ACCESS:          0  HIT:          0  MISS:          0
cpu0_STLB WRITEBACK ACCESS:          0  HIT:          0  MISS:          0
cpu0_L1D TOTAL     ACCESS:    5348694  HIT:    5257394  MISS:      91300
cpu0_L1D LOAD      ACCESS:    4571102  HIT:    4479896  MISS:      91206
cpu0_L1D RFO       ACCESS:     766839  HIT:     766839  MISS:          0
cpu0_L1D PREFETCH  ACCESS:          0  HIT:          0  MISS:          0
cpu0_L1D WRITEBACK ACCESS:          0  HIT:          0  MISS:          0
cpu0_L2C TOTAL     ACCESS:     134222  HIT:      59750  MISS:      74472
cpu0_L2C LOAD      ACCESS:      91206  HIT:      16742  MISS:      74464
cpu0_L2C RFO       ACCESS:          0  HIT:          0  MISS:          0
cpu0_L2C PREFETCH  ACCESS:          0  HIT:          0  MISS:          0
cpu0_L2C WRITEBACK ACCESS:      42922  HIT:      42922  MISS:          0
LLC TOTAL     ACCESS:     117282  HIT:      40272  MISS:      77010
LLC LOAD      ACCESS:      74464  HIT:       2764  MISS:      71700
LLC RFO       ACCESS:          0  HIT:          0  MISS:          0
LLC PREFETCH  ACCESS:          0  HIT:          0  MISS:          0
LLC WRITEBACK ACCESS:      42810  HIT:      37502  MISS:       5308
Heartbeat CPU 0 instructions: 62000001 cycles: 44719738 heartbeat IPC: 0.695615 cumulative IPC: 0.697117 (Simulation time: 1 hr 45 min 45 sec) 

Region of Interest Statistics
cpu0_DTLB TOTAL     ACCESS:    5476655  HIT:    5394601  MISS:      82054
cpu0_DTLB LOAD      ACCESS:    4958411  HIT:    4883833  MISS:      74578
cpu0_DTLB RFO       ACCESS:     518244  HIT:     510768  MISS:       7476
cpu0_DTLB PREFETCH  ACCESS:          0  HIT:          0  MISS:          0
cpu0_DTLB WRITEBACK ACCESS:          0  HIT:          0  MISS:          0
cpu0_ITLB TOTAL     ACCESS:     227959  HIT:     227959  MISS:          0
cpu0_ITLB LOAD      ACCESS:     227959  HIT:     227959  MISS:          0
cpu0_ITLB RFO       ACCESS:          0  HIT:          0  MISS:          0
cpu0_ITLB PREFETCH  ACCESS:          0  HIT:          0  MISS:          0
cpu0_ITLB WRITEBACK ACCESS:          0  HIT:          0  MISS:          0
cpu0_L1I TOTAL     ACCESS:    1343047  HIT:    1343047  MISS:          0
cpu0_L1I LOAD      ACCESS:    1343047  HIT:    1343047  MISS:          0
cpu0_L1I RFO       ACCESS:          0  HIT:          0  MISS:          0
cpu0_L1I PREFETCH  ACCESS:          0  HIT:          0  MISS:          0
cpu0_L1I WRITEBACK ACCESS:          0  HIT:          0  MISS:          0
cpu0_STLB TOTAL     ACCESS:      82054  HIT:      69118  MISS:      12936
cpu0_STLB LOAD      ACCESS:      74578  HIT:      61642  MISS:      12936
cpu0_STLB RFO       ACCESS:       7476  HIT:       7476  MISS:          0
cpu0_STLB PREFETCH  ACCESS:          0  HIT:          0  MISS:          0
cpu0_STLB WRITEBACK ACCESS:          0  HIT:          0  MISS:          0
cpu0_L1D TOTAL     ACCESS:    6418284  HIT:    6308709  MISS:     109575
cpu0_L1D LOAD      ACCESS:    5485148  HIT:    5375690  MISS:     109458
cpu0_L1D RFO       ACCESS:     920229  HIT:     920229  MISS:          0
cpu0_L1D PREFETCH  ACCESS:          0  HIT:          0  MISS:          0
cpu0_L1D WRITEBACK ACCESS:          0  HIT:          0  MISS:          0
cpu0_L2C TOTAL     ACCESS:     161065  HIT:      71707  MISS:      89358
cpu0_L2C LOAD      ACCESS:     109458  HIT:      20112  MISS:      89346
cpu0_L2C RFO       ACCESS:          0  HIT:          0  MISS:          0
cpu0_L2C PREFETCH  ACCESS:          0  HIT:          0  MISS:          0
cpu0_L2C WRITEBACK ACCESS:      51490  HIT:      51490  MISS:          0
LLC TOTAL     ACCESS:     140885  HIT:      48430  MISS:      92455
LLC LOAD      ACCESS:      89346  HIT:       3312  MISS:      86034
LLC RFO       ACCESS:          0  HIT:          0  MISS:          0
LLC PREFETCH  ACCESS:          0  HIT:          0  MISS:          0
LLC WRITEBACK ACCESS:      51527  HIT:      45110  MISS:       6417
Heartbeat CPU 0 instructions: 64000001 cycles: 47590586 heartbeat IPC: 0.696658 cumulative IPC: 0.697052 (Simulation time: 1 hr 50 min 19 sec) 

Region of Interest Statistics
cpu0_DTLB TOTAL     ACCESS:    6389553  HIT:    6293375  MISS:      96178
cpu0_DTLB LOAD      ACCESS:    5784872  HIT:    5697380  MISS:      87492
cpu0_DTLB RFO       ACCESS:     604681  HIT:     595995  MISS:       8686
cpu0_DTLB PREFETCH  ACCESS:          0  HIT:          0  MISS:          0
cpu0_DTLB WRITEBACK ACCESS:          0  HIT:          0  MISS:          0
cpu0_ITLB TOTAL     ACCESS:     265946  HIT:     265946  MISS:          0
cpu0_ITLB LOAD      ACCESS:     265946  HIT:     265946  MISS:          0
cpu0_ITLB RFO       ACCESS:          0  HIT:          0  MISS:          0
cpu0_ITLB PREFETCH  ACCESS:          0  HIT:          0  MISS:          0
cpu0_ITLB WRITEBACK ACCESS:          0  HIT:          0  MISS:          0
cpu0_L1I TOTAL     ACCESS:    1566884  HIT:    1566884  MISS:          0
cpu0_L1I LOAD      ACCESS:    1566884  HIT:    1566884  MISS:          0
cpu0_L1I RFO       ACCESS:          0  HIT:          0  MISS:          0
cpu0_L1I PREFETCH  ACCESS:          0  HIT:          0  MISS:          0
cpu0_L1I WRITEBACK ACCESS:          0  HIT:          0  MISS:          0
cpu0_STLB TOTAL     ACCESS:      96178  HIT:      81087  MISS:      15091
cpu0_STLB LOAD      ACCESS:      87492  HIT:      72401  MISS:      15091
cpu0_STLB RFO       ACCESS:       8686  HIT:       8686  MISS:          0
cpu0_STLB PREFETCH  ACCESS:          0  HIT:          0  MISS:          0
cpu0_STLB WRITEBACK ACCESS:          0  HIT:          0  MISS:          0
cpu0_L1D TOTAL     ACCESS:    7488289  HIT:    7360456  MISS:     127833
cpu0_L1D LOAD      ACCESS:    6399639  HIT:    6271939  MISS:     127700
cpu0_L1D RFO       ACCESS:    1073598  HIT:    1073598  MISS:          0
cpu0_L1D PREFETCH  ACCESS:          0  HIT:          0  MISS:          0
cpu0_L1D WRITEBACK ACCESS:          0  HIT:          0  MISS:          0
cpu0_L2C TOTAL     ACCESS:     187922  HIT:      83768  MISS:     104154
cpu0_L2C LOAD      ACCESS:     127700  HIT:      23558  MISS:     104142
cpu0_L2C RFO       ACCESS:          0  HIT:          0  MISS:          0
cpu0_L2C PREFETCH  ACCESS:          0  HIT:          0  MISS:          0
cpu0_L2C WRITEBACK ACCESS:      60089  HIT:      60089  MISS:          0
LLC TOTAL     ACCESS:     164147  HIT:      56267  MISS:     107880
LLC LOAD      ACCESS:     104142  HIT:       3799  MISS:     100343
LLC RFO       ACCESS:          0  HIT:          0  MISS:          0
LLC PREFETCH  ACCESS:          0  HIT:          0  MISS:          0
LLC WRITEBACK ACCESS:      59993  HIT:      52460  MISS:       7533
Heartbeat CPU 0 instructions: 66000003 cycles: 50454973 heartbeat IPC: 0.69823 cumulative IPC: 0.697199 (Simulation time: 1 hr 54 min 48 sec) 

Region of Interest Statistics
cpu0_DTLB TOTAL     ACCESS:    7302639  HIT:    7194363  MISS:     108276
cpu0_DTLB LOAD      ACCESS:    6611519  HIT:    6513284  MISS:      98235
cpu0_DTLB RFO       ACCESS:     691120  HIT:     681079  MISS:      10041
cpu0_DTLB PREFETCH  ACCESS:          0  HIT:          0  MISS:          0
cpu0_DTLB WRITEBACK ACCESS:          0  HIT:          0  MISS:          0
cpu0_ITLB TOTAL     ACCESS:     303959  HIT:     303959  MISS:          0
cpu0_ITLB LOAD      ACCESS:     303959  HIT:     303959  MISS:          0
cpu0_ITLB RFO       ACCESS:          0  HIT:          0  MISS:          0
cpu0_ITLB PREFETCH  ACCESS:          0  HIT:          0  MISS:          0
cpu0_ITLB WRITEBACK ACCESS:          0  HIT:          0  MISS:          0
cpu0_L1I TOTAL     ACCESS:    1790770  HIT:    1790770  MISS:          0
cpu0_L1I LOAD      ACCESS:    1790770  HIT:    1790770  MISS:          0
cpu0_L1I RFO       ACCESS:          0  HIT:          0  MISS:          0
cpu0_L1I PREFETCH  ACCESS:          0  HIT:          0  MISS:          0
cpu0_L1I WRITEBACK ACCESS:          0  HIT:          0  MISS:          0
cpu0_STLB TOTAL     ACCESS:     108276  HIT:      91032  MISS:      17244
cpu0_STLB LOAD      ACCESS:      98235  HIT:      80991  MISS:      17244
cpu0_STLB RFO       ACCESS:      10041  HIT:      10041  MISS:          0
cpu0_STLB PREFETCH  ACCESS:          0  HIT:          0  MISS:          0
cpu0_STLB WRITEBACK ACCESS:          0  HIT:          0  MISS:          0
cpu0_L1D TOTAL     ACCESS:    8558304  HIT:    8412214  MISS:     146090
cpu0_L1D LOAD      ACCESS:    7314146  HIT:    7168206  MISS:     145940
cpu0_L1D RFO       ACCESS:    1226958  HIT:    1226958  MISS:          0
cpu0_L1D PREFETCH  ACCESS:          0  HIT:          0  MISS:          0
cpu0_L1D WRITEBACK ACCESS:          0  HIT:          0  MISS:          0
cpu0_L2C TOTAL     ACCESS:     214767  HIT:      95616  MISS:     119151
cpu0_L2C LOAD      ACCESS:     145940  HIT:      26801  MISS:     119139
cpu0_L2C RFO       ACCESS:          0  HIT:          0  MISS:          0
cpu0_L2C PREFETCH  ACCESS:          0  HIT:          0  MISS:          0
cpu0_L2C WRITEBACK ACCESS:      68677  HIT:      68677  MISS:          0
LLC TOTAL     ACCESS:     187800  HIT:      64543  MISS:     123257
LLC LOAD      ACCESS:     119139  HIT:       4446  MISS:     114693
LLC RFO       ACCESS:          0  HIT:          0  MISS:          0
LLC PREFETCH  ACCESS:          0  HIT:          0  MISS:          0
LLC WRITEBACK ACCESS:      68649  HIT:      60089  MISS:       8560
Heartbeat CPU 0 instructions: 68000001 cycles: 53315945 heartbeat IPC: 0.699062 cumulative IPC: 0.697405 (Simulation time: 1 hr 59 min 18 sec) 

Region of Interest Statistics
cpu0_DTLB TOTAL     ACCESS:    8215840  HIT:    8095753  MISS:     120087
cpu0_DTLB LOAD      ACCESS:    7438373  HIT:    7329230  MISS:     109143
cpu0_DTLB RFO       ACCESS:     777467  HIT:     766523  MISS:      10944
cpu0_DTLB PREFETCH  ACCESS:          0  HIT:          0  MISS:          0
cpu0_DTLB WRITEBACK ACCESS:          0  HIT:          0  MISS:          0
cpu0_ITLB TOTAL     ACCESS:     341962  HIT:     341962  MISS:          0
cpu0_ITLB LOAD      ACCESS:     341962  HIT:     341962  MISS:          0
cpu0_ITLB RFO       ACCESS:          0  HIT:          0  MISS:          0
cpu0_ITLB PREFETCH  ACCESS:          0  HIT:          0  MISS:          0
cpu0_ITLB WRITEBACK ACCESS:          0  HIT:          0  MISS:          0
cpu0_L1I TOTAL     ACCESS:    2014621  HIT:    2014621  MISS:          0
cpu0_L1I LOAD      ACCESS:    2014621  HIT:    2014621  MISS:          0
cpu0_L1I RFO       ACCESS:          0  HIT:          0  MISS:          0
cpu0_L1I PREFETCH  ACCESS:          0  HIT:          0  MISS:          0
cpu0_L1I WRITEBACK ACCESS:          0  HIT:          0  MISS:          0
cpu0_STLB TOTAL     ACCESS:     120088  HIT:     100689  MISS:      19399
cpu0_STLB LOAD      ACCESS:     109144  HIT:      89745  MISS:      19399
cpu0_STLB RFO       ACCESS:      10944  HIT:      10944  MISS:          0
cpu0_STLB PREFETCH  ACCESS:          0  HIT:          0  MISS:          0
cpu0_STLB WRITEBACK ACCESS:          0  HIT:          0  MISS:          0
cpu0_L1D TOTAL     ACCESS:    9627801  HIT:    9463450  MISS:     164351
cpu0_L1D LOAD      ACCESS:    8228112  HIT:    8063929  MISS:     164183
cpu0_L1D RFO       ACCESS:    1380339  HIT:    1380339  MISS:          0
cpu0_L1D PREFETCH  ACCESS:          0  HIT:          0  MISS:          0
cpu0_L1D WRITEBACK ACCESS:          0  HIT:          0  MISS:          0
cpu0_L2C TOTAL     ACCESS:     241593  HIT:     107520  MISS:     134073
cpu0_L2C LOAD      ACCESS:     164183  HIT:      30124  MISS:     134059
cpu0_L2C RFO       ACCESS:          0  HIT:          0  MISS:          0
cpu0_L2C PREFETCH  ACCESS:          0  HIT:          0  MISS:          0
cpu0_L2C WRITEBACK ACCESS:      77242  HIT:      77242  MISS:          0
LLC TOTAL     ACCESS:     211303  HIT:      72518  MISS:     138785
LLC LOAD      ACCESS:     134059  HIT:       5022  MISS:     129037
LLC RFO       ACCESS:          0  HIT:          0  MISS:          0
LLC PREFETCH  ACCESS:          0  HIT:          0  MISS:          0
LLC WRITEBACK ACCESS:      77230  HIT:      67488  MISS:       9742
Heartbeat CPU 0 instructions: 70000004 cycles: 56177941 heartbeat IPC: 0.698814 cumulative IPC: 0.697546 (Simulation time: 2 hr 3 min 48 sec) 

Region of Interest Statistics
cpu0_DTLB TOTAL     ACCESS:    9129656  HIT:    8996186  MISS:     133470
cpu0_DTLB LOAD      ACCESS:    8265898  HIT:    8144451  MISS:     121447
cpu0_DTLB RFO       ACCESS:     863758  HIT:     851735  MISS:      12023
cpu0_DTLB PREFETCH  ACCESS:          0  HIT:          0  MISS:          0
cpu0_DTLB WRITEBACK ACCESS:          0  HIT:          0  MISS:          0
cpu0_ITLB TOTAL     ACCESS:     379940  HIT:     379940  MISS:          0
cpu0_ITLB LOAD      ACCESS:     379940  HIT:     379940  MISS:          0
cpu0_ITLB RFO       ACCESS:          0  HIT:          0  MISS:          0
cpu0_ITLB PREFETCH  ACCESS:          0  HIT:          0  MISS:          0
cpu0_ITLB WRITEBACK ACCESS:          0  HIT:          0  MISS:          0
cpu0_L1I TOTAL     ACCESS:    2238518  HIT:    2238518  MISS:          0
cpu0_L1I LOAD      ACCESS:    2238518  HIT:    2238518  MISS:          0
cpu0_L1I RFO       ACCESS:          0  HIT:          0  MISS:          0
cpu0_L1I PREFETCH  ACCESS:          0  HIT:          0  MISS:          0
cpu0_L1I WRITEBACK ACCESS:          0  HIT:          0  MISS:          0
cpu0_STLB TOTAL     ACCESS:     133470  HIT:     111912  MISS:      21558
cpu0_STLB LOAD      ACCESS:     121447  HIT:      99889  MISS:      21558
cpu0_STLB RFO       ACCESS:      12023  HIT:      12023  MISS:          0
cpu0_STLB PREFETCH  ACCESS:          0  HIT:          0  MISS:          0
cpu0_STLB WRITEBACK ACCESS:          0  HIT:          0  MISS:          0
cpu0_L1D TOTAL     ACCESS:   10697730  HIT:   10515109  MISS:     182621
cpu0_L1D LOAD      ACCESS:    9142507  HIT:    8960077  MISS:     182430
cpu0_L1D RFO       ACCESS:    1533718  HIT:    1533718  MISS:          0
cpu0_L1D PREFETCH  ACCESS:          0  HIT:          0  MISS:          0
cpu0_L1D WRITEBACK ACCESS:          0  HIT:          0  MISS:          0
cpu0_L2C TOTAL     ACCESS:     268449  HIT:     119441  MISS:     149008
cpu0_L2C LOAD      ACCESS:     182430  HIT:      33439  MISS:     148991
cpu0_L2C RFO       ACCESS:          0  HIT:          0  MISS:          0
cpu0_L2C PREFETCH  ACCESS:          0  HIT:          0  MISS:          0
cpu0_L2C WRITEBACK ACCESS:      85828  HIT:      85828  MISS:          0
LLC TOTAL     ACCESS:     234793  HIT:      80621  MISS:     154172
LLC LOAD      ACCESS:     148991  HIT:       5617  MISS:     143374
LLC RFO       ACCESS:          0  HIT:          0  MISS:          0
LLC PREFETCH  ACCESS:          0  HIT:          0  MISS:          0
LLC WRITEBACK ACCESS:      85785  HIT:      74996  MISS:      10789
Heartbeat CPU 0 instructions: 72000000 cycles: 59039019 heartbeat IPC: 0.699036 cumulative IPC: 0.697681 (Simulation time: 2 hr 8 min 14 sec) 

Region of Interest Statistics
cpu0_DTLB TOTAL     ACCESS:   10042496  HIT:    9895658  MISS:     146838
cpu0_DTLB LOAD      ACCESS:    9092417  HIT:    8958665  MISS:     133752
cpu0_DTLB RFO       ACCESS:     950079  HIT:     936993  MISS:      13086
cpu0_DTLB PREFETCH  ACCESS:          0  HIT:          0  MISS:          0
cpu0_DTLB WRITEBACK ACCESS:          0  HIT:          0  MISS:          0
cpu0_ITLB TOTAL     ACCESS:     417935  HIT:     417935  MISS:          0
cpu0_ITLB LOAD      ACCESS:     417935  HIT:     417935  MISS:          0
cpu0_ITLB RFO       ACCESS:          0  HIT:          0  MISS:          0
cpu0_ITLB PREFETCH  ACCESS:          0  HIT:          0  MISS:          0
cpu0_ITLB WRITEBACK ACCESS:          0  HIT:          0  MISS:          0
cpu0_L1I TOTAL     ACCESS:    2462311  HIT:    2462311  MISS:          0
cpu0_L1I LOAD      ACCESS:    2462311  HIT:    2462311  MISS:          0
cpu0_L1I RFO       ACCESS:          0  HIT:          0  MISS:          0
cpu0_L1I PREFETCH  ACCESS:          0  HIT:          0  MISS:          0
cpu0_L1I WRITEBACK ACCESS:          0  HIT:          0  MISS:          0
cpu0_STLB TOTAL     ACCESS:     146838  HIT:     123128  MISS:      23710
cpu0_STLB LOAD      ACCESS:     133752  HIT:     110042  MISS:      23710
cpu0_STLB RFO       ACCESS:      13086  HIT:      13086  MISS:          0
cpu0_STLB PREFETCH  ACCESS:          0  HIT:          0  MISS:          0
cpu0_STLB WRITEBACK ACCESS:          0  HIT:          0  MISS:          0
cpu0_L1D TOTAL     ACCESS:   11766813  HIT:   11565937  MISS:     200876
cpu0_L1D LOAD      ACCESS:   10056092  HIT:    9855426  MISS:     200666
cpu0_L1D RFO       ACCESS:    1687069  HIT:    1687069  MISS:          0
cpu0_L1D PREFETCH  ACCESS:          0  HIT:          0  MISS:          0
cpu0_L1D WRITEBACK ACCESS:          0  HIT:          0  MISS:          0
cpu0_L2C TOTAL     ACCESS:     295299  HIT:     131377  MISS:     163922
cpu0_L2C LOAD      ACCESS:     200666  HIT:      36763  MISS:     163903
cpu0_L2C RFO       ACCESS:          0  HIT:          0  MISS:          0
cpu0_L2C PREFETCH  ACCESS:          0  HIT:          0  MISS:          0
cpu0_L2C WRITEBACK ACCESS:      94423  HIT:      94423  MISS:          0
LLC TOTAL     ACCESS:     258384  HIT:      88770  MISS:     169614
LLC LOAD      ACCESS:     163903  HIT:       6201  MISS:     157702
LLC RFO       ACCESS:          0  HIT:          0  MISS:          0
LLC PREFETCH  ACCESS:          0  HIT:          0  MISS:          0
LLC WRITEBACK ACCESS:      94462  HIT:      82561  MISS:      11901
Heartbeat CPU 0 instructions: 74000000 cycles: 61909934 heartbeat IPC: 0.696642 cumulative IPC: 0.697594 (Simulation time: 2 hr 12 min 42 sec) 

Region of Interest Statistics
cpu0_DTLB TOTAL     ACCESS:   10954327  HIT:   10791651  MISS:     162676
cpu0_DTLB LOAD      ACCESS:    9917822  HIT:    9769738  MISS:     148084
cpu0_DTLB RFO       ACCESS:    1036505  HIT:    1021913  MISS:      14592
cpu0_DTLB PREFETCH  ACCESS:          0  HIT:          0  MISS:          0
cpu0_DTLB WRITEBACK ACCESS:          0  HIT:          0  MISS:          0
cpu0_ITLB TOTAL     ACCESS:     455937  HIT:     455937  MISS:          0
cpu0_ITLB LOAD      ACCESS:     455937  HIT:     455937  MISS:          0
cpu0_ITLB RFO       ACCESS:          0  HIT:          0  MISS:          0
cpu0_ITLB PREFETCH  ACCESS:          0  HIT:          0  MISS:          0
cpu0_ITLB WRITEBACK ACCESS:          0  HIT:          0  MISS:          0
cpu0_L1I TOTAL     ACCESS:    2686124  HIT:    2686124  MISS:          0
cpu0_L1I LOAD      ACCESS:    2686124  HIT:    2686124  MISS:          0
cpu0_L1I RFO       ACCESS:          0  HIT:          0  MISS:          0
cpu0_L1I PREFETCH  ACCESS:          0  HIT:          0  MISS:          0
cpu0_L1I WRITEBACK ACCESS:          0  HIT:          0  MISS:          0
cpu0_STLB TOTAL     ACCESS:     162676  HIT:     136810  MISS:      25866
cpu0_STLB LOAD      ACCESS:     148084  HIT:     122218  MISS:      25866
cpu0_STLB RFO       ACCESS:      14592  HIT:      14592  MISS:          0
cpu0_STLB PREFETCH  ACCESS:          0  HIT:          0  MISS:          0
cpu0_STLB WRITEBACK ACCESS:          0  HIT:          0  MISS:          0
cpu0_L1D TOTAL     ACCESS:   12836834  HIT:   12617703  MISS:     219131
cpu0_L1D LOAD      ACCESS:   10970595  HIT:   10751691  MISS:     218904
cpu0_L1D RFO       ACCESS:    1840438  HIT:    1840438  MISS:          0
cpu0_L1D PREFETCH  ACCESS:          0  HIT:          0  MISS:          0
cpu0_L1D WRITEBACK ACCESS:          0  HIT:          0  MISS:          0
cpu0_L2C TOTAL     ACCESS:     322135  HIT:     143238  MISS:     178897
cpu0_L2C LOAD      ACCESS:     218904  HIT:      40026  MISS:     178878
cpu0_L2C RFO       ACCESS:          0  HIT:          0  MISS:          0
cpu0_L2C PREFETCH  ACCESS:          0  HIT:          0  MISS:          0
cpu0_L2C WRITEBACK ACCESS:     103004  HIT:     103004  MISS:          0
LLC TOTAL     ACCESS:     281857  HIT:      96880  MISS:     184977
LLC LOAD      ACCESS:     178878  HIT:       6811  MISS:     172067
LLC RFO       ACCESS:          0  HIT:          0  MISS:          0
LLC PREFETCH  ACCESS:          0  HIT:          0  MISS:          0
LLC WRITEBACK ACCESS:     102960  HIT:      90061  MISS:      12899
Heartbeat CPU 0 instructions: 76000000 cycles: 64787666 heartbeat IPC: 0.694992 cumulative IPC: 0.697393 (Simulation time: 2 hr 17 min 15 sec) 

Region of Interest Statistics
cpu0_DTLB TOTAL     ACCESS:   11866730  HIT:   11689884  MISS:     176846
cpu0_DTLB LOAD      ACCESS:   10743864  HIT:   10583358  MISS:     160506
cpu0_DTLB RFO       ACCESS:    1122866  HIT:    1106526  MISS:      16340
cpu0_DTLB PREFETCH  ACCESS:          0  HIT:          0  MISS:          0
cpu0_DTLB WRITEBACK ACCESS:          0  HIT:          0  MISS:          0
cpu0_ITLB TOTAL     ACCESS:     493930  HIT:     493930  MISS:          0
cpu0_ITLB LOAD      ACCESS:     493930  HIT:     493930  MISS:          0
cpu0_ITLB RFO       ACCESS:          0  HIT:          0  MISS:          0
cpu0_ITLB PREFETCH  ACCESS:          0  HIT:          0  MISS:          0
cpu0_ITLB WRITEBACK ACCESS:          0  HIT:          0  MISS:          0
cpu0_L1I TOTAL     ACCESS:    2909967  HIT:    2909967  MISS:          0
cpu0_L1I LOAD      ACCESS:    2909967  HIT:    2909967  MISS:          0
cpu0_L1I RFO       ACCESS:          0  HIT:          0  MISS:          0
cpu0_L1I PREFETCH  ACCESS:          0  HIT:          0  MISS:          0
cpu0_L1I WRITEBACK ACCESS:          0  HIT:          0  MISS:          0
cpu0_STLB TOTAL     ACCESS:     176846  HIT:     148821  MISS:      28025
cpu0_STLB LOAD      ACCESS:     160506  HIT:     132481  MISS:      28025
cpu0_STLB RFO       ACCESS:      16340  HIT:      16340  MISS:          0
cpu0_STLB PREFETCH  ACCESS:          0  HIT:          0  MISS:          0
cpu0_STLB WRITEBACK ACCESS:          0  HIT:          0  MISS:          0
cpu0_L1D TOTAL     ACCESS:   13906634  HIT:   13669227  MISS:     237407
cpu0_L1D LOAD      ACCESS:   11884848  HIT:   11647687  MISS:     237161
cpu0_L1D RFO       ACCESS:    1993828  HIT:    1993828  MISS:          0
cpu0_L1D PREFETCH  ACCESS:          0  HIT:          0  MISS:          0
cpu0_L1D WRITEBACK ACCESS:          0  HIT:          0  MISS:          0
cpu0_L2C TOTAL     ACCESS:     348988  HIT:     155169  MISS:     193819
cpu0_L2C LOAD      ACCESS:     237161  HIT:      43363  MISS:     193798
cpu0_L2C RFO       ACCESS:          0  HIT:          0  MISS:          0
cpu0_L2C PREFETCH  ACCESS:          0  HIT:          0  MISS:          0
cpu0_L2C WRITEBACK ACCESS:     111581  HIT:     111581  MISS:          0
LLC TOTAL     ACCESS:     305357  HIT:     104975  MISS:     200382
LLC LOAD      ACCESS:     193798  HIT:       7396  MISS:     186402
LLC RFO       ACCESS:          0  HIT:          0  MISS:          0
LLC PREFETCH  ACCESS:          0  HIT:          0  MISS:          0
LLC WRITEBACK ACCESS:     111538  HIT:      97571  MISS:      13967
Heartbeat CPU 0 instructions: 78000000 cycles: 67648196 heartbeat IPC: 0.699171 cumulative IPC: 0.69752 (Simulation time: 2 hr 21 min 42 sec) 

Region of Interest Statistics
cpu0_DTLB TOTAL     ACCESS:   12781497  HIT:   12594155  MISS:     187342
cpu0_DTLB LOAD      ACCESS:   11572248  HIT:   11401995  MISS:     170253
cpu0_DTLB RFO       ACCESS:    1209249  HIT:    1192160  MISS:      17089
cpu0_DTLB PREFETCH  ACCESS:          0  HIT:          0  MISS:          0
cpu0_DTLB WRITEBACK ACCESS:          0  HIT:          0  MISS:          0
cpu0_ITLB TOTAL     ACCESS:     531923  HIT:     531923  MISS:          0
cpu0_ITLB LOAD      ACCESS:     531923  HIT:     531923  MISS:          0
cpu0_ITLB RFO       ACCESS:          0  HIT:          0  MISS:          0
cpu0_ITLB PREFETCH  ACCESS:          0  HIT:          0  MISS:          0
cpu0_ITLB WRITEBACK ACCESS:          0  HIT:          0  MISS:          0
cpu0_L1I TOTAL     ACCESS:    3133788  HIT:    3133788  MISS:          0
cpu0_L1I LOAD      ACCESS:    3133788  HIT:    3133788  MISS:          0
cpu0_L1I RFO       ACCESS:          0  HIT:          0  MISS:          0
cpu0_L1I PREFETCH  ACCESS:          0  HIT:          0  MISS:          0
cpu0_L1I WRITEBACK ACCESS:          0  HIT:          0  MISS:          0
cpu0_STLB TOTAL     ACCESS:     187342  HIT:     157165  MISS:      30177
cpu0_STLB LOAD      ACCESS:     170253  HIT:     140076  MISS:      30177
cpu0_STLB RFO       ACCESS:      17089  HIT:      17089  MISS:          0
cpu0_STLB PREFETCH  ACCESS:          0  HIT:          0  MISS:          0
cpu0_STLB WRITEBACK ACCESS:          0  HIT:          0  MISS:          0
cpu0_L1D TOTAL     ACCESS:   14976391  HIT:   14720737  MISS:     255654
cpu0_L1D LOAD      ACCESS:   12799102  HIT:   12543713  MISS:     255389
cpu0_L1D RFO       ACCESS:    2147183  HIT:    2147183  MISS:          0
cpu0_L1D PREFETCH  ACCESS:          0  HIT:          0  MISS:          0
cpu0_L1D WRITEBACK ACCESS:          0  HIT:          0  MISS:          0
cpu0_L2C TOTAL     ACCESS:     375818  HIT:     167156  MISS:     208662
cpu0_L2C LOAD      ACCESS:     255389  HIT:      46749  MISS:     208640
cpu0_L2C RFO       ACCESS:          0  HIT:          0  MISS:          0
cpu0_L2C PREFETCH  ACCESS:          0  HIT:          0  MISS:          0
cpu0_L2C WRITEBACK ACCESS:     120164  HIT:     120164  MISS:          0
LLC TOTAL     ACCESS:     328756  HIT:     113106  MISS:     215650
LLC LOAD      ACCESS:     208640  HIT:       7915  MISS:     200725
LLC RFO       ACCESS:          0  HIT:          0  MISS:          0
LLC PREFETCH  ACCESS:          0  HIT:          0  MISS:          0
LLC WRITEBACK ACCESS:     120094  HIT:     105182  MISS:      14912
Heartbeat CPU 0 instructions: 80000003 cycles: 70511764 heartbeat IPC: 0.69843 cumulative IPC: 0.697581 (Simulation time: 2 hr 26 min 10 sec) 

Region of Interest Statistics
cpu0_DTLB TOTAL     ACCESS:   13694757  HIT:   13494691  MISS:     200066
cpu0_DTLB LOAD      ACCESS:   12399236  HIT:   12217243  MISS:     181993
cpu0_DTLB RFO       ACCESS:    1295521  HIT:    1277448  MISS:      18073
cpu0_DTLB PREFETCH  ACCESS:          0  HIT:          0  MISS:          0
cpu0_DTLB WRITEBACK ACCESS:          0  HIT:          0  MISS:          0
cpu0_ITLB TOTAL     ACCESS:     569900  HIT:     569900  MISS:          0
cpu0_ITLB LOAD      ACCESS:     569900  HIT:     569900  MISS:          0
cpu0_ITLB RFO       ACCESS:          0  HIT:          0  MISS:          0
cpu0_ITLB PREFETCH  ACCESS:          0  HIT:          0  MISS:          0
cpu0_ITLB WRITEBACK ACCESS:          0  HIT:          0  MISS:          0
cpu0_L1I TOTAL     ACCESS:    3357683  HIT:    3357683  MISS:          0
cpu0_L1I LOAD      ACCESS:    3357683  HIT:    3357683  MISS:          0
cpu0_L1I RFO       ACCESS:          0  HIT:          0  MISS:          0
cpu0_L1I PREFETCH  ACCESS:          0  HIT:          0  MISS:          0
cpu0_L1I WRITEBACK ACCESS:          0  HIT:          0  MISS:          0
cpu0_STLB TOTAL     ACCESS:     200066  HIT:     167731  MISS:      32335
cpu0_STLB LOAD      ACCESS:     181993  HIT:     149658  MISS:      32335
cpu0_STLB RFO       ACCESS:      18073  HIT:      18073  MISS:          0
cpu0_STLB PREFETCH  ACCESS:          0  HIT:          0  MISS:          0
cpu0_STLB WRITEBACK ACCESS:          0  HIT:          0  MISS:          0
cpu0_L1D TOTAL     ACCESS:   16045959  HIT:   15772038  MISS:     273921
cpu0_L1D LOAD      ACCESS:   13713143  HIT:   13439508  MISS:     273635
cpu0_L1D RFO       ACCESS:    2300558  HIT:    2300558  MISS:          0
cpu0_L1D PREFETCH  ACCESS:          0  HIT:          0  MISS:          0
cpu0_L1D WRITEBACK ACCESS:          0  HIT:          0  MISS:          0
cpu0_L2C TOTAL     ACCESS:     402680  HIT:     179103  MISS:     223577
cpu0_L2C LOAD      ACCESS:     273635  HIT:      50083  MISS:     223552
cpu0_L2C RFO       ACCESS:          0  HIT:          0  MISS:          0
cpu0_L2C PREFETCH  ACCESS:          0  HIT:          0  MISS:          0
cpu0_L2C WRITEBACK ACCESS:     128759  HIT:     128759  MISS:          0
LLC TOTAL     ACCESS:     352266  HIT:     121339  MISS:     230927
LLC LOAD      ACCESS:     223552  HIT:       8475  MISS:     215077
LLC RFO       ACCESS:          0  HIT:          0  MISS:          0
LLC PREFETCH  ACCESS:          0  HIT:          0  MISS:          0
LLC WRITEBACK ACCESS:     128689  HIT:     112853  MISS:      15836
Heartbeat CPU 0 instructions: 82000003 cycles: 73374348 heartbeat IPC: 0.698669 cumulative IPC: 0.697649 (Simulation time: 2 hr 30 min 37 sec) 

Region of Interest Statistics
cpu0_DTLB TOTAL     ACCESS:   14607581  HIT:   14393045  MISS:     214536
cpu0_DTLB LOAD      ACCESS:   13225717  HIT:   13030512  MISS:     195205
cpu0_DTLB RFO       ACCESS:    1381864  HIT:    1362533  MISS:      19331
cpu0_DTLB PREFETCH  ACCESS:          0  HIT:          0  MISS:          0
cpu0_DTLB WRITEBACK ACCESS:          0  HIT:          0  MISS:          0
cpu0_ITLB TOTAL     ACCESS:     607890  HIT:     607890  MISS:          0
cpu0_ITLB LOAD      ACCESS:     607890  HIT:     607890  MISS:          0
cpu0_ITLB RFO       ACCESS:          0  HIT:          0  MISS:          0
cpu0_ITLB PREFETCH  ACCESS:          0  HIT:          0  MISS:          0
cpu0_ITLB WRITEBACK ACCESS:          0  HIT:          0  MISS:          0
cpu0_L1I TOTAL     ACCESS:    3581566  HIT:    3581566  MISS:          0
cpu0_L1I LOAD      ACCESS:    3581566  HIT:    3581566  MISS:          0
cpu0_L1I RFO       ACCESS:          0  HIT:          0  MISS:          0
cpu0_L1I PREFETCH  ACCESS:          0  HIT:          0  MISS:          0
cpu0_L1I WRITEBACK ACCESS:          0  HIT:          0  MISS:          0
cpu0_STLB TOTAL     ACCESS:     214536  HIT:     180047  MISS:      34489
cpu0_STLB LOAD      ACCESS:     195205  HIT:     160716  MISS:      34489
cpu0_STLB RFO       ACCESS:      19331  HIT:      19331  MISS:          0
cpu0_STLB PREFETCH  ACCESS:          0  HIT:          0  MISS:          0
cpu0_STLB WRITEBACK ACCESS:          0  HIT:          0  MISS:          0
cpu0_L1D TOTAL     ACCESS:   17115254  HIT:   16823070  MISS:     292184
cpu0_L1D LOAD      ACCESS:   14626917  HIT:   14335039  MISS:     291878
cpu0_L1D RFO       ACCESS:    2453927  HIT:    2453927  MISS:          0
cpu0_L1D PREFETCH  ACCESS:          0  HIT:          0  MISS:          0
cpu0_L1D WRITEBACK ACCESS:          0  HIT:          0  MISS:          0
cpu0_L2C TOTAL     ACCESS:     429509  HIT:     191015  MISS:     238494
cpu0_L2C LOAD      ACCESS:     291878  HIT:      53410  MISS:     238468
cpu0_L2C RFO       ACCESS:          0  HIT:          0  MISS:          0
cpu0_L2C PREFETCH  ACCESS:          0  HIT:          0  MISS:          0
cpu0_L2C WRITEBACK ACCESS:     137325  HIT:     137325  MISS:          0
LLC TOTAL     ACCESS:     375735  HIT:     129402  MISS:     246333
LLC LOAD      ACCESS:     238468  HIT:       9036  MISS:     229432
LLC RFO       ACCESS:          0  HIT:          0  MISS:          0
LLC PREFETCH  ACCESS:          0  HIT:          0  MISS:          0
LLC WRITEBACK ACCESS:     137241  HIT:     120355  MISS:      16886
Heartbeat CPU 0 instructions: 84000003 cycles: 76252960 heartbeat IPC: 0.694779 cumulative IPC: 0.697479 (Simulation time: 2 hr 35 min 10 sec) 

Region of Interest Statistics
cpu0_DTLB TOTAL     ACCESS:   15520031  HIT:   15290098  MISS:     229933
cpu0_DTLB LOAD      ACCESS:   14051764  HIT:   13842617  MISS:     209147
cpu0_DTLB RFO       ACCESS:    1468267  HIT:    1447481  MISS:      20786
cpu0_DTLB PREFETCH  ACCESS:          0  HIT:          0  MISS:          0
cpu0_DTLB WRITEBACK ACCESS:          0  HIT:          0  MISS:          0
cpu0_ITLB TOTAL     ACCESS:     645890  HIT:     645890  MISS:          0
cpu0_ITLB LOAD      ACCESS:     645890  HIT:     645890  MISS:          0
cpu0_ITLB RFO       ACCESS:          0  HIT:          0  MISS:          0
cpu0_ITLB PREFETCH  ACCESS:          0  HIT:          0  MISS:          0
cpu0_ITLB WRITEBACK ACCESS:          0  HIT:          0  MISS:          0
cpu0_L1I TOTAL     ACCESS:    3805364  HIT:    3805364  MISS:          0
cpu0_L1I LOAD      ACCESS:    3805364  HIT:    3805364  MISS:          0
cpu0_L1I RFO       ACCESS:          0  HIT:          0  MISS:          0
cpu0_L1I PREFETCH  ACCESS:          0  HIT:          0  MISS:          0
cpu0_L1I WRITEBACK ACCESS:          0  HIT:          0  MISS:          0
cpu0_STLB TOTAL     ACCESS:     229933  HIT:     193290  MISS:      36643
cpu0_STLB LOAD      ACCESS:     209147  HIT:     172504  MISS:      36643
cpu0_STLB RFO       ACCESS:      20786  HIT:      20786  MISS:          0
cpu0_STLB PREFETCH  ACCESS:          0  HIT:          0  MISS:          0
cpu0_STLB WRITEBACK ACCESS:          0  HIT:          0  MISS:          0
cpu0_L1D TOTAL     ACCESS:   18185111  HIT:   17874666  MISS:     310445
cpu0_L1D LOAD      ACCESS:   15541255  HIT:   15231134  MISS:     310121
cpu0_L1D RFO       ACCESS:    2607298  HIT:    2607298  MISS:          0
cpu0_L1D PREFETCH  ACCESS:          0  HIT:          0  MISS:          0
cpu0_L1D WRITEBACK ACCESS:          0  HIT:          0  MISS:          0
cpu0_L2C TOTAL     ACCESS:     456354  HIT:     202928  MISS:     253426
cpu0_L2C LOAD      ACCESS:     310121  HIT:      56722  MISS:     253399
cpu0_L2C RFO       ACCESS:          0  HIT:          0  MISS:          0
cpu0_L2C PREFETCH  ACCESS:          0  HIT:          0  MISS:          0
cpu0_L2C WRITEBACK ACCESS:     145909  HIT:     145909  MISS:          0
LLC TOTAL     ACCESS:     399226  HIT:     137553  MISS:     261673
LLC LOAD      ACCESS:     253399  HIT:       9599  MISS:     243800
LLC RFO       ACCESS:          0  HIT:          0  MISS:          0
LLC PREFETCH  ACCESS:          0  HIT:          0  MISS:          0
LLC WRITEBACK ACCESS:     145800  HIT:     127942  MISS:      17858
Heartbeat CPU 0 instructions: 86000004 cycles: 79123501 heartbeat IPC: 0.696733 cumulative IPC: 0.697438 (Simulation time: 2 hr 39 min 37 sec) 

Region of Interest Statistics
cpu0_DTLB TOTAL     ACCESS:   16432728  HIT:   16189187  MISS:     243541
cpu0_DTLB LOAD      ACCESS:   14878006  HIT:   14656503  MISS:     221503
cpu0_DTLB RFO       ACCESS:    1554722  HIT:    1532684  MISS:      22038
cpu0_DTLB PREFETCH  ACCESS:          0  HIT:          0  MISS:          0
cpu0_DTLB WRITEBACK ACCESS:          0  HIT:          0  MISS:          0
cpu0_ITLB TOTAL     ACCESS:     683884  HIT:     683884  MISS:          0
cpu0_ITLB LOAD      ACCESS:     683884  HIT:     683884  MISS:          0
cpu0_ITLB RFO       ACCESS:          0  HIT:          0  MISS:          0
cpu0_ITLB PREFETCH  ACCESS:          0  HIT:          0  MISS:          0
cpu0_ITLB WRITEBACK ACCESS:          0  HIT:          0  MISS:          0
cpu0_L1I TOTAL     ACCESS:    4029188  HIT:    4029188  MISS:          0
cpu0_L1I LOAD      ACCESS:    4029188  HIT:    4029188  MISS:          0
cpu0_L1I RFO       ACCESS:          0  HIT:          0  MISS:          0
cpu0_L1I PREFETCH  ACCESS:          0  HIT:          0  MISS:          0
cpu0_L1I WRITEBACK ACCESS:          0  HIT:          0  MISS:          0
cpu0_STLB TOTAL     ACCESS:     243541  HIT:     204746  MISS:      38795
cpu0_STLB LOAD      ACCESS:     221503  HIT:     182708  MISS:      38795
cpu0_STLB RFO       ACCESS:      22038  HIT:      22038  MISS:          0
cpu0_STLB PREFETCH  ACCESS:          0  HIT:          0  MISS:          0
cpu0_STLB WRITEBACK ACCESS:          0  HIT:          0  MISS:          0
cpu0_L1D TOTAL     ACCESS:   19255513  HIT:   18926802  MISS:     328711
cpu0_L1D LOAD      ACCESS:   16456138  HIT:   16127770  MISS:     328368
cpu0_L1D RFO       ACCESS:    2760668  HIT:    2760668  MISS:          0
cpu0_L1D PREFETCH  ACCESS:          0  HIT:          0  MISS:          0
cpu0_L1D WRITEBACK ACCESS:          0  HIT:          0  MISS:          0
cpu0_L2C TOTAL     ACCESS:     483216  HIT:     214945  MISS:     268271
cpu0_L2C LOAD      ACCESS:     328368  HIT:      60125  MISS:     268243
cpu0_L2C RFO       ACCESS:          0  HIT:          0  MISS:          0
cpu0_L2C PREFETCH  ACCESS:          0  HIT:          0  MISS:          0
cpu0_L2C WRITEBACK ACCESS:     154505  HIT:     154505  MISS:          0
LLC TOTAL     ACCESS:     422705  HIT:     145644  MISS:     277061
LLC LOAD      ACCESS:     268243  HIT:      10107  MISS:     258136
LLC RFO       ACCESS:          0  HIT:          0  MISS:          0
LLC PREFETCH  ACCESS:          0  HIT:          0  MISS:          0
LLC WRITEBACK ACCESS:     154434  HIT:     135525  MISS:      18909
Heartbeat CPU 0 instructions: 88000004 cycles: 81979471 heartbeat IPC: 0.700287 cumulative IPC: 0.697587 (Simulation time: 2 hr 44 min 7 sec) 

Region of Interest Statistics
cpu0_DTLB TOTAL     ACCESS:   17346222  HIT:   17091854  MISS:     254368
cpu0_DTLB LOAD      ACCESS:   15705056  HIT:   15473694  MISS:     231362
cpu0_DTLB RFO       ACCESS:    1641166  HIT:    1618160  MISS:      23006
cpu0_DTLB PREFETCH  ACCESS:          0  HIT:          0  MISS:          0
cpu0_DTLB WRITEBACK ACCESS:          0  HIT:          0  MISS:          0
cpu0_ITLB TOTAL     ACCESS:     721889  HIT:     721889  MISS:          0
cpu0_ITLB LOAD      ACCESS:     721889  HIT:     721889  MISS:          0
cpu0_ITLB RFO       ACCESS:          0  HIT:          0  MISS:          0
cpu0_ITLB PREFETCH  ACCESS:          0  HIT:          0  MISS:          0
cpu0_ITLB WRITEBACK ACCESS:          0  HIT:          0  MISS:          0
cpu0_L1I TOTAL     ACCESS:    4253058  HIT:    4253058  MISS:          0
cpu0_L1I LOAD      ACCESS:    4253058  HIT:    4253058  MISS:          0
cpu0_L1I RFO       ACCESS:          0  HIT:          0  MISS:          0
cpu0_L1I PREFETCH  ACCESS:          0  HIT:          0  MISS:          0
cpu0_L1I WRITEBACK ACCESS:          0  HIT:          0  MISS:          0
cpu0_STLB TOTAL     ACCESS:     254368  HIT:     213415  MISS:      40953
cpu0_STLB LOAD      ACCESS:     231362  HIT:     190409  MISS:      40953
cpu0_STLB RFO       ACCESS:      23006  HIT:      23006  MISS:          0
cpu0_STLB PREFETCH  ACCESS:          0  HIT:          0  MISS:          0
cpu0_STLB WRITEBACK ACCESS:          0  HIT:          0  MISS:          0
cpu0_L1D TOTAL     ACCESS:   20325434  HIT:   19978469  MISS:     346965
cpu0_L1D LOAD      ACCESS:   17370537  HIT:   17023934  MISS:     346603
cpu0_L1D RFO       ACCESS:    2914038  HIT:    2914038  MISS:          0
cpu0_L1D PREFETCH  ACCESS:          0  HIT:          0  MISS:          0
cpu0_L1D WRITEBACK ACCESS:          0  HIT:          0  MISS:          0
cpu0_L2C TOTAL     ACCESS:     510061  HIT:     226920  MISS:     283141
cpu0_L2C LOAD      ACCESS:     346603  HIT:      63491  MISS:     283112
cpu0_L2C RFO       ACCESS:          0  HIT:          0  MISS:          0
cpu0_L2C PREFETCH  ACCESS:          0  HIT:          0  MISS:          0
cpu0_L2C WRITEBACK ACCESS:     163096  HIT:     163096  MISS:          0
LLC TOTAL     ACCESS:     446160  HIT:     153826  MISS:     292334
LLC LOAD      ACCESS:     283112  HIT:      10652  MISS:     272460
LLC RFO       ACCESS:          0  HIT:          0  MISS:          0
LLC PREFETCH  ACCESS:          0  HIT:          0  MISS:          0
LLC WRITEBACK ACCESS:     163019  HIT:     143161  MISS:      19858
Heartbeat CPU 0 instructions: 90000001 cycles: 84837916 heartbeat IPC: 0.69968 cumulative IPC: 0.697692 (Simulation time: 2 hr 48 min 33 sec) 

Region of Interest Statistics
cpu0_DTLB TOTAL     ACCESS:   18259643  HIT:   17993285  MISS:     266358
cpu0_DTLB LOAD      ACCESS:   16532196  HIT:   16289748  MISS:     242448
cpu0_DTLB RFO       ACCESS:    1727447  HIT:    1703537  MISS:      23910
cpu0_DTLB PREFETCH  ACCESS:          0  HIT:          0  MISS:          0
cpu0_DTLB WRITEBACK ACCESS:          0  HIT:          0  MISS:          0
cpu0_ITLB TOTAL     ACCESS:     759877  HIT:     759877  MISS:          0
cpu0_ITLB LOAD      ACCESS:     759877  HIT:     759877  MISS:          0
cpu0_ITLB RFO       ACCESS:          0  HIT:          0  MISS:          0
cpu0_ITLB PREFETCH  ACCESS:          0  HIT:          0  MISS:          0
cpu0_ITLB WRITEBACK ACCESS:          0  HIT:          0  MISS:          0
cpu0_L1I TOTAL     ACCESS:    4476905  HIT:    4476905  MISS:          0
cpu0_L1I LOAD      ACCESS:    4476905  HIT:    4476905  MISS:          0
cpu0_L1I RFO       ACCESS:          0  HIT:          0  MISS:          0
cpu0_L1I PREFETCH  ACCESS:          0  HIT:          0  MISS:          0
cpu0_L1I WRITEBACK ACCESS:          0  HIT:          0  MISS:          0
cpu0_STLB TOTAL     ACCESS:     266358  HIT:     223253  MISS:      43105
cpu0_STLB LOAD      ACCESS:     242448  HIT:     199343  MISS:      43105
cpu0_STLB RFO       ACCESS:      23910  HIT:      23910  MISS:          0
cpu0_STLB PREFETCH  ACCESS:          0  HIT:          0  MISS:          0
cpu0_STLB WRITEBACK ACCESS:          0  HIT:          0  MISS:          0
cpu0_L1D TOTAL     ACCESS:   21395522  HIT:   21030301  MISS:     365221
cpu0_L1D LOAD      ACCESS:   18285118  HIT:   17920277  MISS:     364841
cpu0_L1D RFO       ACCESS:    3067398  HIT:    3067398  MISS:          0
cpu0_L1D PREFETCH  ACCESS:          0  HIT:          0  MISS:          0
cpu0_L1D WRITEBACK ACCESS:          0  HIT:          0  MISS:          0
cpu0_L2C TOTAL     ACCESS:     536878  HIT:     238823  MISS:     298055
cpu0_L2C LOAD      ACCESS:     364841  HIT:      66815  MISS:     298026
cpu0_L2C RFO       ACCESS:          0  HIT:          0  MISS:          0
cpu0_L2C PREFETCH  ACCESS:          0  HIT:          0  MISS:          0
cpu0_L2C WRITEBACK ACCESS:     171657  HIT:     171657  MISS:          0
LLC TOTAL     ACCESS:     469628  HIT:     162022  MISS:     307606
LLC LOAD      ACCESS:     298026  HIT:      11237  MISS:     286789
LLC RFO       ACCESS:          0  HIT:          0  MISS:          0
LLC PREFETCH  ACCESS:          0  HIT:          0  MISS:          0
LLC WRITEBACK ACCESS:     171573  HIT:     150772  MISS:      20801
Heartbeat CPU 0 instructions: 92000000 cycles: 87702234 heartbeat IPC: 0.698246 cumulative IPC: 0.697718 (Simulation time: 2 hr 52 min 57 sec) 

Region of Interest Statistics
cpu0_DTLB TOTAL     ACCESS:   19172868  HIT:   18892284  MISS:     280584
cpu0_DTLB LOAD      ACCESS:   17359140  HIT:   17103743  MISS:     255397
cpu0_DTLB RFO       ACCESS:    1813728  HIT:    1788541  MISS:      25187
cpu0_DTLB PREFETCH  ACCESS:          0  HIT:          0  MISS:          0
cpu0_DTLB WRITEBACK ACCESS:          0  HIT:          0  MISS:          0
cpu0_ITLB TOTAL     ACCESS:     797866  HIT:     797866  MISS:          0
cpu0_ITLB LOAD      ACCESS:     797866  HIT:     797866  MISS:          0
cpu0_ITLB RFO       ACCESS:          0  HIT:          0  MISS:          0
cpu0_ITLB PREFETCH  ACCESS:          0  HIT:          0  MISS:          0
cpu0_ITLB WRITEBACK ACCESS:          0  HIT:          0  MISS:          0
cpu0_L1I TOTAL     ACCESS:    4700764  HIT:    4700764  MISS:          0
cpu0_L1I LOAD      ACCESS:    4700764  HIT:    4700764  MISS:          0
cpu0_L1I RFO       ACCESS:          0  HIT:          0  MISS:          0
cpu0_L1I PREFETCH  ACCESS:          0  HIT:          0  MISS:          0
cpu0_L1I WRITEBACK ACCESS:          0  HIT:          0  MISS:          0
cpu0_STLB TOTAL     ACCESS:     280584  HIT:     235318  MISS:      45266
cpu0_STLB LOAD      ACCESS:     255397  HIT:     210131  MISS:      45266
cpu0_STLB RFO       ACCESS:      25187  HIT:      25187  MISS:          0
cpu0_STLB PREFETCH  ACCESS:          0  HIT:          0  MISS:          0
cpu0_STLB WRITEBACK ACCESS:          0  HIT:          0  MISS:          0
cpu0_L1D TOTAL     ACCESS:   22465340  HIT:   22081845  MISS:     383495
cpu0_L1D LOAD      ACCESS:   19199398  HIT:   18816306  MISS:     383092
cpu0_L1D RFO       ACCESS:    3220779  HIT:    3220779  MISS:          0
cpu0_L1D PREFETCH  ACCESS:          0  HIT:          0  MISS:          0
cpu0_L1D WRITEBACK ACCESS:          0  HIT:          0  MISS:          0
cpu0_L2C TOTAL     ACCESS:     563732  HIT:     250799  MISS:     312933
cpu0_L2C LOAD      ACCESS:     383092  HIT:      70191  MISS:     312901
cpu0_L2C RFO       ACCESS:          0  HIT:          0  MISS:          0
cpu0_L2C PREFETCH  ACCESS:          0  HIT:          0  MISS:          0
cpu0_L2C WRITEBACK ACCESS:     180237  HIT:     180237  MISS:          0
LLC TOTAL     ACCESS:     493136  HIT:     170129  MISS:     323007
LLC LOAD      ACCESS:     312901  HIT:      11777  MISS:     301124
LLC RFO       ACCESS:          0  HIT:          0  MISS:          0
LLC PREFETCH  ACCESS:          0  HIT:          0  MISS:          0
LLC WRITEBACK ACCESS:     180203  HIT:     158338  MISS:      21865
Heartbeat CPU 0 instructions: 94000002 cycles: 90571088 heartbeat IPC: 0.697143 cumulative IPC: 0.697692 (Simulation time: 2 hr 57 min 28 sec) 

Region of Interest Statistics
cpu0_DTLB TOTAL     ACCESS:   20085403  HIT:   19790089  MISS:     295314
cpu0_DTLB LOAD      ACCESS:   18185304  HIT:   17916475  MISS:     268829
cpu0_DTLB RFO       ACCESS:    1900099  HIT:    1873614  MISS:      26485
cpu0_DTLB PREFETCH  ACCESS:          0  HIT:          0  MISS:          0
cpu0_DTLB WRITEBACK ACCESS:          0  HIT:          0  MISS:          0
cpu0_ITLB TOTAL     ACCESS:     835852  HIT:     835852  MISS:          0
cpu0_ITLB LOAD      ACCESS:     835852  HIT:     835852  MISS:          0
cpu0_ITLB RFO       ACCESS:          0  HIT:          0  MISS:          0
cpu0_ITLB PREFETCH  ACCESS:          0  HIT:          0  MISS:          0
cpu0_ITLB WRITEBACK ACCESS:          0  HIT:          0  MISS:          0
cpu0_L1I TOTAL     ACCESS:    4924522  HIT:    4924522  MISS:          0
cpu0_L1I LOAD      ACCESS:    4924522  HIT:    4924522  MISS:          0
cpu0_L1I RFO       ACCESS:          0  HIT:          0  MISS:          0
cpu0_L1I PREFETCH  ACCESS:          0  HIT:          0  MISS:          0
cpu0_L1I WRITEBACK ACCESS:          0  HIT:          0  MISS:          0
cpu0_STLB TOTAL     ACCESS:     295314  HIT:     247892  MISS:      47422
cpu0_STLB LOAD      ACCESS:     268829  HIT:     221407  MISS:      47422
cpu0_STLB RFO       ACCESS:      26485  HIT:      26485  MISS:          0
cpu0_STLB PREFETCH  ACCESS:          0  HIT:          0  MISS:          0
cpu0_STLB WRITEBACK ACCESS:          0  HIT:          0  MISS:          0
cpu0_L1D TOTAL     ACCESS:   23534876  HIT:   23133122  MISS:     401754
cpu0_L1D LOAD      ACCESS:   20113407  HIT:   19712075  MISS:     401332
cpu0_L1D RFO       ACCESS:    3374158  HIT:    3374158  MISS:          0
cpu0_L1D PREFETCH  ACCESS:          0  HIT:          0  MISS:          0
cpu0_L1D WRITEBACK ACCESS:          0  HIT:          0  MISS:          0
cpu0_L2C TOTAL     ACCESS:     590589  HIT:     262826  MISS:     327763
cpu0_L2C LOAD      ACCESS:     401332  HIT:      73602  MISS:     327730
cpu0_L2C RFO       ACCESS:          0  HIT:          0  MISS:          0
cpu0_L2C PREFETCH  ACCESS:          0  HIT:          0  MISS:          0
cpu0_L2C WRITEBACK ACCESS:     188835  HIT:     188835  MISS:          0
LLC TOTAL     ACCESS:     516517  HIT:     178116  MISS:     338401
LLC LOAD      ACCESS:     327730  HIT:      12270  MISS:     315460
LLC RFO       ACCESS:          0  HIT:          0  MISS:          0
LLC PREFETCH  ACCESS:          0  HIT:          0  MISS:          0
LLC WRITEBACK ACCESS:     188754  HIT:     165832  MISS:      22922
Heartbeat CPU 0 instructions: 96000003 cycles: 93440722 heartbeat IPC: 0.696953 cumulative IPC: 0.69766 (Simulation time: 3 hr 1 min 58 sec) 

Region of Interest Statistics
cpu0_DTLB TOTAL     ACCESS:   20997327  HIT:   20688103  MISS:     309224
cpu0_DTLB LOAD      ACCESS:   19010756  HIT:   18729129  MISS:     281627
cpu0_DTLB RFO       ACCESS:    1986571  HIT:    1958974  MISS:      27597
cpu0_DTLB PREFETCH  ACCESS:          0  HIT:          0  MISS:          0
cpu0_DTLB WRITEBACK ACCESS:          0  HIT:          0  MISS:          0
cpu0_ITLB TOTAL     ACCESS:     873839  HIT:     873839  MISS:          0
cpu0_ITLB LOAD      ACCESS:     873839  HIT:     873839  MISS:          0
cpu0_ITLB RFO       ACCESS:          0  HIT:          0  MISS:          0
cpu0_ITLB PREFETCH  ACCESS:          0  HIT:          0  MISS:          0
cpu0_ITLB WRITEBACK ACCESS:          0  HIT:          0  MISS:          0
cpu0_L1I TOTAL     ACCESS:    5148346  HIT:    5148346  MISS:          0
cpu0_L1I LOAD      ACCESS:    5148346  HIT:    5148346  MISS:          0
cpu0_L1I RFO       ACCESS:          0  HIT:          0  MISS:          0
cpu0_L1I PREFETCH  ACCESS:          0  HIT:          0  MISS:          0
cpu0_L1I WRITEBACK ACCESS:          0  HIT:          0  MISS:          0
cpu0_STLB TOTAL     ACCESS:     309224  HIT:     259650  MISS:      49574
cpu0_STLB LOAD      ACCESS:     281627  HIT:     232053  MISS:      49574
cpu0_STLB RFO       ACCESS:      27597  HIT:      27597  MISS:          0
cpu0_STLB PREFETCH  ACCESS:          0  HIT:          0  MISS:          0
cpu0_STLB WRITEBACK ACCESS:          0  HIT:          0  MISS:          0
cpu0_L1D TOTAL     ACCESS:   24605191  HIT:   24185175  MISS:     420016
cpu0_L1D LOAD      ACCESS:   21028222  HIT:   20608648  MISS:     419574
cpu0_L1D RFO       ACCESS:    3527509  HIT:    3527509  MISS:          0
cpu0_L1D PREFETCH  ACCESS:          0  HIT:          0  MISS:          0
cpu0_L1D WRITEBACK ACCESS:          0  HIT:          0  MISS:          0
cpu0_L2C TOTAL     ACCESS:     617421  HIT:     274699  MISS:     342722
cpu0_L2C LOAD      ACCESS:     419574  HIT:      76887  MISS:     342687
cpu0_L2C RFO       ACCESS:          0  HIT:          0  MISS:          0
cpu0_L2C PREFETCH  ACCESS:          0  HIT:          0  MISS:          0
cpu0_L2C WRITEBACK ACCESS:     197405  HIT:     197405  MISS:          0
LLC TOTAL     ACCESS:     540001  HIT:     186230  MISS:     353771
LLC LOAD      ACCESS:     342687  HIT:      12883  MISS:     329804
LLC RFO       ACCESS:          0  HIT:          0  MISS:          0
LLC PREFETCH  ACCESS:          0  HIT:          0  MISS:          0
LLC WRITEBACK ACCESS:     197279  HIT:     173333  MISS:      23946
Heartbeat CPU 0 instructions: 98000003 cycles: 96308103 heartbeat IPC: 0.697501 cumulative IPC: 0.697653 (Simulation time: 3 hr 6 min 31 sec) 

Region of Interest Statistics
cpu0_DTLB TOTAL     ACCESS:   21910340  HIT:   21588339  MISS:     322001
cpu0_DTLB LOAD      ACCESS:   19837350  HIT:   19544407  MISS:     292943
cpu0_DTLB RFO       ACCESS:    2072990  HIT:    2043932  MISS:      29058
cpu0_DTLB PREFETCH  ACCESS:          0  HIT:          0  MISS:          0
cpu0_DTLB WRITEBACK ACCESS:          0  HIT:          0  MISS:          0
cpu0_ITLB TOTAL     ACCESS:     911836  HIT:     911836  MISS:          0
cpu0_ITLB LOAD      ACCESS:     911836  HIT:     911836  MISS:          0
cpu0_ITLB RFO       ACCESS:          0  HIT:          0  MISS:          0
cpu0_ITLB PREFETCH  ACCESS:          0  HIT:          0  MISS:          0
cpu0_ITLB WRITEBACK ACCESS:          0  HIT:          0  MISS:          0
cpu0_L1I TOTAL     ACCESS:    5372231  HIT:    5372231  MISS:          0
cpu0_L1I LOAD      ACCESS:    5372231  HIT:    5372231  MISS:          0
cpu0_L1I RFO       ACCESS:          0  HIT:          0  MISS:          0
cpu0_L1I PREFETCH  ACCESS:          0  HIT:          0  MISS:          0
cpu0_L1I WRITEBACK ACCESS:          0  HIT:          0  MISS:          0
cpu0_STLB TOTAL     ACCESS:     322001  HIT:     270271  MISS:      51730
cpu0_STLB LOAD      ACCESS:     292943  HIT:     241213  MISS:      51730
cpu0_STLB RFO       ACCESS:      29058  HIT:      29058  MISS:          0
cpu0_STLB PREFETCH  ACCESS:          0  HIT:          0  MISS:          0
cpu0_STLB WRITEBACK ACCESS:          0  HIT:          0  MISS:          0
cpu0_L1D TOTAL     ACCESS:   25675391  HIT:   25237126  MISS:     438265
cpu0_L1D LOAD      ACCESS:   21942906  HIT:   21505101  MISS:     437805
cpu0_L1D RFO       ACCESS:    3680878  HIT:    3680878  MISS:          0
cpu0_L1D PREFETCH  ACCESS:          0  HIT:          0  MISS:          0
cpu0_L1D WRITEBACK ACCESS:          0  HIT:          0  MISS:          0
cpu0_L2C TOTAL     ACCESS:     644270  HIT:     286605  MISS:     357665
cpu0_L2C LOAD      ACCESS:     437805  HIT:      80176  MISS:     357629
cpu0_L2C RFO       ACCESS:          0  HIT:          0  MISS:          0
cpu0_L2C PREFETCH  ACCESS:          0  HIT:          0  MISS:          0
cpu0_L2C WRITEBACK ACCESS:     206005  HIT:     206005  MISS:          0
LLC TOTAL     ACCESS:     563552  HIT:     194366  MISS:     369186
LLC LOAD      ACCESS:     357629  HIT:      13490  MISS:     344139
LLC RFO       ACCESS:          0  HIT:          0  MISS:          0
LLC PREFETCH  ACCESS:          0  HIT:          0  MISS:          0
LLC WRITEBACK ACCESS:     205887  HIT:     180861  MISS:      25026
Heartbeat CPU 0 instructions: 100000003 cycles: 99173497 heartbeat IPC: 0.697984 cumulative IPC: 0.697666 (Simulation time: 3 hr 10 min 58 sec) 

Region of Interest Statistics
cpu0_DTLB TOTAL     ACCESS:   22824657  HIT:   22491563  MISS:     333094
cpu0_DTLB LOAD      ACCESS:   20665253  HIT:   20362016  MISS:     303237
cpu0_DTLB RFO       ACCESS:    2159404  HIT:    2129547  MISS:      29857
cpu0_DTLB PREFETCH  ACCESS:          0  HIT:          0  MISS:          0
cpu0_DTLB WRITEBACK ACCESS:          0  HIT:          0  MISS:          0
cpu0_ITLB TOTAL     ACCESS:     949822  HIT:     949822  MISS:          0
cpu0_ITLB LOAD      ACCESS:     949822  HIT:     949822  MISS:          0
cpu0_ITLB RFO       ACCESS:          0  HIT:          0  MISS:          0
cpu0_ITLB PREFETCH  ACCESS:          0  HIT:          0  MISS:          0
cpu0_ITLB WRITEBACK ACCESS:          0  HIT:          0  MISS:          0
cpu0_L1I TOTAL     ACCESS:    5596037  HIT:    5596037  MISS:          0
cpu0_L1I LOAD      ACCESS:    5596037  HIT:    5596037  MISS:          0
cpu0_L1I RFO       ACCESS:          0  HIT:          0  MISS:          0
cpu0_L1I PREFETCH  ACCESS:          0  HIT:          0  MISS:          0
cpu0_L1I WRITEBACK ACCESS:          0  HIT:          0  MISS:          0
cpu0_STLB TOTAL     ACCESS:     333094  HIT:     279211  MISS:      53883
cpu0_STLB LOAD      ACCESS:     303237  HIT:     249354  MISS:      53883
cpu0_STLB RFO       ACCESS:      29857  HIT:      29857  MISS:          0
cpu0_STLB PREFETCH  ACCESS:          0  HIT:          0  MISS:          0
cpu0_STLB WRITEBACK ACCESS:          0  HIT:          0  MISS:          0
cpu0_L1D TOTAL     ACCESS:   26745326  HIT:   26288786  MISS:     456540
cpu0_L1D LOAD      ACCESS:   22857305  HIT:   22401244  MISS:     456061
cpu0_L1D RFO       ACCESS:    3834268  HIT:    3834268  MISS:          0
cpu0_L1D PREFETCH  ACCESS:          0  HIT:          0  MISS:          0
cpu0_L1D WRITEBACK ACCESS:          0  HIT:          0  MISS:          0
cpu0_L2C TOTAL     ACCESS:     671121  HIT:     298493  MISS:     372628
cpu0_L2C LOAD      ACCESS:     456061  HIT:      83470  MISS:     372591
cpu0_L2C RFO       ACCESS:          0  HIT:          0  MISS:          0
cpu0_L2C PREFETCH  ACCESS:          0  HIT:          0  MISS:          0
cpu0_L2C WRITEBACK ACCESS:     214581  HIT:     214581  MISS:          0
LLC TOTAL     ACCESS:     587089  HIT:     202447  MISS:     384642
LLC LOAD      ACCESS:     372591  HIT:      14113  MISS:     358478
LLC RFO       ACCESS:          0  HIT:          0  MISS:          0
LLC PREFETCH  ACCESS:          0  HIT:          0  MISS:          0
LLC WRITEBACK ACCESS:     214461  HIT:     188319  MISS:      26142
Heartbeat CPU 0 instructions: 102000004 cycles: 102034460 heartbeat IPC: 0.699066 cumulative IPC: 0.69772 (Simulation time: 3 hr 15 min 26 sec) 

Region of Interest Statistics
cpu0_DTLB TOTAL     ACCESS:   23737644  HIT:   23391359  MISS:     346285
cpu0_DTLB LOAD      ACCESS:   21491905  HIT:   21176530  MISS:     315375
cpu0_DTLB RFO       ACCESS:    2245739  HIT:    2214829  MISS:      30910
cpu0_DTLB PREFETCH  ACCESS:          0  HIT:          0  MISS:          0
cpu0_DTLB WRITEBACK ACCESS:          0  HIT:          0  MISS:          0
cpu0_ITLB TOTAL     ACCESS:     987814  HIT:     987814  MISS:          0
cpu0_ITLB LOAD      ACCESS:     987814  HIT:     987814  MISS:          0
cpu0_ITLB RFO       ACCESS:          0  HIT:          0  MISS:          0
cpu0_ITLB PREFETCH  ACCESS:          0  HIT:          0  MISS:          0
cpu0_ITLB WRITEBACK ACCESS:          0  HIT:          0  MISS:          0
cpu0_L1I TOTAL     ACCESS:    5819923  HIT:    5819923  MISS:          0
cpu0_L1I LOAD      ACCESS:    5819923  HIT:    5819923  MISS:          0
cpu0_L1I RFO       ACCESS:          0  HIT:          0  MISS:          0
cpu0_L1I PREFETCH  ACCESS:          0  HIT:          0  MISS:          0
cpu0_L1I WRITEBACK ACCESS:          0  HIT:          0  MISS:          0
cpu0_STLB TOTAL     ACCESS:     346285  HIT:     290244  MISS:      56041
cpu0_STLB LOAD      ACCESS:     315375  HIT:     259334  MISS:      56041
cpu0_STLB RFO       ACCESS:      30910  HIT:      30910  MISS:          0
cpu0_STLB PREFETCH  ACCESS:          0  HIT:          0  MISS:          0
cpu0_STLB WRITEBACK ACCESS:          0  HIT:          0  MISS:          0
cpu0_L1D TOTAL     ACCESS:   27815162  HIT:   27340367  MISS:     474795
cpu0_L1D LOAD      ACCESS:   23771632  HIT:   23297336  MISS:     474296
cpu0_L1D RFO       ACCESS:    3987622  HIT:    3987622  MISS:          0
cpu0_L1D PREFETCH  ACCESS:          0  HIT:          0  MISS:          0
cpu0_L1D WRITEBACK ACCESS:          0  HIT:          0  MISS:          0
cpu0_L2C TOTAL     ACCESS:     697975  HIT:     310432  MISS:     387543
cpu0_L2C LOAD      ACCESS:     474296  HIT:      86791  MISS:     387505
cpu0_L2C RFO       ACCESS:          0  HIT:          0  MISS:          0
cpu0_L2C PREFETCH  ACCESS:          0  HIT:          0  MISS:          0
cpu0_L2C WRITEBACK ACCESS:     223180  HIT:     223180  MISS:          0
LLC TOTAL     ACCESS:     610620  HIT:     210503  MISS:     400117
LLC LOAD      ACCESS:     387505  HIT:      14697  MISS:     372808
LLC RFO       ACCESS:          0  HIT:          0  MISS:          0
LLC PREFETCH  ACCESS:          0  HIT:          0  MISS:          0
LLC WRITEBACK ACCESS:     223077  HIT:     195790  MISS:      27287
Heartbeat CPU 0 instructions: 104000003 cycles: 104888165 heartbeat IPC: 0.700843 cumulative IPC: 0.697835 (Simulation time: 3 hr 19 min 53 sec) 

Region of Interest Statistics
cpu0_DTLB TOTAL     ACCESS:   24650786  HIT:   24291826  MISS:     358960
cpu0_DTLB LOAD      ACCESS:   22318667  HIT:   21991466  MISS:     327201
cpu0_DTLB RFO       ACCESS:    2332119  HIT:    2300360  MISS:      31759
cpu0_DTLB PREFETCH  ACCESS:          0  HIT:          0  MISS:          0
cpu0_DTLB WRITEBACK ACCESS:          0  HIT:          0  MISS:          0
cpu0_ITLB TOTAL     ACCESS:    1025784  HIT:    1025784  MISS:          0
cpu0_ITLB LOAD      ACCESS:    1025784  HIT:    1025784  MISS:          0
cpu0_ITLB RFO       ACCESS:          0  HIT:          0  MISS:          0
cpu0_ITLB PREFETCH  ACCESS:          0  HIT:          0  MISS:          0
cpu0_ITLB WRITEBACK ACCESS:          0  HIT:          0  MISS:          0
cpu0_L1I TOTAL     ACCESS:    6043803  HIT:    6043803  MISS:          0
cpu0_L1I LOAD      ACCESS:    6043803  HIT:    6043803  MISS:          0
cpu0_L1I RFO       ACCESS:          0  HIT:          0  MISS:          0
cpu0_L1I PREFETCH  ACCESS:          0  HIT:          0  MISS:          0
cpu0_L1I WRITEBACK ACCESS:          0  HIT:          0  MISS:          0
cpu0_STLB TOTAL     ACCESS:     358960  HIT:     300764  MISS:      58196
cpu0_STLB LOAD      ACCESS:     327201  HIT:     269005  MISS:      58196
cpu0_STLB RFO       ACCESS:      31759  HIT:      31759  MISS:          0
cpu0_STLB PREFETCH  ACCESS:          0  HIT:          0  MISS:          0
cpu0_STLB WRITEBACK ACCESS:          0  HIT:          0  MISS:          0
cpu0_L1D TOTAL     ACCESS:   28884982  HIT:   28391922  MISS:     493060
cpu0_L1D LOAD      ACCESS:   24685928  HIT:   24193389  MISS:     492539
cpu0_L1D RFO       ACCESS:    4140998  HIT:    4140998  MISS:          0
cpu0_L1D PREFETCH  ACCESS:          0  HIT:          0  MISS:          0
cpu0_L1D WRITEBACK ACCESS:          0  HIT:          0  MISS:          0
cpu0_L2C TOTAL     ACCESS:     724797  HIT:     322313  MISS:     402484
cpu0_L2C LOAD      ACCESS:     492539  HIT:      90096  MISS:     402443
cpu0_L2C RFO       ACCESS:          0  HIT:          0  MISS:          0
cpu0_L2C PREFETCH  ACCESS:          0  HIT:          0  MISS:          0
cpu0_L2C WRITEBACK ACCESS:     231737  HIT:     231737  MISS:          0
LLC TOTAL     ACCESS:     634107  HIT:     218622  MISS:     415485
LLC LOAD      ACCESS:     402443  HIT:      15276  MISS:     387167
LLC RFO       ACCESS:          0  HIT:          0  MISS:          0
LLC PREFETCH  ACCESS:          0  HIT:          0  MISS:          0
LLC WRITEBACK ACCESS:     231623  HIT:     203330  MISS:      28293
Heartbeat CPU 0 instructions: 106000001 cycles: 107765262 heartbeat IPC: 0.695144 cumulative IPC: 0.697739 (Simulation time: 3 hr 24 min 20 sec) 

Region of Interest Statistics
cpu0_DTLB TOTAL     ACCESS:   25562708  HIT:   25187704  MISS:     375004
cpu0_DTLB LOAD      ACCESS:   23144189  HIT:   22802467  MISS:     341722
cpu0_DTLB RFO       ACCESS:    2418519  HIT:    2385237  MISS:      33282
cpu0_DTLB PREFETCH  ACCESS:          0  HIT:          0  MISS:          0
cpu0_DTLB WRITEBACK ACCESS:          0  HIT:          0  MISS:          0
cpu0_ITLB TOTAL     ACCESS:    1063779  HIT:    1063779  MISS:          0
cpu0_ITLB LOAD      ACCESS:    1063779  HIT:    1063779  MISS:          0
cpu0_ITLB RFO       ACCESS:          0  HIT:          0  MISS:          0
cpu0_ITLB PREFETCH  ACCESS:          0  HIT:          0  MISS:          0
cpu0_ITLB WRITEBACK ACCESS:          0  HIT:          0  MISS:          0
cpu0_L1I TOTAL     ACCESS:    6267570  HIT:    6267570  MISS:          0
cpu0_L1I LOAD      ACCESS:    6267570  HIT:    6267570  MISS:          0
cpu0_L1I RFO       ACCESS:          0  HIT:          0  MISS:          0
cpu0_L1I PREFETCH  ACCESS:          0  HIT:          0  MISS:          0
cpu0_L1I WRITEBACK ACCESS:          0  HIT:          0  MISS:          0
cpu0_STLB TOTAL     ACCESS:     375004  HIT:     314651  MISS:      60353
cpu0_STLB LOAD      ACCESS:     341722  HIT:     281369  MISS:      60353
cpu0_STLB RFO       ACCESS:      33282  HIT:      33282  MISS:          0
cpu0_STLB PREFETCH  ACCESS:          0  HIT:          0  MISS:          0
cpu0_STLB WRITEBACK ACCESS:          0  HIT:          0  MISS:          0
cpu0_L1D TOTAL     ACCESS:   29955116  HIT:   29443789  MISS:     511327
cpu0_L1D LOAD      ACCESS:   25600540  HIT:   25089753  MISS:     510787
cpu0_L1D RFO       ACCESS:    4294367  HIT:    4294367  MISS:          0
cpu0_L1D PREFETCH  ACCESS:          0  HIT:          0  MISS:          0
cpu0_L1D WRITEBACK ACCESS:          0  HIT:          0  MISS:          0
cpu0_L2C TOTAL     ACCESS:     751655  HIT:     334168  MISS:     417487
cpu0_L2C LOAD      ACCESS:     510787  HIT:      93342  MISS:     417445
cpu0_L2C RFO       ACCESS:          0  HIT:          0  MISS:          0
cpu0_L2C PREFETCH  ACCESS:          0  HIT:          0  MISS:          0
[...]
LLC WRITEBACK ACCESS:    8310879  HIT:    7576194  MISS:     734685
Finished CPU 0 instructions: 1500000000 cycles: 2746121167 cumulative IPC: 0.546225 (Simulation time: 27 hr 39 min 30 sec) 

ChampSim completed all CPUs

Region of Interest Statistics

CPU 0 cumulative IPC: 0.546225 instructions: 1500000000 cycles: 2746121167
cpu0_DTLB TOTAL     ACCESS:  602367294  HIT:  595211988  MISS:    7155306
cpu0_DTLB LOAD      ACCESS:  536922409  HIT:  531197775  MISS:    5724634
cpu0_DTLB RFO       ACCESS:   65444885  HIT:   64014213  MISS:    1430672
cpu0_DTLB PREFETCH  ACCESS:          0  HIT:          0  MISS:          0
cpu0_DTLB WRITEBACK ACCESS:          0  HIT:          0  MISS:          0
cpu0_DTLB TRANSLATION ACCESS:          0  HIT:          0  MISS:          0
cpu0_DTLB PREFETCH  REQUESTED:          0  ISSUED:          0  USEFUL:          0  USELESS:          0
cpu0_DTLB AVERAGE MISS LATENCY: 18.8701 cycles
cpu0_ITLB TOTAL     ACCESS:   26412202  HIT:   26412163  MISS:         39
cpu0_ITLB LOAD      ACCESS:   26412202  HIT:   26412163  MISS:         39
cpu0_ITLB RFO       ACCESS:          0  HIT:          0  MISS:          0
cpu0_ITLB PREFETCH  ACCESS:          0  HIT:          0  MISS:          0
cpu0_ITLB WRITEBACK ACCESS:          0  HIT:          0  MISS:          0
cpu0_ITLB TRANSLATION ACCESS:          0  HIT:          0  MISS:          0
cpu0_ITLB PREFETCH  REQUESTED:          0  ISSUED:          0  USEFUL:          0  USELESS:          0
cpu0_ITLB AVERAGE MISS LATENCY: 274.179 cycles
cpu0_L1I TOTAL     ACCESS:  115103786  HIT:  115102787  MISS:        999
cpu0_L1I LOAD      ACCESS:  115103786  HIT:  115102787  MISS:        999
cpu0_L1I RFO       ACCESS:          0  HIT:          0  MISS:          0
cpu0_L1I PREFETCH  ACCESS:          0  HIT:          0  MISS:          0
cpu0_L1I WRITEBACK ACCESS:          0  HIT:          0  MISS:          0
cpu0_L1I TRANSLATION ACCESS:          0  HIT:          0  MISS:          0
cpu0_L1I PREFETCH  REQUESTED:          0  ISSUED:          0  USEFUL:          0  USELESS:          0
cpu0_L1I AVERAGE MISS LATENCY: 331.248 cycles
cpu0_STLB TOTAL     ACCESS:    7155345  HIT:    6196607  MISS:     958738
cpu0_STLB LOAD      ACCESS:    5724673  HIT:    4766643  MISS:     958030
cpu0_STLB RFO       ACCESS:    1430672  HIT:    1429964  MISS:        708
cpu0_STLB PREFETCH  ACCESS:          0  HIT:          0  MISS:          0
cpu0_STLB WRITEBACK ACCESS:          0  HIT:          0  MISS:          0
cpu0_STLB TRANSLATION ACCESS:          0  HIT:          0  MISS:          0
cpu0_STLB PREFETCH  REQUESTED:          0  ISSUED:          0  USEFUL:          0  USELESS:          0
cpu0_STLB AVERAGE MISS LATENCY: 73.5736 cycles
cpu0_L1D TOTAL     ACCESS:  663651466  HIT:  644572044  MISS:   19079422
cpu0_L1D LOAD      ACCESS:  560271247  HIT:  541404257  MISS:   18866990
cpu0_L1D RFO       ACCESS:  102485928  HIT:  102320195  MISS:     165733
cpu0_L1D PREFETCH  ACCESS:          0  HIT:          0  MISS:          0
cpu0_L1D WRITEBACK ACCESS:          0  HIT:          0  MISS:          0
cpu0_L1D TRANSLATION ACCESS:     894291  HIT:     847592  MISS:      46699
cpu0_L1D PREFETCH  REQUESTED:          0  ISSUED:          0  USEFUL:          0  USELESS:          0
cpu0_L1D AVERAGE MISS LATENCY: 484.132 cycles
cpu0_L2C TOTAL     ACCESS:   27437038  HIT:    9871891  MISS:   17565147
cpu0_L2C LOAD      ACCESS:   18867989  HIT:    1430068  MISS:   17437921
cpu0_L2C RFO       ACCESS:     165733  HIT:      40326  MISS:     125407
cpu0_L2C PREFETCH  ACCESS:          0  HIT:          0  MISS:          0
cpu0_L2C WRITEBACK ACCESS:    8356617  HIT:    8356007  MISS:        610
cpu0_L2C TRANSLATION ACCESS:      46699  HIT:      45490  MISS:       1209
cpu0_L2C PREFETCH  REQUESTED:          0  ISSUED:          0  USEFUL:          0  USELESS:          0
cpu0_L2C AVERAGE MISS LATENCY: 513.871 cycles
LLC TOTAL     ACCESS:   25875414  HIT:    7884822  MISS:   17990592
LLC LOAD      ACCESS:   17437919  HIT:     218010  MISS:   17219909
LLC RFO       ACCESS:     125407  HIT:      90443  MISS:      34964
LLC PREFETCH  ACCESS:          0  HIT:          0  MISS:          0
LLC WRITEBACK ACCESS:    8310879  HIT:    7576194  MISS:     734685
LLC TRANSLATION ACCESS:       1209  HIT:        175  MISS:       1034
LLC PREFETCH  REQUESTED:          0  ISSUED:          0  USEFUL:          0  USELESS:          0
LLC AVERAGE MISS LATENCY: 481.216 cycles
~~~~~~~~~~Reuse Distance Profiler output~~~~~~~~~~
0	37713632	4347072
1	13743024	8973520
2	13269808	10277552
3	18532080	16100624
4	20573376	15322896
5	23488752	18270576
6	22385312	17027584
7	21349680	17899152
8	19943808	17116016
9	16071792	14705664
10	14986336	14070352
11	14322400	13570928
12	15236768	14785072
13	15536640	14920128
14	15928704	15573952
15	12472032	12016016
16	10068576	9709760
17	8879152	8373056
18	8535376	7767680
19	7957344	7405728
20	6788848	6247776
21	6498112	5959520
22	5194192	4683696
23	7078112	6051664
24	4737264	4135616
25	4405648	3945952
26	4390784	4002000
27	4283488	3889488
28	4130240	3657600
29	4014288	3650528
30	4087968	3694000
31	3909600	3491104
32	4164448	3703184
33	4023344	3485296
34	4020208	3464496
35	3934816	3354272
36	3535376	2987728
37	3678384	3115568
38	2872400	2395392
39	2996592	2441504
40	2808112	2316992
41	2596400	2094416
42	2455744	1952496
43	2267072	1774256
44	2282640	1802400
45	2259424	1791696
46	2173936	1734656
47	2060272	1658464
48	2142400	1688272
49	2057008	1655072
50	1915952	1526368
51	1885184	1531216
52	2079936	1770768
53	2275488	1931872
54	2259184	1971840
55	2367152	2105808
56	2411504	2156752
57	2376000	2135232
58	2367456	2158176
59	2473904	2289712
60	2337376	2167936
61	2453744	2302144
62	2341088	2197232
63	2425424	2276864
64	4529920	4275232
66	4767216	4532192
68	4616688	4398080
70	4668160	4512992
72	4876608	4671904
74	4984784	4771904
76	4941808	4702240
78	4817920	4590912
80	5097264	4851488
82	5438464	5167936
84	5621568	5296496
86	5416752	5114544
88	5757072	5410432
90	5988368	5674144
92	6050848	5722848
94	6128320	5757648
96	6555168	6082048
98	7132960	6476144
100	7612816	6845376
102	7865680	6927872
104	8181376	7210864
106	7977456	7013264
108	7621184	6761120
110	7448464	6604464
112	6560688	5820784
114	5351440	4769312
116	4087872	3677680
118	3244672	2896912
120	2689280	2406944
122	2114064	1868880
124	1733440	1506976
126	1436112	1266512
128	2144928	1867840
132	1588848	1426240
136	1163392	1058144
140	964928	902576
144	822096	784512
148	666016	611616
152	617520	569680
156	504288	478384
160	489616	436320
164	403520	348288
168	353152	337952
172	388320	361632
176	351520	320592
180	327280	311808
184	320528	308960
188	360448	342384
192	298352	289712
196	298784	297088
200	316464	316144
204	336864	336176
208	417376	415840
212	359840	359712
216	260160	259392
220	194976	190208
224	161760	157952
228	138128	123872
232	109232	93536
236	79200	70944
240	70880	65552
244	55056	52192
248	42384	40752
252	24304	24304
256	34832	33984
264	27568	25936
272	20224	18640
280	15008	14512
288	11024	11024
296	5152	5152
304	3088	2384
312	3696	1952
320	2624	496
328	1168	352
336	272	272
344	368	352
352	1104	544
360	1600	928
368	944	944
376	928	928
384	3376	2576
392	4800	3552
400	7360	6592
408	3920	3920
416	10448	10000
424	6832	6208
432	4928	4064
440	6128	5344
448	6688	6688
456	9360	9360
464	17360	17360
472	26448	26448
480	23888	23888
488	21152	21152
496	24640	24640
504	24032	24032
512	66704	66704
528	50496	50496
544	51616	51616
560	77712	77712
576	116832	116832
592	106192	106192
608	72544	72544
624	24080	23392
640	5664	5664
656	21280	21280
672	50768	49728
688	43680	43680
704	21136	20560
720	21936	21104
736	54880	53968
752	62560	61312
768	40720	40416
784	22976	21488
800	22048	22048
816	62944	62944
832	85536	84864
848	23616	23616
864	7344	6656
880	10512	10512
896	12048	12048
912	14064	14064
928	12512	12512
944	12752	12752
960	26688	26688
976	32736	32736
992	35552	35552
1008	34400	34400
1024	67264	67264
1056	191120	191120
1088	139536	139536
1120	112304	112304
1152	46480	46480
1184	109488	109488
1216	110960	110960
1248	92080	92080
1280	285440	285440
1312	403568	403536
1344	69200	69104
1376	505200	505200
1408	418960	418944
1440	12624	12608
1472	640	640
1504	432	432
1536	16	16
1568	16	16
1600	48	48
1632	80	80
1664	176	176
1696	112	112
1728	96	96
1760	576	576
1792	7232	7232
1824	33520	33520
1856	93920	93920
1888	156992	156992
1920	306288	306288
1952	652432	652432
1984	538976	538976
2016	370752	370752
2048	373824	373312
2112	36368	36368
2176	96	96
2240	0	0
2304	0	0
2368	0	0
2432	0	0
2496	0	0
2560	0	0
2624	0	0
2688	0	0
2752	0	0
2816	0	0
2880	0	0
2944	0	0
3008	0	0
3072	0	0
3136	800	800
3200	0	0
3264	0	0
3328	0	0
3392	16	0
3456	1616	0
3520	0	0
3584	0	0
3648	592	0
3712	0	0
3776	0	0
3840	0	0
3904	1392	0
3968	3968	832
4032	2576	0
4096	3120	832
4224	848	848
4352	2048	752
4480	6336	5648
4608	2736	2736
4736	224	224
4864	16	16
4992	64	0
5120	16	0
5248	0	0
5376	0	0
5504	144	128
5632	0	0
5760	16	0
5888	1648	1632
6016	2400	64
6144	10688	2720
6272	22480	17184
6400	11072	11072
6528	13232	13232
6656	15888	15888
6784	13808	13808
6912	7616	7616
7040	10096	10096
7168	8640	8640
7296	4080	4080
7424	1024	992
7552	352	352
7680	16	16
7808	32	0
7936	10144	10144
8064	720	704
8192	45520	45504
8448	32	0
8704	0	0
8960	6400	6368
9216	62496	62496
9472	3808	3792
9728	0	0
9984	48	16
10240	80	32
10496	16	0
10752	0	0
11008	16	16
11264	16	16
11520	32	32
11776	16	16
12032	48	16
12288	16	0
12544	32	0
12800	16	0
13056	0	0
13312	32	0
13568	32	0
13824	64	64
14080	48	48
14336	18688	18672
14592	3152	3152
14848	19424	19408
15104	26768	26768
15360	64	0
15616	0	0
15872	32	0
16128	0	0
16384	16	0
16896	16	0
17408	48	16
17920	16	0
18432	112	32
18944	16	0
19456	16	0
19968	32	16
20480	32	16
20992	64	0
21504	4576	4544
22016	674016	673968
22528	1343120	1343088
23040	226880	226864
23552	42656	42592
24064	496	448
24576	160	64
25088	112	80
25600	80	16
26112	0	0
26624	32	0
27136	32	0
27648	48	0
28160	0	0
28672	32	0
29184	64	0
29696	32	16
30208	112	0
30720	288	64
31232	384	16
31744	368	48
32256	496	32
32768	1152	96
33792	992	48
34816	1008	32
35840	1056	80
36864	1120	112
37888	992	64
38912	1136	64
39936	1264	64
40960	1024	96
41984	1152	32
43008	1072	48
44032	1168	80
45056	1088	32
46080	1136	80
47104	1296	16
48128	1120	32
49152	1248	80
50176	992	80
51200	1024	112
52224	944	64
53248	1184	80
54272	1152	96
55296	1024	80
56320	1040	16
57344	1072	48
58368	752	16
59392	1040	80
60416	1168	64
61440	1280	16
62464	1072	32
63488	1232	48
64512	1296	240
65536	2784	368
67584	2464	352
69632	2816	672
71680	2160	240
73728	2256	160
75776	1712	144
77824	944	272
79872	768	144
81920	976	224
83968	688	128
86016	592	208
88064	704	192
90112	1072	304
92160	1952	1216
94208	1440	784
96256	832	272
98304	784	176
100352	880	368
102400	944	288
104448	1104	448
106496	896	304
108544	768	384
110592	784	384
112640	368	272
114688	368	192
116736	832	656
118784	304	192
120832	992	688
122880	1056	688
124928	768	464
126976	944	560
129024	880	480
131072	1072	800
135168	1472	880
139264	2448	2048
143360	800	544
147456	1856	928
151552	1456	784
155648	1344	768
159744	1264	608
163840	1312	720
167936	528	320
172032	736	416
176128	1104	432
180224	1152	496
184320	1920	1360
188416	976	720
192512	816	384
196608	848	528
200704	944	784
204800	528	368
208896	1280	1008
212992	800	576
217088	1056	816
221184	1040	752
225280	784	608
229376	22688	22208
233472	42912	42624
237568	704	480
241664	656	432
245760	928	320
249856	4912	4496
253952	156736	156272
258048	69584	69232
262144	2496	1392
270336	59152	58672
278528	124672	124160
286720	2352	1264
294912	28672	27328
303104	246448	245536
311296	61824	61408
319488	283264	282368
327680	303280	302496
335872	1904	1264
344064	2240	1184
352256	1888	1024
360448	2000	1328
368640	1472	976
376832	1856	1504
385024	1632	912
393216	1968	1328
401408	2112	1280
409600	2928	2016
417792	849680	849088
425984	1508800	1507792
434176	1168	592
442368	3520	2000
450560	944	448
458752	1952	1184
466944	1088	624
475136	1584	960
483328	2352	1040
491520	1040	528
499712	1168	480
507904	2336	1936
516096	1568	768
524288	3600	1472
540672	2112	848
557056	3056	1136
573440	3552	2624
589824	2944	1840
606208	2800	1136
622592	2768	1056
638976	2848	1776
655360	2864	2080
671744	3280	1760
688128	4128	2352
704512	3312	1008
720896	2704	1152
737280	4000	1744
753664	1952	1152
770048	3184	1536
786432	3136	1504
802816	2688	1472
819200	2816	1696
835584	2832	1584
851968	2528	1232
868352	2688	1280
884736	1536	704
901120	624	160
917504	608	64
933888	528	32
950272	400	80
966656	144	64
983040	48	16
999424	80	48
1015808	48	48
1032192	64	64
1048576	112	112
1081344	64	64
1114112	96	96
1146880	80	80
1179648	64	48
1212416	64	48
1245184	64	48
1277952	80	80
1310720	64	32
1343488	48	48
1376256	4016	3952
1409024	3072	2288
1441792	1456	768
1474560	1712	992
1507328	1536	848
1540096	1520	896
1572864	1440	768
1605632	1440	736
1638400	1728	992
1671168	1408	688
1703936	1664	944
1736704	1520	880
1769472	1680	1024
1802240	1392	656
1835008	1664	1024
1867776	1424	752
1900544	1632	960
1933312	2176	1472
1966080	2592	1744
1998848	3152	1664
2031616	3104	1696
2064384	2960	1616
2097152	2016	672
2162688	688	448
2228224	384	384
2293760	528	528
2359296	384	384
2424832	432	432
2490368	416	416
2555904	368	368
2621440	624	624
2686976	416	416
2752512	496	496
2818048	544	544
2883584	352	352
2949120	560	560
3014656	336	336
3080192	400	400
3145728	784	784
3211264	608	608
3276800	288	288
3342336	464	464
3407872	480	480
3473408	368	368
3538944	560	560
3604480	448	448
3670016	528	528
3735552	384	384
3801088	464	464
3866624	400	400
3932160	560	560
3997696	368	368
4063232	464	464
4128768	432	432
4194304	1024	1024
4325376	976	976
4456448	1040	1040
4587520	2048	2048
4718592	2080	2080
4849664	256672	256672
4980736	464	464
5111808	448	448
5242880	512	512
5373952	1168	1168
5505024	832	832
5636096	1168	1168
5767168	1456	1456
5898240	2816	2816
6029312	3056	3056
6160384	2384	2384
6291456	1664	1664
6422528	1072	1072
6553600	1312	1312
6684672	1344	1344
6815744	2608	2608
6946816	3856	3856
7077888	3488	3488
7208960	1920	1920
7340032	1744	1744
7471104	1904	1904
7602176	1808	1808
7733248	1648	1648
7864320	1984	1984
7995392	1904	1904
8126464	1536	1536
8257536	1648	1648
8388608	3600	3600
8650752	4352	4352
8912896	3744	3744
9175040	3760	3760
9437184	4208	4208
9699328	3600	3600
9961472	3616	3616
10223616	3616	3616
10485760	3744	3744
10747904	3664	3664
11010048	3440	3440
11272192	3440	3440
11534336	3984	3984
11796480	3664	3664
12058624	3264	3264
12320768	3936	3936
12582912	4096	4096
12845056	3952	3952
13107200	3824	3824
13369344	3776	3776
13631488	3904	3904
13893632	3136	3136
14155776	3872	3872
14417920	3712	3712
14680064	3808	3808
14942208	4000	4000
15204352	3680	3680
15466496	3792	3792
15728640	3632	3632
15990784	4192	4192
16252928	3888	3888
16515072	3600	3600
16777216	8432	8432
17301504	7568	7568
17825792	8256	8256
18350080	8448	8448
18874368	8192	8192
19398656	7824	7824
19922944	8416	8416
20447232	8672	8672
20971520	8784	8784
21495808	8816	8816
22020096	8272	8272
22544384	7056	7056
23068672	6880	6880
23592960	7072	7072
24117248	7184	7184
24641536	7248	7248
25165824	6928	6928
25690112	7200	7200
26214400	7232	7232
26738688	6816	6816
27262976	7072	7072
27787264	7136	7136
28311552	7296	7296
28835840	6864	6864
29360128	6240	6240
29884416	7040	7040
30408704	7088	7088
30932992	6848	6848
31457280	7888	7888
31981568	7232	7232
32505856	7568	7568
33030144	7808	7808
33554432	14000	14000
34603008	13888	13888
35651584	13760	13760
36700160	13568	13568
37748736	15120	15120
38797312	14736	14736
39845888	14864	14864
40894464	14288	14288
41943040	14000	14000
42991616	15024	15024
44040192	14096	14096
45088768	13760	13760
46137344	14848	14848
47185920	14320	14320
48234496	14304	14304
49283072	14128	14128
50331648	14016	14016
51380224	14672	14672
52428800	14336	14336
53477376	14176	14176
54525952	14608	14608
55574528	14544	14544
56623104	13856	13856
57671680	13776	13776
58720256	13600	13600
59768832	13872	13872
60817408	14752	14752
61865984	14000	14000
62914560	14816	14816
63963136	15024	15024
65011712	14160	14160
66060288	15136	15136
67108864	36784	36784
69206016	38528	38528
71303168	38864	38864
73400320	36464	36464
75497472	36944	36944
77594624	141360	141360
79691776	69568	69568
81788928	39072	39072
83886080	30416	30416
85983232	30720	30720
88080384	25680	25664
90177536	22880	22864
92274688	11136	11136
94371840	4880	4880
96468992	4096	4096
98566144	2848	2848
100663296	1616	1616
102760448	1280	1280
104857600	1344	1344
106954752	1392	1392
109051904	1328	1328
111149056	1408	1408
113246208	1376	1376
115343360	1536	1536
117440512	1440	1440
119537664	1344	1344
121634816	1584	1584
123731968	1184	1184
125829120	1664	1664
127926272	1456	1456
130023424	1328	1328
132120576	2736	2736
134217728	8640	8640
138412032	11376	11376
142606336	12256	12256
146800640	16448	16448
150994944	55088	55088
155189248	50752	50752
159383552	49376	49376
163577856	48544	48544
167772160	34832	34832
171966464	1152	1152
176160768	1744	1744
180355072	1824	1824
184549376	1584	1568
188743680	1776	1776
192937984	1840	1840
197132288	3056	3056
201326592	3296	3296
205520896	2928	2928
209715200	7104	7104
213909504	6064	6064
218103808	5840	5840
222298112	3520	3520
226492416	3264	3264
230686720	3520	3520
234881024	2512	2512
239075328	2464	2464
243269632	2800	2800
247463936	3616	3616
251658240	2720	2704
255852544	2864	2864
260046848	3216	3216
264241152	3024	3024
268435456	5568	5568
276824064	7568	7568
285212672	12592	12592
293601280	15456	15456
301989888	6416	6416
310378496	3856	3856
318767104	2048	2048
327155712	1056	1040
335544320	15504	15504
343932928	89600	89600
352321536	113408	113408
360710144	60672	60672
369098752	22304	22304
377487360	16640	16640
385875968	11600	11600
394264576	11280	11280
402653184	12448	12448
411041792	12832	12832
419430400	11840	11840
427819008	252832	252832
436207616	12400	12400
444596224	5888	5888
452984832	2016	2016
461373440	1920	1920
469762048	2528	2528
478150656	1920	1920
486539264	2000	2000
494927872	2320	2320
503316480	404784	404784
511705088	405392	405392
520093696	784	784
528482304	960	960
536870912	1744	1744
553648128	1568	1568
570425344	1040	1040
587202560	192	192
603979776	0	0
620756992	0	0
637534208	0	0
654311424	0	0
671088640	0	0
687865856	0	0
704643072	0	0
721420288	0	0
738197504	0	0
754974720	0	0
771751936	0	0
788529152	0	0
805306368	0	0
822083584	0	0
838860800	0	0
855638016	0	0
872415232	0	0
889192448	0	0
905969664	0	0
922746880	0	0
939524096	0	0
956301312	0	0
973078528	0	0
989855744	0	0
1006632960	0	0
1023410176	0	0
1040187392	0	0
1056964608	0	0
1073741824	0	0
1107296256	0	0
1140850688	0	0
1174405120	0	0
1207959552	0	0
1241513984	0	0
1275068416	0	0
1308622848	0	0
1342177280	0	0
1375731712	0	0
1409286144	0	0
1442840576	0	0
1476395008	0	0
1509949440	0	0
1543503872	0	0
1577058304	0	0
1610612736	0	0
1644167168	0	0
1677721600	0	0
1711276032	0	0
1744830464	0	0
1778384896	0	0
1811939328	0	0
1845493760	0	0
1879048192	0	0
1912602624	0	0
1946157056	0	0
1979711488	0	0
2013265920	0	0
2046820352	0	0
2080374784	0	0
2113929216	0	0
2147483648	0	0
2214592512	0	0
2281701376	0	0
2348810240	0	0
2415919104	0	0
2483027968	0	0
2550136832	0	0
2617245696	0	0
2684354560	0	0
2751463424	0	0
2818572288	0	0
2885681152	0	0
2952790016	0	0
3019898880	0	0
3087007744	0	0
3154116608	0	0
3221225472	0	0
3288334336	0	0
3355443200	0	0
3422552064	0	0
3489660928	0	0
3556769792	0	0
3623878656	0	0
3690987520	0	0
3758096384	0	0
3825205248	0	0
3892314112	0	0
3959422976	0	0
4026531840	0	0
4093640704	0	0
4160749568	0	0
4227858432	0	0
~~~~~~~~~~Reuse Distance Profiler output end~~~~~~~~~~

Sampler size:733295

DRAM Statistics
 CHANNEL 0
 RQ ROW_BUFFER_HIT:      65635  ROW_BUFFER_MISS:   17190237
 DBUS AVG_CONGESTED_CYCLE:     3.9847
 WQ ROW_BUFFER_HIT:     475207  ROW_BUFFER_MISS:    7743758  FULL:          0


CPU 0 Branch Prediction Accuracy: 94.9715% MPKI: 0.928899 Average ROB Occupancy at Mispredict: 129.681
Branch type MPKI
BRANCH_DIRECT_JUMP: 5e-05
BRANCH_INDIRECT: 1.33333e-06
BRANCH_CONDITIONAL: 0.928693
BRANCH_DIRECT_CALL: 8e-05
BRANCH_INDIRECT_CALL: 0
BRANCH_RETURN: 7.46667e-05

