
*** ChampSim Multicore Out-of-Order Simulator ***

Warmup Instructions: 50000000
Simulation Instructions: 1500000000
Number of CPUs: 1
Off-chip DRAM Size: 4 GiB Channels: 1 Width: 64-bit Data Rate: 3200 MT/s

VirtualMemory physical capacity: 8588881920 num_ppages: 2096895
VirtualMemory page size: 4096 log2_page_size: 12

CPU 0 runs /s/traces/champsim_traces/459.GemsFDTD-1418B.champsimtrace.xz
CPU 0 Bimodal branch predictor
Basic BTB sets: 1024 ways: 8 indirect buffer size: 4096 RAS size: 64
Initializing LRU.
Initializing LRU.
Initializing LRU.
Initializing LRU.
Initializing rdLRU.
Initializing LRU.
Heartbeat CPU 0 instructions: 2000000 cycles: 1136866 heartbeat IPC: 1.75922 cumulative IPC: 1.75922 (Simulation time: 0 hr 2 min 28 sec) 
Heartbeat CPU 0 instructions: 4000001 cycles: 2273588 heartbeat IPC: 1.75945 cumulative IPC: 1.75933 (Simulation time: 0 hr 4 min 49 sec) 
Heartbeat CPU 0 instructions: 6000003 cycles: 3410313 heartbeat IPC: 1.75944 cumulative IPC: 1.75937 (Simulation time: 0 hr 7 min 12 sec) 
Heartbeat CPU 0 instructions: 8000000 cycles: 4547045 heartbeat IPC: 1.75943 cumulative IPC: 1.75938 (Simulation time: 0 hr 9 min 34 sec) 
Heartbeat CPU 0 instructions: 10000000 cycles: 5683773 heartbeat IPC: 1.75944 cumulative IPC: 1.75939 (Simulation time: 0 hr 11 min 54 sec) 
Heartbeat CPU 0 instructions: 12000001 cycles: 6820520 heartbeat IPC: 1.75941 cumulative IPC: 1.7594 (Simulation time: 0 hr 14 min 18 sec) 
Heartbeat CPU 0 instructions: 14000003 cycles: 7957251 heartbeat IPC: 1.75943 cumulative IPC: 1.7594 (Simulation time: 0 hr 16 min 40 sec) 
Heartbeat CPU 0 instructions: 16000003 cycles: 9093974 heartbeat IPC: 1.75944 cumulative IPC: 1.75941 (Simulation time: 0 hr 19 min 5 sec) 
Heartbeat CPU 0 instructions: 18000004 cycles: 10230709 heartbeat IPC: 1.75943 cumulative IPC: 1.75941 (Simulation time: 0 hr 21 min 40 sec) 
Heartbeat CPU 0 instructions: 20000001 cycles: 11367433 heartbeat IPC: 1.75944 cumulative IPC: 1.75941 (Simulation time: 0 hr 24 min 24 sec) 
Heartbeat CPU 0 instructions: 22000000 cycles: 12504168 heartbeat IPC: 1.75942 cumulative IPC: 1.75941 (Simulation time: 0 hr 27 min 9 sec) 
Heartbeat CPU 0 instructions: 24000002 cycles: 13640891 heartbeat IPC: 1.75945 cumulative IPC: 1.75942 (Simulation time: 0 hr 29 min 51 sec) 
Heartbeat CPU 0 instructions: 26000001 cycles: 14777612 heartbeat IPC: 1.75945 cumulative IPC: 1.75942 (Simulation time: 0 hr 32 min 38 sec) 
Heartbeat CPU 0 instructions: 28000004 cycles: 15914371 heartbeat IPC: 1.75939 cumulative IPC: 1.75942 (Simulation time: 0 hr 35 min 19 sec) 
Heartbeat CPU 0 instructions: 30000001 cycles: 17051090 heartbeat IPC: 1.75945 cumulative IPC: 1.75942 (Simulation time: 0 hr 38 min 4 sec) 
Heartbeat CPU 0 instructions: 32000003 cycles: 18187819 heartbeat IPC: 1.75944 cumulative IPC: 1.75942 (Simulation time: 0 hr 40 min 53 sec) 
Heartbeat CPU 0 instructions: 34000002 cycles: 19329323 heartbeat IPC: 1.75207 cumulative IPC: 1.75899 (Simulation time: 0 hr 43 min 40 sec) 
Heartbeat CPU 0 instructions: 36000001 cycles: 20466104 heartbeat IPC: 1.75935 cumulative IPC: 1.75901 (Simulation time: 0 hr 46 min 31 sec) 
Heartbeat CPU 0 instructions: 38000001 cycles: 21602878 heartbeat IPC: 1.75936 cumulative IPC: 1.75902 (Simulation time: 0 hr 49 min 22 sec) 
Heartbeat CPU 0 instructions: 40000000 cycles: 22739653 heartbeat IPC: 1.75936 cumulative IPC: 1.75904 (Simulation time: 0 hr 52 min 9 sec) 
Heartbeat CPU 0 instructions: 42000002 cycles: 23876437 heartbeat IPC: 1.75935 cumulative IPC: 1.75906 (Simulation time: 0 hr 54 min 59 sec) 
Heartbeat CPU 0 instructions: 44000001 cycles: 25013194 heartbeat IPC: 1.75939 cumulative IPC: 1.75907 (Simulation time: 0 hr 57 min 55 sec) 
Heartbeat CPU 0 instructions: 46000000 cycles: 26149973 heartbeat IPC: 1.75936 cumulative IPC: 1.75908 (Simulation time: 1 hr 0 min 50 sec) 
Heartbeat CPU 0 instructions: 48000003 cycles: 27286751 heartbeat IPC: 1.75936 cumulative IPC: 1.7591 (Simulation time: 1 hr 3 min 34 sec) 
Heartbeat CPU 0 instructions: 50000000 cycles: 28423521 heartbeat IPC: 1.75937 cumulative IPC: 1.75911 (Simulation time: 1 hr 6 min 24 sec) 

Warmup complete CPU 0 instructions: 50000004 cycles: 28423522 (Simulation time: 1 hr 6 min 24 sec) 

Heartbeat CPU 0 instructions: 52000000 cycles: 31123434 heartbeat IPC: 0.740765 cumulative IPC: 0.740763 (Simulation time: 1 hr 10 min 9 sec) 

Region of Interest Statistics
cpu0_DTLB TOTAL     ACCESS:     945371  HIT:     941181  MISS:       4190
cpu0_DTLB LOAD      ACCESS:     866842  HIT:     864857  MISS:       1985
cpu0_DTLB RFO       ACCESS:      78529  HIT:      76324  MISS:       2205
cpu0_DTLB PREFETCH  ACCESS:          0  HIT:          0  MISS:          0
cpu0_DTLB WRITEBACK ACCESS:          0  HIT:          0  MISS:          0
cpu0_ITLB TOTAL     ACCESS:      34512  HIT:      34512  MISS:          0
cpu0_ITLB LOAD      ACCESS:      34512  HIT:      34512  MISS:          0
cpu0_ITLB RFO       ACCESS:          0  HIT:          0  MISS:          0
cpu0_ITLB PREFETCH  ACCESS:          0  HIT:          0  MISS:          0
cpu0_ITLB WRITEBACK ACCESS:          0  HIT:          0  MISS:          0
cpu0_L1I TOTAL     ACCESS:     220674  HIT:     220674  MISS:          0
cpu0_L1I LOAD      ACCESS:     220674  HIT:     220674  MISS:          0
cpu0_L1I RFO       ACCESS:          0  HIT:          0  MISS:          0
cpu0_L1I PREFETCH  ACCESS:          0  HIT:          0  MISS:          0
cpu0_L1I WRITEBACK ACCESS:          0  HIT:          0  MISS:          0
cpu0_STLB TOTAL     ACCESS:       4190  HIT:       3999  MISS:        191
cpu0_STLB LOAD      ACCESS:       1985  HIT:       1794  MISS:        191
cpu0_STLB RFO       ACCESS:       2205  HIT:       2205  MISS:          0
cpu0_STLB PREFETCH  ACCESS:          0  HIT:          0  MISS:          0
cpu0_STLB WRITEBACK ACCESS:          0  HIT:          0  MISS:          0
cpu0_L1D TOTAL     ACCESS:    1103441  HIT:    1089062  MISS:      14379
cpu0_L1D LOAD      ACCESS:     985023  HIT:     970764  MISS:      14259
cpu0_L1D RFO       ACCESS:     118238  HIT:     118238  MISS:          0
cpu0_L1D PREFETCH  ACCESS:          0  HIT:          0  MISS:          0
cpu0_L1D WRITEBACK ACCESS:          0  HIT:          0  MISS:          0
cpu0_L2C TOTAL     ACCESS:      21840  HIT:       7924  MISS:      13916
cpu0_L2C LOAD      ACCESS:      14259  HIT:        345  MISS:      13914
cpu0_L2C RFO       ACCESS:          0  HIT:          0  MISS:          0
cpu0_L2C PREFETCH  ACCESS:          0  HIT:          0  MISS:          0
cpu0_L2C WRITEBACK ACCESS:       7461  HIT:       7459  MISS:          2
LLC TOTAL     ACCESS:      21527  HIT:       8996  MISS:      12531
LLC LOAD      ACCESS:      13914  HIT:       1504  MISS:      12410
LLC RFO       ACCESS:          0  HIT:          0  MISS:          0
LLC PREFETCH  ACCESS:          0  HIT:          0  MISS:          0
LLC WRITEBACK ACCESS:       7613  HIT:       7492  MISS:        121
Heartbeat CPU 0 instructions: 54000001 cycles: 33854264 heartbeat IPC: 0.732378 cumulative IPC: 0.736547 (Simulation time: 1 hr 13 min 58 sec) 

Region of Interest Statistics
cpu0_DTLB TOTAL     ACCESS:    1894692  HIT:    1868794  MISS:      25898
cpu0_DTLB LOAD      ACCESS:    1738387  HIT:    1724673  MISS:      13714
cpu0_DTLB RFO       ACCESS:     156305  HIT:     144121  MISS:      12184
cpu0_DTLB PREFETCH  ACCESS:          0  HIT:          0  MISS:          0
cpu0_DTLB WRITEBACK ACCESS:          0  HIT:          0  MISS:          0
cpu0_ITLB TOTAL     ACCESS:      69031  HIT:      69031  MISS:          0
cpu0_ITLB LOAD      ACCESS:      69031  HIT:      69031  MISS:          0
cpu0_ITLB RFO       ACCESS:          0  HIT:          0  MISS:          0
cpu0_ITLB PREFETCH  ACCESS:          0  HIT:          0  MISS:          0
cpu0_ITLB WRITEBACK ACCESS:          0  HIT:          0  MISS:          0
cpu0_L1I TOTAL     ACCESS:     443095  HIT:     443095  MISS:          0
cpu0_L1I LOAD      ACCESS:     443095  HIT:     443095  MISS:          0
cpu0_L1I RFO       ACCESS:          0  HIT:          0  MISS:          0
cpu0_L1I PREFETCH  ACCESS:          0  HIT:          0  MISS:          0
cpu0_L1I WRITEBACK ACCESS:          0  HIT:          0  MISS:          0
cpu0_STLB TOTAL     ACCESS:      25898  HIT:      25522  MISS:        376
cpu0_STLB LOAD      ACCESS:      13714  HIT:      13338  MISS:        376
cpu0_STLB RFO       ACCESS:      12184  HIT:      12184  MISS:          0
cpu0_STLB PREFETCH  ACCESS:          0  HIT:          0  MISS:          0
cpu0_STLB WRITEBACK ACCESS:          0  HIT:          0  MISS:          0
cpu0_L1D TOTAL     ACCESS:    2210857  HIT:    2182093  MISS:      28764
cpu0_L1D LOAD      ACCESS:    1974042  HIT:    1945522  MISS:      28520
cpu0_L1D RFO       ACCESS:     236461  HIT:     236461  MISS:          0
cpu0_L1D PREFETCH  ACCESS:          0  HIT:          0  MISS:          0
cpu0_L1D WRITEBACK ACCESS:          0  HIT:          0  MISS:          0
cpu0_L2C TOTAL     ACCESS:      43703  HIT:      15942  MISS:      27761
cpu0_L2C LOAD      ACCESS:      28520  HIT:        767  MISS:      27753
cpu0_L2C RFO       ACCESS:          0  HIT:          0  MISS:          0
cpu0_L2C PREFETCH  ACCESS:          0  HIT:          0  MISS:          0
cpu0_L2C WRITEBACK ACCESS:      14939  HIT:      14932  MISS:          7
LLC TOTAL     ACCESS:      42508  HIT:      17397  MISS:      25111
LLC LOAD      ACCESS:      27753  HIT:       2805  MISS:      24948
LLC RFO       ACCESS:          0  HIT:          0  MISS:          0
LLC PREFETCH  ACCESS:          0  HIT:          0  MISS:          0
LLC WRITEBACK ACCESS:      14754  HIT:      14591  MISS:        163
Heartbeat CPU 0 instructions: 56000000 cycles: 36551031 heartbeat IPC: 0.741628 cumulative IPC: 0.738233 (Simulation time: 1 hr 17 min 38 sec) 

Region of Interest Statistics
cpu0_DTLB TOTAL     ACCESS:    2841805  HIT:    2813289  MISS:      28516
cpu0_DTLB LOAD      ACCESS:    2606973  HIT:    2592147  MISS:      14826
cpu0_DTLB RFO       ACCESS:     234832  HIT:     221142  MISS:      13690
cpu0_DTLB PREFETCH  ACCESS:          0  HIT:          0  MISS:          0
cpu0_DTLB WRITEBACK ACCESS:          0  HIT:          0  MISS:          0
cpu0_ITLB TOTAL     ACCESS:     103537  HIT:     103537  MISS:          0
cpu0_ITLB LOAD      ACCESS:     103537  HIT:     103537  MISS:          0
cpu0_ITLB RFO       ACCESS:          0  HIT:          0  MISS:          0
cpu0_ITLB PREFETCH  ACCESS:          0  HIT:          0  MISS:          0
cpu0_ITLB WRITEBACK ACCESS:          0  HIT:          0  MISS:          0
cpu0_L1I TOTAL     ACCESS:     663801  HIT:     663801  MISS:          0
cpu0_L1I LOAD      ACCESS:     663801  HIT:     663801  MISS:          0
cpu0_L1I RFO       ACCESS:          0  HIT:          0  MISS:          0
cpu0_L1I PREFETCH  ACCESS:          0  HIT:          0  MISS:          0
cpu0_L1I WRITEBACK ACCESS:          0  HIT:          0  MISS:          0
cpu0_STLB TOTAL     ACCESS:      28516  HIT:      27951  MISS:        565
cpu0_STLB LOAD      ACCESS:      14826  HIT:      14261  MISS:        565
cpu0_STLB RFO       ACCESS:      13690  HIT:      13690  MISS:          0
cpu0_STLB PREFETCH  ACCESS:          0  HIT:          0  MISS:          0
cpu0_STLB WRITEBACK ACCESS:          0  HIT:          0  MISS:          0
cpu0_L1D TOTAL     ACCESS:    3313778  HIT:    3270479  MISS:      43299
cpu0_L1D LOAD      ACCESS:    2958554  HIT:    2915626  MISS:      42928
cpu0_L1D RFO       ACCESS:     354691  HIT:     354691  MISS:          0
cpu0_L1D PREFETCH  ACCESS:          0  HIT:          0  MISS:          0
cpu0_L1D WRITEBACK ACCESS:          0  HIT:          0  MISS:          0
cpu0_L2C TOTAL     ACCESS:      65747  HIT:      24165  MISS:      41582
cpu0_L2C LOAD      ACCESS:      42928  HIT:       1356  MISS:      41572
cpu0_L2C RFO       ACCESS:          0  HIT:          0  MISS:          0
cpu0_L2C PREFETCH  ACCESS:          0  HIT:          0  MISS:          0
cpu0_L2C WRITEBACK ACCESS:      22448  HIT:      22439  MISS:          9
LLC TOTAL     ACCESS:      63928  HIT:      26068  MISS:      37860
LLC LOAD      ACCESS:      41572  HIT:       3939  MISS:      37633
LLC RFO       ACCESS:          0  HIT:          0  MISS:          0
LLC PREFETCH  ACCESS:          0  HIT:          0  MISS:          0
LLC WRITEBACK ACCESS:      22355  HIT:      22128  MISS:        227
Heartbeat CPU 0 instructions: 58000001 cycles: 39275953 heartbeat IPC: 0.733966 cumulative IPC: 0.737162 (Simulation time: 1 hr 21 min 21 sec) 

Region of Interest Statistics
cpu0_DTLB TOTAL     ACCESS:    3792895  HIT:    3752018  MISS:      40877
cpu0_DTLB LOAD      ACCESS:    3479826  HIT:    3459274  MISS:      20552
cpu0_DTLB RFO       ACCESS:     313069  HIT:     292744  MISS:      20325
cpu0_DTLB PREFETCH  ACCESS:          0  HIT:          0  MISS:          0
cpu0_DTLB WRITEBACK ACCESS:          0  HIT:          0  MISS:          0
cpu0_ITLB TOTAL     ACCESS:     138041  HIT:     138041  MISS:          0
cpu0_ITLB LOAD      ACCESS:     138041  HIT:     138041  MISS:          0
cpu0_ITLB RFO       ACCESS:          0  HIT:          0  MISS:          0
cpu0_ITLB PREFETCH  ACCESS:          0  HIT:          0  MISS:          0
cpu0_ITLB WRITEBACK ACCESS:          0  HIT:          0  MISS:          0
cpu0_L1I TOTAL     ACCESS:     885654  HIT:     885654  MISS:          0
cpu0_L1I LOAD      ACCESS:     885654  HIT:     885654  MISS:          0
cpu0_L1I RFO       ACCESS:          0  HIT:          0  MISS:          0
cpu0_L1I PREFETCH  ACCESS:          0  HIT:          0  MISS:          0
cpu0_L1I WRITEBACK ACCESS:          0  HIT:          0  MISS:          0
cpu0_STLB TOTAL     ACCESS:      40877  HIT:      40129  MISS:        748
cpu0_STLB LOAD      ACCESS:      20552  HIT:      19804  MISS:        748
cpu0_STLB RFO       ACCESS:      20325  HIT:      20325  MISS:          0
cpu0_STLB PREFETCH  ACCESS:          0  HIT:          0  MISS:          0
cpu0_STLB WRITEBACK ACCESS:          0  HIT:          0  MISS:          0
cpu0_L1D TOTAL     ACCESS:    4420693  HIT:    4362812  MISS:      57881
cpu0_L1D LOAD      ACCESS:    3947083  HIT:    3889689  MISS:      57394
cpu0_L1D RFO       ACCESS:     472907  HIT:     472907  MISS:          0
cpu0_L1D PREFETCH  ACCESS:          0  HIT:          0  MISS:          0
cpu0_L1D WRITEBACK ACCESS:          0  HIT:          0  MISS:          0
cpu0_L2C TOTAL     ACCESS:      87772  HIT:      32378  MISS:      55394
cpu0_L2C LOAD      ACCESS:      57394  HIT:       2010  MISS:      55384
cpu0_L2C RFO       ACCESS:          0  HIT:          0  MISS:          0
cpu0_L2C PREFETCH  ACCESS:          0  HIT:          0  MISS:          0
cpu0_L2C WRITEBACK ACCESS:      29891  HIT:      29882  MISS:          9
LLC TOTAL     ACCESS:      85235  HIT:      34672  MISS:      50563
LLC LOAD      ACCESS:      55384  HIT:       5065  MISS:      50319
LLC RFO       ACCESS:          0  HIT:          0  MISS:          0
LLC PREFETCH  ACCESS:          0  HIT:          0  MISS:          0
LLC WRITEBACK ACCESS:      29850  HIT:      29606  MISS:        244
Heartbeat CPU 0 instructions: 60000003 cycles: 42004549 heartbeat IPC: 0.732978 cumulative IPC: 0.736321 (Simulation time: 1 hr 24 min 52 sec) 

Region of Interest Statistics
cpu0_DTLB TOTAL     ACCESS:    4742314  HIT:    4689658  MISS:      52656
cpu0_DTLB LOAD      ACCESS:    4351288  HIT:    4324002  MISS:      27286
cpu0_DTLB RFO       ACCESS:     391026  HIT:     365656  MISS:      25370
cpu0_DTLB PREFETCH  ACCESS:          0  HIT:          0  MISS:          0
cpu0_DTLB WRITEBACK ACCESS:          0  HIT:          0  MISS:          0
cpu0_ITLB TOTAL     ACCESS:     172550  HIT:     172550  MISS:          0
cpu0_ITLB LOAD      ACCESS:     172550  HIT:     172550  MISS:          0
cpu0_ITLB RFO       ACCESS:          0  HIT:          0  MISS:          0
cpu0_ITLB PREFETCH  ACCESS:          0  HIT:          0  MISS:          0
cpu0_ITLB WRITEBACK ACCESS:          0  HIT:          0  MISS:          0
cpu0_L1I TOTAL     ACCESS:    1107046  HIT:    1107046  MISS:          0
cpu0_L1I LOAD      ACCESS:    1107046  HIT:    1107046  MISS:          0
cpu0_L1I RFO       ACCESS:          0  HIT:          0  MISS:          0
cpu0_L1I PREFETCH  ACCESS:          0  HIT:          0  MISS:          0
cpu0_L1I WRITEBACK ACCESS:          0  HIT:          0  MISS:          0
cpu0_STLB TOTAL     ACCESS:      52656  HIT:      51722  MISS:        934
cpu0_STLB LOAD      ACCESS:      27286  HIT:      26352  MISS:        934
cpu0_STLB RFO       ACCESS:      25370  HIT:      25370  MISS:          0
cpu0_STLB PREFETCH  ACCESS:          0  HIT:          0  MISS:          0
cpu0_STLB WRITEBACK ACCESS:          0  HIT:          0  MISS:          0
cpu0_L1D TOTAL     ACCESS:    5526471  HIT:    5454065  MISS:      72406
cpu0_L1D LOAD      ACCESS:    4934459  HIT:    4862658  MISS:      71801
cpu0_L1D RFO       ACCESS:     591131  HIT:     591131  MISS:          0
cpu0_L1D PREFETCH  ACCESS:          0  HIT:          0  MISS:          0
cpu0_L1D WRITEBACK ACCESS:          0  HIT:          0  MISS:          0
cpu0_L2C TOTAL     ACCESS:     109802  HIT:      40599  MISS:      69203
cpu0_L2C LOAD      ACCESS:      71801  HIT:       2608  MISS:      69193
cpu0_L2C RFO       ACCESS:          0  HIT:          0  MISS:          0
cpu0_L2C PREFETCH  ACCESS:          0  HIT:          0  MISS:          0
cpu0_L2C WRITEBACK ACCESS:      37396  HIT:      37387  MISS:          9
LLC TOTAL     ACCESS:     106549  HIT:      43147  MISS:      63402
LLC LOAD      ACCESS:      69193  HIT:       6064  MISS:      63129
LLC RFO       ACCESS:          0  HIT:          0  MISS:          0
LLC PREFETCH  ACCESS:          0  HIT:          0  MISS:          0
LLC WRITEBACK ACCESS:      37355  HIT:      37082  MISS:        273
Heartbeat CPU 0 instructions: 62000001 cycles: 44741964 heartbeat IPC: 0.730616 cumulative IPC: 0.735364 (Simulation time: 1 hr 28 min 27 sec) 

Region of Interest Statistics
cpu0_DTLB TOTAL     ACCESS:    5692593  HIT:    5625000  MISS:      67593
cpu0_DTLB LOAD      ACCESS:    5223905  HIT:    5187786  MISS:      36119
cpu0_DTLB RFO       ACCESS:     468688  HIT:     437214  MISS:      31474
cpu0_DTLB PREFETCH  ACCESS:          0  HIT:          0  MISS:          0
cpu0_DTLB WRITEBACK ACCESS:          0  HIT:          0  MISS:          0
cpu0_ITLB TOTAL     ACCESS:     207060  HIT:     207060  MISS:          0
cpu0_ITLB LOAD      ACCESS:     207060  HIT:     207060  MISS:          0
cpu0_ITLB RFO       ACCESS:          0  HIT:          0  MISS:          0
cpu0_ITLB PREFETCH  ACCESS:          0  HIT:          0  MISS:          0
cpu0_ITLB WRITEBACK ACCESS:          0  HIT:          0  MISS:          0
cpu0_L1I TOTAL     ACCESS:    1328764  HIT:    1328764  MISS:          0
cpu0_L1I LOAD      ACCESS:    1328764  HIT:    1328764  MISS:          0
cpu0_L1I RFO       ACCESS:          0  HIT:          0  MISS:          0
cpu0_L1I PREFETCH  ACCESS:          0  HIT:          0  MISS:          0
cpu0_L1I WRITEBACK ACCESS:          0  HIT:          0  MISS:          0
cpu0_STLB TOTAL     ACCESS:      67593  HIT:      66462  MISS:       1131
cpu0_STLB LOAD      ACCESS:      36119  HIT:      34988  MISS:       1131
cpu0_STLB RFO       ACCESS:      31474  HIT:      31474  MISS:          0
cpu0_STLB PREFETCH  ACCESS:          0  HIT:          0  MISS:          0
cpu0_STLB WRITEBACK ACCESS:          0  HIT:          0  MISS:          0
cpu0_L1D TOTAL     ACCESS:    6633601  HIT:    6546911  MISS:      86690
cpu0_L1D LOAD      ACCESS:    5923166  HIT:    5837201  MISS:      85965
cpu0_L1D RFO       ACCESS:     709369  HIT:     709369  MISS:          0
cpu0_L1D PREFETCH  ACCESS:          0  HIT:          0  MISS:          0
cpu0_L1D WRITEBACK ACCESS:          0  HIT:          0  MISS:          0
cpu0_L2C TOTAL     ACCESS:     131602  HIT:      48474  MISS:      83128
cpu0_L2C LOAD      ACCESS:      85965  HIT:       2849  MISS:      83116
cpu0_L2C RFO       ACCESS:          0  HIT:          0  MISS:          0
cpu0_L2C PREFETCH  ACCESS:          0  HIT:          0  MISS:          0
cpu0_L2C WRITEBACK ACCESS:      44912  HIT:      44901  MISS:         11
LLC TOTAL     ACCESS:     127860  HIT:      51365  MISS:      76495
LLC LOAD      ACCESS:      83116  HIT:       6995  MISS:      76121
LLC RFO       ACCESS:          0  HIT:          0  MISS:          0
LLC PREFETCH  ACCESS:          0  HIT:          0  MISS:          0
LLC WRITEBACK ACCESS:      44743  HIT:      44369  MISS:        374
Heartbeat CPU 0 instructions: 64000001 cycles: 47503800 heartbeat IPC: 0.724156 cumulative IPC: 0.733742 (Simulation time: 1 hr 32 min 8 sec) 

Region of Interest Statistics
cpu0_DTLB TOTAL     ACCESS:    6642415  HIT:    6559919  MISS:      82496
cpu0_DTLB LOAD      ACCESS:    6095442  HIT:    6052258  MISS:      43184
cpu0_DTLB RFO       ACCESS:     546973  HIT:     507661  MISS:      39312
cpu0_DTLB PREFETCH  ACCESS:          0  HIT:          0  MISS:          0
cpu0_DTLB WRITEBACK ACCESS:          0  HIT:          0  MISS:          0
cpu0_ITLB TOTAL     ACCESS:     241568  HIT:     241568  MISS:          0
cpu0_ITLB LOAD      ACCESS:     241568  HIT:     241568  MISS:          0
cpu0_ITLB RFO       ACCESS:          0  HIT:          0  MISS:          0
cpu0_ITLB PREFETCH  ACCESS:          0  HIT:          0  MISS:          0
cpu0_ITLB WRITEBACK ACCESS:          0  HIT:          0  MISS:          0
cpu0_L1I TOTAL     ACCESS:    1550966  HIT:    1550966  MISS:          0
cpu0_L1I LOAD      ACCESS:    1550966  HIT:    1550966  MISS:          0
cpu0_L1I RFO       ACCESS:          0  HIT:          0  MISS:          0
cpu0_L1I PREFETCH  ACCESS:          0  HIT:          0  MISS:          0
cpu0_L1I WRITEBACK ACCESS:          0  HIT:          0  MISS:          0
cpu0_STLB TOTAL     ACCESS:      82496  HIT:      81179  MISS:       1317
cpu0_STLB LOAD      ACCESS:      43184  HIT:      41867  MISS:       1317
cpu0_STLB RFO       ACCESS:      39312  HIT:      39312  MISS:          0
cpu0_STLB PREFETCH  ACCESS:          0  HIT:          0  MISS:          0
cpu0_STLB WRITEBACK ACCESS:          0  HIT:          0  MISS:          0
cpu0_L1D TOTAL     ACCESS:    7741168  HIT:    7640103  MISS:     101065
cpu0_L1D LOAD      ACCESS:    6912328  HIT:    6812115  MISS:     100213
cpu0_L1D RFO       ACCESS:     827598  HIT:     827598  MISS:          0
cpu0_L1D PREFETCH  ACCESS:          0  HIT:          0  MISS:          0
cpu0_L1D WRITEBACK ACCESS:          0  HIT:          0  MISS:          0
cpu0_L2C TOTAL     ACCESS:     153388  HIT:      56355  MISS:      97033
cpu0_L2C LOAD      ACCESS:     100213  HIT:       3195  MISS:      97018
cpu0_L2C RFO       ACCESS:          0  HIT:          0  MISS:          0
cpu0_L2C PREFETCH  ACCESS:          0  HIT:          0  MISS:          0
cpu0_L2C WRITEBACK ACCESS:      52323  HIT:      52309  MISS:         14
LLC TOTAL     ACCESS:     149274  HIT:      59595  MISS:      89679
LLC LOAD      ACCESS:      97018  HIT:       7825  MISS:      89193
LLC RFO       ACCESS:          0  HIT:          0  MISS:          0
LLC PREFETCH  ACCESS:          0  HIT:          0  MISS:          0
LLC WRITEBACK ACCESS:      52255  HIT:      51769  MISS:        486
Heartbeat CPU 0 instructions: 66000000 cycles: 50228921 heartbeat IPC: 0.733912 cumulative IPC: 0.733763 (Simulation time: 1 hr 35 min 50 sec) 

Region of Interest Statistics
cpu0_DTLB TOTAL     ACCESS:    7590910  HIT:    7494291  MISS:      96619
cpu0_DTLB LOAD      ACCESS:    6966151  HIT:    6915147  MISS:      51004
cpu0_DTLB RFO       ACCESS:     624759  HIT:     579144  MISS:      45615
cpu0_DTLB PREFETCH  ACCESS:          0  HIT:          0  MISS:          0
cpu0_DTLB WRITEBACK ACCESS:          0  HIT:          0  MISS:          0
cpu0_ITLB TOTAL     ACCESS:     276081  HIT:     276081  MISS:          0
cpu0_ITLB LOAD      ACCESS:     276081  HIT:     276081  MISS:          0
cpu0_ITLB RFO       ACCESS:          0  HIT:          0  MISS:          0
cpu0_ITLB PREFETCH  ACCESS:          0  HIT:          0  MISS:          0
cpu0_ITLB WRITEBACK ACCESS:          0  HIT:          0  MISS:          0
cpu0_L1I TOTAL     ACCESS:    1772639  HIT:    1772639  MISS:          0
cpu0_L1I LOAD      ACCESS:    1772639  HIT:    1772639  MISS:          0
cpu0_L1I RFO       ACCESS:          0  HIT:          0  MISS:          0
cpu0_L1I PREFETCH  ACCESS:          0  HIT:          0  MISS:          0
cpu0_L1I WRITEBACK ACCESS:          0  HIT:          0  MISS:          0
cpu0_STLB TOTAL     ACCESS:      96619  HIT:      95119  MISS:       1500
cpu0_STLB LOAD      ACCESS:      51004  HIT:      49504  MISS:       1500
cpu0_STLB RFO       ACCESS:      45615  HIT:      45615  MISS:          0
cpu0_STLB PREFETCH  ACCESS:          0  HIT:          0  MISS:          0
cpu0_STLB WRITEBACK ACCESS:          0  HIT:          0  MISS:          0
cpu0_L1D TOTAL     ACCESS:    8846898  HIT:    8731370  MISS:     115528
cpu0_L1D LOAD      ACCESS:    7899661  HIT:    7785104  MISS:     114557
cpu0_L1D RFO       ACCESS:     945823  HIT:     945823  MISS:          0
cpu0_L1D PREFETCH  ACCESS:          0  HIT:          0  MISS:          0
cpu0_L1D WRITEBACK ACCESS:          0  HIT:          0  MISS:          0
cpu0_L2C TOTAL     ACCESS:     175369  HIT:      64476  MISS:     110893
cpu0_L2C LOAD      ACCESS:     114557  HIT:       3680  MISS:     110877
cpu0_L2C RFO       ACCESS:          0  HIT:          0  MISS:          0
cpu0_L2C PREFETCH  ACCESS:          0  HIT:          0  MISS:          0
cpu0_L2C WRITEBACK ACCESS:      59841  HIT:      59826  MISS:         15
LLC TOTAL     ACCESS:     170466  HIT:      68000  MISS:     102466
LLC LOAD      ACCESS:     110877  HIT:       8931  MISS:     101946
LLC RFO       ACCESS:          0  HIT:          0  MISS:          0
LLC PREFETCH  ACCESS:          0  HIT:          0  MISS:          0
LLC WRITEBACK ACCESS:      59588  HIT:      59068  MISS:        520
Heartbeat CPU 0 instructions: 68000002 cycles: 52956851 heartbeat IPC: 0.733157 cumulative IPC: 0.733696 (Simulation time: 1 hr 39 min 35 sec) 

Region of Interest Statistics
cpu0_DTLB TOTAL     ACCESS:    8537969  HIT:    8426482  MISS:     111487
cpu0_DTLB LOAD      ACCESS:    7834870  HIT:    7774744  MISS:      60126
cpu0_DTLB RFO       ACCESS:     703099  HIT:     651738  MISS:      51361
cpu0_DTLB PREFETCH  ACCESS:          0  HIT:          0  MISS:          0
cpu0_DTLB WRITEBACK ACCESS:          0  HIT:          0  MISS:          0
cpu0_ITLB TOTAL     ACCESS:     310591  HIT:     310591  MISS:          0
cpu0_ITLB LOAD      ACCESS:     310591  HIT:     310591  MISS:          0
cpu0_ITLB RFO       ACCESS:          0  HIT:          0  MISS:          0
cpu0_ITLB PREFETCH  ACCESS:          0  HIT:          0  MISS:          0
cpu0_ITLB WRITEBACK ACCESS:          0  HIT:          0  MISS:          0
cpu0_L1I TOTAL     ACCESS:    1994334  HIT:    1994334  MISS:          0
cpu0_L1I LOAD      ACCESS:    1994334  HIT:    1994334  MISS:          0
cpu0_L1I RFO       ACCESS:          0  HIT:          0  MISS:          0
cpu0_L1I PREFETCH  ACCESS:          0  HIT:          0  MISS:          0
cpu0_L1I WRITEBACK ACCESS:          0  HIT:          0  MISS:          0
cpu0_STLB TOTAL     ACCESS:     111487  HIT:     109798  MISS:       1689
cpu0_STLB LOAD      ACCESS:      60126  HIT:      58437  MISS:       1689
cpu0_STLB RFO       ACCESS:      51361  HIT:      51361  MISS:          0
cpu0_STLB PREFETCH  ACCESS:          0  HIT:          0  MISS:          0
cpu0_STLB WRITEBACK ACCESS:          0  HIT:          0  MISS:          0
cpu0_L1D TOTAL     ACCESS:    9953803  HIT:    9823649  MISS:     130154
cpu0_L1D LOAD      ACCESS:    8888171  HIT:    8759114  MISS:     129057
cpu0_L1D RFO       ACCESS:    1064038  HIT:    1064038  MISS:          0
cpu0_L1D PREFETCH  ACCESS:          0  HIT:          0  MISS:          0
cpu0_L1D WRITEBACK ACCESS:          0  HIT:          0  MISS:          0
cpu0_L2C TOTAL     ACCESS:     197503  HIT:      72797  MISS:     124706
cpu0_L2C LOAD      ACCESS:     129057  HIT:       4367  MISS:     124690
cpu0_L2C RFO       ACCESS:          0  HIT:          0  MISS:          0
cpu0_L2C PREFETCH  ACCESS:          0  HIT:          0  MISS:          0
cpu0_L2C WRITEBACK ACCESS:      67349  HIT:      67334  MISS:         15
LLC TOTAL     ACCESS:     191541  HIT:      76264  MISS:     115277
LLC LOAD      ACCESS:     124690  HIT:       9946  MISS:     114744
LLC RFO       ACCESS:          0  HIT:          0  MISS:          0
LLC PREFETCH  ACCESS:          0  HIT:          0  MISS:          0
LLC WRITEBACK ACCESS:      66850  HIT:      66317  MISS:        533
Heartbeat CPU 0 instructions: 70000004 cycles: 55686117 heartbeat IPC: 0.732799 cumulative IPC: 0.733606 (Simulation time: 1 hr 43 min 24 sec) 

Region of Interest Statistics
cpu0_DTLB TOTAL     ACCESS:    9485928  HIT:    9360669  MISS:     125259
cpu0_DTLB LOAD      ACCESS:    8705140  HIT:    8636707  MISS:      68433
cpu0_DTLB RFO       ACCESS:     780788  HIT:     723962  MISS:      56826
cpu0_DTLB PREFETCH  ACCESS:          0  HIT:          0  MISS:          0
cpu0_DTLB WRITEBACK ACCESS:          0  HIT:          0  MISS:          0
cpu0_ITLB TOTAL     ACCESS:     345104  HIT:     345104  MISS:          0
cpu0_ITLB LOAD      ACCESS:     345104  HIT:     345104  MISS:          0
cpu0_ITLB RFO       ACCESS:          0  HIT:          0  MISS:          0
cpu0_ITLB PREFETCH  ACCESS:          0  HIT:          0  MISS:          0
cpu0_ITLB WRITEBACK ACCESS:          0  HIT:          0  MISS:          0
cpu0_L1I TOTAL     ACCESS:    2216119  HIT:    2216119  MISS:          0
cpu0_L1I LOAD      ACCESS:    2216119  HIT:    2216119  MISS:          0
cpu0_L1I RFO       ACCESS:          0  HIT:          0  MISS:          0
cpu0_L1I PREFETCH  ACCESS:          0  HIT:          0  MISS:          0
cpu0_L1I WRITEBACK ACCESS:          0  HIT:          0  MISS:          0
cpu0_STLB TOTAL     ACCESS:     125259  HIT:     123379  MISS:       1880
cpu0_STLB LOAD      ACCESS:      68433  HIT:      66553  MISS:       1880
cpu0_STLB RFO       ACCESS:      56826  HIT:      56826  MISS:          0
cpu0_STLB PREFETCH  ACCESS:          0  HIT:          0  MISS:          0
cpu0_STLB WRITEBACK ACCESS:          0  HIT:          0  MISS:          0
cpu0_L1D TOTAL     ACCESS:   11061174  HIT:   10916458  MISS:     144716
cpu0_L1D LOAD      ACCESS:    9877112  HIT:    9733603  MISS:     143509
cpu0_L1D RFO       ACCESS:    1182290  HIT:    1182290  MISS:          0
cpu0_L1D PREFETCH  ACCESS:          0  HIT:          0  MISS:          0
cpu0_L1D WRITEBACK ACCESS:          0  HIT:          0  MISS:          0
cpu0_L2C TOTAL     ACCESS:     219543  HIT:      80932  MISS:     138611
cpu0_L2C LOAD      ACCESS:     143509  HIT:       4915  MISS:     138594
cpu0_L2C RFO       ACCESS:          0  HIT:          0  MISS:          0
cpu0_L2C PREFETCH  ACCESS:          0  HIT:          0  MISS:          0
cpu0_L2C WRITEBACK ACCESS:      74827  HIT:      74811  MISS:         16
LLC TOTAL     ACCESS:     213393  HIT:      85338  MISS:     128055
LLC LOAD      ACCESS:     138594  HIT:      11144  MISS:     127450
LLC RFO       ACCESS:          0  HIT:          0  MISS:          0
LLC PREFETCH  ACCESS:          0  HIT:          0  MISS:          0
LLC WRITEBACK ACCESS:      74798  HIT:      74193  MISS:        605
Heartbeat CPU 0 instructions: 72000003 cycles: 58388924 heartbeat IPC: 0.739971 cumulative IPC: 0.73418 (Simulation time: 1 hr 47 min 12 sec) 

Region of Interest Statistics
cpu0_DTLB TOTAL     ACCESS:   10432558  HIT:   10304316  MISS:     128242
cpu0_DTLB LOAD      ACCESS:    9573202  HIT:    9503200  MISS:      70002
cpu0_DTLB RFO       ACCESS:     859356  HIT:     801116  MISS:      58240
cpu0_DTLB PREFETCH  ACCESS:          0  HIT:          0  MISS:          0
cpu0_DTLB WRITEBACK ACCESS:          0  HIT:          0  MISS:          0
cpu0_ITLB TOTAL     ACCESS:     379616  HIT:     379616  MISS:          0
cpu0_ITLB LOAD      ACCESS:     379616  HIT:     379616  MISS:          0
cpu0_ITLB RFO       ACCESS:          0  HIT:          0  MISS:          0
cpu0_ITLB PREFETCH  ACCESS:          0  HIT:          0  MISS:          0
cpu0_ITLB WRITEBACK ACCESS:          0  HIT:          0  MISS:          0
cpu0_L1I TOTAL     ACCESS:    2436753  HIT:    2436753  MISS:          0
cpu0_L1I LOAD      ACCESS:    2436753  HIT:    2436753  MISS:          0
cpu0_L1I RFO       ACCESS:          0  HIT:          0  MISS:          0
cpu0_L1I PREFETCH  ACCESS:          0  HIT:          0  MISS:          0
cpu0_L1I WRITEBACK ACCESS:          0  HIT:          0  MISS:          0
cpu0_STLB TOTAL     ACCESS:     128242  HIT:     126176  MISS:       2066
cpu0_STLB LOAD      ACCESS:      70002  HIT:      67936  MISS:       2066
cpu0_STLB RFO       ACCESS:      58240  HIT:      58240  MISS:          0
cpu0_STLB PREFETCH  ACCESS:          0  HIT:          0  MISS:          0
cpu0_STLB WRITEBACK ACCESS:          0  HIT:          0  MISS:          0
cpu0_L1D TOTAL     ACCESS:   12164046  HIT:   12005211  MISS:     158835
cpu0_L1D LOAD      ACCESS:   10861586  HIT:   10704086  MISS:     157500
cpu0_L1D RFO       ACCESS:    1300514  HIT:    1300514  MISS:          0
cpu0_L1D PREFETCH  ACCESS:          0  HIT:          0  MISS:          0
cpu0_L1D WRITEBACK ACCESS:          0  HIT:          0  MISS:          0
cpu0_L2C TOTAL     ACCESS:     241148  HIT:      88662  MISS:     152486
cpu0_L2C LOAD      ACCESS:     157500  HIT:       5033  MISS:     152467
cpu0_L2C RFO       ACCESS:          0  HIT:          0  MISS:          0
cpu0_L2C PREFETCH  ACCESS:          0  HIT:          0  MISS:          0
cpu0_L2C WRITEBACK ACCESS:      82313  HIT:      82295  MISS:         18
LLC TOTAL     ACCESS:     234544  HIT:      93848  MISS:     140696
LLC LOAD      ACCESS:     152467  HIT:      12394  MISS:     140073
LLC RFO       ACCESS:          0  HIT:          0  MISS:          0
LLC PREFETCH  ACCESS:          0  HIT:          0  MISS:          0
LLC WRITEBACK ACCESS:      82076  HIT:      81453  MISS:        623
Heartbeat CPU 0 instructions: 74000000 cycles: 61106532 heartbeat IPC: 0.73594 cumulative IPC: 0.734326 (Simulation time: 1 hr 50 min 46 sec) 

Region of Interest Statistics
cpu0_DTLB TOTAL     ACCESS:   11379410  HIT:   11232488  MISS:     146922
cpu0_DTLB LOAD      ACCESS:   10442058  HIT:   10360772  MISS:      81286
cpu0_DTLB RFO       ACCESS:     937352  HIT:     871716  MISS:      65636
cpu0_DTLB PREFETCH  ACCESS:          0  HIT:          0  MISS:          0
cpu0_DTLB WRITEBACK ACCESS:          0  HIT:          0  MISS:          0
cpu0_ITLB TOTAL     ACCESS:     414125  HIT:     414125  MISS:          0
cpu0_ITLB LOAD      ACCESS:     414125  HIT:     414125  MISS:          0
cpu0_ITLB RFO       ACCESS:          0  HIT:          0  MISS:          0
cpu0_ITLB PREFETCH  ACCESS:          0  HIT:          0  MISS:          0
cpu0_ITLB WRITEBACK ACCESS:          0  HIT:          0  MISS:          0
cpu0_L1I TOTAL     ACCESS:    2658971  HIT:    2658971  MISS:          0
cpu0_L1I LOAD      ACCESS:    2658971  HIT:    2658971  MISS:          0
cpu0_L1I RFO       ACCESS:          0  HIT:          0  MISS:          0
cpu0_L1I PREFETCH  ACCESS:          0  HIT:          0  MISS:          0
cpu0_L1I WRITEBACK ACCESS:          0  HIT:          0  MISS:          0
cpu0_STLB TOTAL     ACCESS:     146922  HIT:     144673  MISS:       2249
cpu0_STLB LOAD      ACCESS:      81286  HIT:      79037  MISS:       2249
cpu0_STLB RFO       ACCESS:      65636  HIT:      65636  MISS:          0
cpu0_STLB PREFETCH  ACCESS:          0  HIT:          0  MISS:          0
cpu0_STLB WRITEBACK ACCESS:          0  HIT:          0  MISS:          0
cpu0_L1D TOTAL     ACCESS:   13269952  HIT:   13096833  MISS:     173119
cpu0_L1D LOAD      ACCESS:   11849102  HIT:   11677447  MISS:     171655
cpu0_L1D RFO       ACCESS:    1418730  HIT:    1418730  MISS:          0
cpu0_L1D PREFETCH  ACCESS:          0  HIT:          0  MISS:          0
cpu0_L1D WRITEBACK ACCESS:          0  HIT:          0  MISS:          0
cpu0_L2C TOTAL     ACCESS:     262873  HIT:      96493  MISS:     166380
cpu0_L2C LOAD      ACCESS:     171655  HIT:       5296  MISS:     166359
cpu0_L2C RFO       ACCESS:          0  HIT:          0  MISS:          0
cpu0_L2C PREFETCH  ACCESS:          0  HIT:          0  MISS:          0
cpu0_L2C WRITEBACK ACCESS:      89754  HIT:      89734  MISS:         20
LLC TOTAL     ACCESS:     256066  HIT:     102924  MISS:     153142
LLC LOAD      ACCESS:     166359  HIT:      13879  MISS:     152480
LLC RFO       ACCESS:          0  HIT:          0  MISS:          0
LLC PREFETCH  ACCESS:          0  HIT:          0  MISS:          0
LLC WRITEBACK ACCESS:      89706  HIT:      89044  MISS:        662
Heartbeat CPU 0 instructions: 76000000 cycles: 63877020 heartbeat IPC: 0.721895 cumulative IPC: 0.733355 (Simulation time: 1 hr 54 min 30 sec) 

Region of Interest Statistics
cpu0_DTLB TOTAL     ACCESS:   12331285  HIT:   12159283  MISS:     172002
cpu0_DTLB LOAD      ACCESS:   11316470  HIT:   11222598  MISS:      93872
cpu0_DTLB RFO       ACCESS:    1014815  HIT:     936685  MISS:      78130
cpu0_DTLB PREFETCH  ACCESS:          0  HIT:          0  MISS:          0
cpu0_DTLB WRITEBACK ACCESS:          0  HIT:          0  MISS:          0
cpu0_ITLB TOTAL     ACCESS:     448642  HIT:     448642  MISS:          0
cpu0_ITLB LOAD      ACCESS:     448642  HIT:     448642  MISS:          0
cpu0_ITLB RFO       ACCESS:          0  HIT:          0  MISS:          0
cpu0_ITLB PREFETCH  ACCESS:          0  HIT:          0  MISS:          0
cpu0_ITLB WRITEBACK ACCESS:          0  HIT:          0  MISS:          0
cpu0_L1I TOTAL     ACCESS:    2881867  HIT:    2881867  MISS:          0
cpu0_L1I LOAD      ACCESS:    2881867  HIT:    2881867  MISS:          0
cpu0_L1I RFO       ACCESS:          0  HIT:          0  MISS:          0
cpu0_L1I PREFETCH  ACCESS:          0  HIT:          0  MISS:          0
cpu0_L1I WRITEBACK ACCESS:          0  HIT:          0  MISS:          0
cpu0_STLB TOTAL     ACCESS:     172002  HIT:     169561  MISS:       2441
cpu0_STLB LOAD      ACCESS:      93872  HIT:      91431  MISS:       2441
cpu0_STLB RFO       ACCESS:      78130  HIT:      78130  MISS:          0
cpu0_STLB PREFETCH  ACCESS:          0  HIT:          0  MISS:          0
cpu0_STLB WRITEBACK ACCESS:          0  HIT:          0  MISS:          0
cpu0_L1D TOTAL     ACCESS:   14379562  HIT:   14192019  MISS:     187543
cpu0_L1D LOAD      ACCESS:   12840299  HIT:   12654347  MISS:     185952
cpu0_L1D RFO       ACCESS:    1536960  HIT:    1536960  MISS:          0
cpu0_L1D PREFETCH  ACCESS:          0  HIT:          0  MISS:          0
cpu0_L1D WRITEBACK ACCESS:          0  HIT:          0  MISS:          0
cpu0_L2C TOTAL     ACCESS:     284753  HIT:     104480  MISS:     180273
cpu0_L2C LOAD      ACCESS:     185952  HIT:       5703  MISS:     180249
cpu0_L2C RFO       ACCESS:          0  HIT:          0  MISS:          0
cpu0_L2C PREFETCH  ACCESS:          0  HIT:          0  MISS:          0
cpu0_L2C WRITEBACK ACCESS:      97210  HIT:      97188  MISS:         22
LLC TOTAL     ACCESS:     277371  HIT:     111377  MISS:     165994
LLC LOAD      ACCESS:     180249  HIT:      14993  MISS:     165256
LLC RFO       ACCESS:          0  HIT:          0  MISS:          0
LLC PREFETCH  ACCESS:          0  HIT:          0  MISS:          0
LLC WRITEBACK ACCESS:      97120  HIT:      96383  MISS:        737
Heartbeat CPU 0 instructions: 78000003 cycles: 66571338 heartbeat IPC: 0.742304 cumulative IPC: 0.733987 (Simulation time: 1 hr 58 min 7 sec) 

Region of Interest Statistics
cpu0_DTLB TOTAL     ACCESS:   13278066  HIT:   13095362  MISS:     182704
cpu0_DTLB LOAD      ACCESS:   12184986  HIT:   12085309  MISS:      99677
cpu0_DTLB RFO       ACCESS:    1093080  HIT:    1010053  MISS:      83027
cpu0_DTLB PREFETCH  ACCESS:          0  HIT:          0  MISS:          0
cpu0_DTLB WRITEBACK ACCESS:          0  HIT:          0  MISS:          0
cpu0_ITLB TOTAL     ACCESS:     483151  HIT:     483151  MISS:          0
cpu0_ITLB LOAD      ACCESS:     483151  HIT:     483151  MISS:          0
cpu0_ITLB RFO       ACCESS:          0  HIT:          0  MISS:          0
cpu0_ITLB PREFETCH  ACCESS:          0  HIT:          0  MISS:          0
cpu0_ITLB WRITEBACK ACCESS:          0  HIT:          0  MISS:          0
cpu0_L1I TOTAL     ACCESS:    3103333  HIT:    3103333  MISS:          0
cpu0_L1I LOAD      ACCESS:    3103333  HIT:    3103333  MISS:          0
cpu0_L1I RFO       ACCESS:          0  HIT:          0  MISS:          0
cpu0_L1I PREFETCH  ACCESS:          0  HIT:          0  MISS:          0
cpu0_L1I WRITEBACK ACCESS:          0  HIT:          0  MISS:          0
cpu0_STLB TOTAL     ACCESS:     182704  HIT:     180080  MISS:       2624
cpu0_STLB LOAD      ACCESS:      99677  HIT:      97053  MISS:       2624
cpu0_STLB RFO       ACCESS:      83027  HIT:      83027  MISS:          0
cpu0_STLB PREFETCH  ACCESS:          0  HIT:          0  MISS:          0
cpu0_STLB WRITEBACK ACCESS:          0  HIT:          0  MISS:          0
cpu0_L1D TOTAL     ACCESS:   15485107  HIT:   15282960  MISS:     202147
cpu0_L1D LOAD      ACCESS:   13827455  HIT:   13627017  MISS:     200438
cpu0_L1D RFO       ACCESS:    1655175  HIT:    1655175  MISS:          0
cpu0_L1D PREFETCH  ACCESS:          0  HIT:          0  MISS:          0
cpu0_L1D WRITEBACK ACCESS:          0  HIT:          0  MISS:          0
cpu0_L2C TOTAL     ACCESS:     306860  HIT:     112720  MISS:     194140
cpu0_L2C LOAD      ACCESS:     200438  HIT:       6322  MISS:     194116
cpu0_L2C RFO       ACCESS:          0  HIT:          0  MISS:          0
cpu0_L2C PREFETCH  ACCESS:          0  HIT:          0  MISS:          0
cpu0_L2C WRITEBACK ACCESS:     104713  HIT:     104691  MISS:         22
LLC TOTAL     ACCESS:     298785  HIT:     120095  MISS:     178690
LLC LOAD      ACCESS:     194116  HIT:      16186  MISS:     177930
LLC RFO       ACCESS:          0  HIT:          0  MISS:          0
LLC PREFETCH  ACCESS:          0  HIT:          0  MISS:          0
LLC WRITEBACK ACCESS:     104667  HIT:     103908  MISS:        759
Heartbeat CPU 0 instructions: 80000003 cycles: 69302462 heartbeat IPC: 0.732299 cumulative IPC: 0.733874 (Simulation time: 2 hr 1 min 49 sec) 

Region of Interest Statistics
cpu0_DTLB TOTAL     ACCESS:   14227479  HIT:   14026782  MISS:     200697
cpu0_DTLB LOAD      ACCESS:   13056468  HIT:   12948006  MISS:     108462
cpu0_DTLB RFO       ACCESS:    1171011  HIT:    1078776  MISS:      92235
cpu0_DTLB PREFETCH  ACCESS:          0  HIT:          0  MISS:          0
cpu0_DTLB WRITEBACK ACCESS:          0  HIT:          0  MISS:          0
cpu0_ITLB TOTAL     ACCESS:     517671  HIT:     517671  MISS:          0
cpu0_ITLB LOAD      ACCESS:     517671  HIT:     517671  MISS:          0
cpu0_ITLB RFO       ACCESS:          0  HIT:          0  MISS:          0
cpu0_ITLB PREFETCH  ACCESS:          0  HIT:          0  MISS:          0
cpu0_ITLB WRITEBACK ACCESS:          0  HIT:          0  MISS:          0
cpu0_L1I TOTAL     ACCESS:    3325365  HIT:    3325365  MISS:          0
cpu0_L1I LOAD      ACCESS:    3325365  HIT:    3325365  MISS:          0
cpu0_L1I RFO       ACCESS:          0  HIT:          0  MISS:          0
cpu0_L1I PREFETCH  ACCESS:          0  HIT:          0  MISS:          0
cpu0_L1I WRITEBACK ACCESS:          0  HIT:          0  MISS:          0
cpu0_STLB TOTAL     ACCESS:     200697  HIT:     197879  MISS:       2818
cpu0_STLB LOAD      ACCESS:     108462  HIT:     105644  MISS:       2818
cpu0_STLB RFO       ACCESS:      92235  HIT:      92235  MISS:          0
cpu0_STLB PREFETCH  ACCESS:          0  HIT:          0  MISS:          0
cpu0_STLB WRITEBACK ACCESS:          0  HIT:          0  MISS:          0
cpu0_L1D TOTAL     ACCESS:   16593021  HIT:   16376515  MISS:     216506
cpu0_L1D LOAD      ACCESS:   14816944  HIT:   14602267  MISS:     214677
cpu0_L1D RFO       ACCESS:    1773421  HIT:    1773421  MISS:          0
cpu0_L1D PREFETCH  ACCESS:          0  HIT:          0  MISS:          0
cpu0_L1D WRITEBACK ACCESS:          0  HIT:          0  MISS:          0
cpu0_L2C TOTAL     ACCESS:     328710  HIT:     120696  MISS:     208014
cpu0_L2C LOAD      ACCESS:     214677  HIT:       6688  MISS:     207989
cpu0_L2C RFO       ACCESS:          0  HIT:          0  MISS:          0
cpu0_L2C PREFETCH  ACCESS:          0  HIT:          0  MISS:          0
cpu0_L2C WRITEBACK ACCESS:     112204  HIT:     112181  MISS:         23
LLC TOTAL     ACCESS:     320033  HIT:     128979  MISS:     191054
LLC LOAD      ACCESS:     207989  HIT:      17700  MISS:     190289
LLC RFO       ACCESS:          0  HIT:          0  MISS:          0
LLC PREFETCH  ACCESS:          0  HIT:          0  MISS:          0
LLC WRITEBACK ACCESS:     112042  HIT:     111278  MISS:        764
Heartbeat CPU 0 instructions: 82000004 cycles: 72020218 heartbeat IPC: 0.735902 cumulative IPC: 0.734001 (Simulation time: 2 hr 5 min 40 sec) 

Region of Interest Statistics
cpu0_DTLB TOTAL     ACCESS:   15175772  HIT:   14959269  MISS:     216503
cpu0_DTLB LOAD      ACCESS:   13926724  HIT:   13809978  MISS:     116746
cpu0_DTLB RFO       ACCESS:    1249048  HIT:    1149291  MISS:      99757
cpu0_DTLB PREFETCH  ACCESS:          0  HIT:          0  MISS:          0
cpu0_DTLB WRITEBACK ACCESS:          0  HIT:          0  MISS:          0
cpu0_ITLB TOTAL     ACCESS:     552178  HIT:     552178  MISS:          0
cpu0_ITLB LOAD      ACCESS:     552178  HIT:     552178  MISS:          0
cpu0_ITLB RFO       ACCESS:          0  HIT:          0  MISS:          0
cpu0_ITLB PREFETCH  ACCESS:          0  HIT:          0  MISS:          0
cpu0_ITLB WRITEBACK ACCESS:          0  HIT:          0  MISS:          0
cpu0_L1I TOTAL     ACCESS:    3547415  HIT:    3547415  MISS:          0
cpu0_L1I LOAD      ACCESS:    3547415  HIT:    3547415  MISS:          0
cpu0_L1I RFO       ACCESS:          0  HIT:          0  MISS:          0
cpu0_L1I PREFETCH  ACCESS:          0  HIT:          0  MISS:          0
cpu0_L1I WRITEBACK ACCESS:          0  HIT:          0  MISS:          0
cpu0_STLB TOTAL     ACCESS:     216503  HIT:     213499  MISS:       3004
cpu0_STLB LOAD      ACCESS:     116746  HIT:     113742  MISS:       3004
cpu0_STLB RFO       ACCESS:      99757  HIT:      99757  MISS:          0
cpu0_STLB PREFETCH  ACCESS:          0  HIT:          0  MISS:          0
cpu0_STLB WRITEBACK ACCESS:          0  HIT:          0  MISS:          0
cpu0_L1D TOTAL     ACCESS:   17698921  HIT:   17468356  MISS:     230565
cpu0_L1D LOAD      ACCESS:   15804439  HIT:   15575829  MISS:     228610
cpu0_L1D RFO       ACCESS:    1891651  HIT:    1891651  MISS:          0
cpu0_L1D PREFETCH  ACCESS:          0  HIT:          0  MISS:          0
cpu0_L1D WRITEBACK ACCESS:          0  HIT:          0  MISS:          0
cpu0_L2C TOTAL     ACCESS:     350245  HIT:     128364  MISS:     221881
cpu0_L2C LOAD      ACCESS:     228610  HIT:       6756  MISS:     221854
cpu0_L2C RFO       ACCESS:          0  HIT:          0  MISS:          0
cpu0_L2C PREFETCH  ACCESS:          0  HIT:          0  MISS:          0
cpu0_L2C WRITEBACK ACCESS:     119680  HIT:     119655  MISS:         25
LLC TOTAL     ACCESS:     341486  HIT:     137896  MISS:     203590
LLC LOAD      ACCESS:     221854  HIT:      19051  MISS:     202803
LLC RFO       ACCESS:          0  HIT:          0  MISS:          0
LLC PREFETCH  ACCESS:          0  HIT:          0  MISS:          0
LLC WRITEBACK ACCESS:     119630  HIT:     118844  MISS:        786
Heartbeat CPU 0 instructions: 84000000 cycles: 74712848 heartbeat IPC: 0.742767 cumulative IPC: 0.73451 (Simulation time: 2 hr 9 min 18 sec) 

Region of Interest Statistics
cpu0_DTLB TOTAL     ACCESS:   16127785  HIT:   15898599  MISS:     229186
cpu0_DTLB LOAD      ACCESS:   14800724  HIT:   14679181  MISS:     121543
cpu0_DTLB RFO       ACCESS:    1327061  HIT:    1219418  MISS:     107643
cpu0_DTLB PREFETCH  ACCESS:          0  HIT:          0  MISS:          0
cpu0_DTLB WRITEBACK ACCESS:          0  HIT:          0  MISS:          0
cpu0_ITLB TOTAL     ACCESS:     586689  HIT:     586689  MISS:          0
cpu0_ITLB LOAD      ACCESS:     586689  HIT:     586689  MISS:          0
cpu0_ITLB RFO       ACCESS:          0  HIT:          0  MISS:          0
cpu0_ITLB PREFETCH  ACCESS:          0  HIT:          0  MISS:          0
cpu0_ITLB WRITEBACK ACCESS:          0  HIT:          0  MISS:          0
cpu0_L1I TOTAL     ACCESS:    3769319  HIT:    3769319  MISS:          0
cpu0_L1I LOAD      ACCESS:    3769319  HIT:    3769319  MISS:          0
cpu0_L1I RFO       ACCESS:          0  HIT:          0  MISS:          0
cpu0_L1I PREFETCH  ACCESS:          0  HIT:          0  MISS:          0
cpu0_L1I WRITEBACK ACCESS:          0  HIT:          0  MISS:          0
cpu0_STLB TOTAL     ACCESS:     229186  HIT:     225996  MISS:       3190
cpu0_STLB LOAD      ACCESS:     121543  HIT:     118353  MISS:       3190
cpu0_STLB RFO       ACCESS:     107643  HIT:     107643  MISS:          0
cpu0_STLB PREFETCH  ACCESS:          0  HIT:          0  MISS:          0
cpu0_STLB WRITEBACK ACCESS:          0  HIT:          0  MISS:          0
cpu0_L1D TOTAL     ACCESS:   18805626  HIT:   18560879  MISS:     244747
cpu0_L1D LOAD      ACCESS:   16792750  HIT:   16550088  MISS:     242662
cpu0_L1D RFO       ACCESS:    2009867  HIT:    2009867  MISS:          0
cpu0_L1D PREFETCH  ACCESS:          0  HIT:          0  MISS:          0
cpu0_L1D WRITEBACK ACCESS:          0  HIT:          0  MISS:          0
cpu0_L2C TOTAL     ACCESS:     371907  HIT:     136137  MISS:     235770
cpu0_L2C LOAD      ACCESS:     242662  HIT:       6922  MISS:     235740
cpu0_L2C RFO       ACCESS:          0  HIT:          0  MISS:          0
cpu0_L2C PREFETCH  ACCESS:          0  HIT:          0  MISS:          0
cpu0_L2C WRITEBACK ACCESS:     127160  HIT:     127132  MISS:         28
LLC TOTAL     ACCESS:     362771  HIT:     146684  MISS:     216087
LLC LOAD      ACCESS:     235740  HIT:      20484  MISS:     215256
LLC RFO       ACCESS:          0  HIT:          0  MISS:          0
LLC PREFETCH  ACCESS:          0  HIT:          0  MISS:          0
LLC WRITEBACK ACCESS:     127029  HIT:     126199  MISS:        830
Heartbeat CPU 0 instructions: 86000002 cycles: 77428614 heartbeat IPC: 0.736441 cumulative IPC: 0.734617 (Simulation time: 2 hr 12 min 52 sec) 

Region of Interest Statistics
cpu0_DTLB TOTAL     ACCESS:   17075113  HIT:   16838808  MISS:     236305
cpu0_DTLB LOAD      ACCESS:   15669559  HIT:   15545538  MISS:     124021
cpu0_DTLB RFO       ACCESS:    1405554  HIT:    1293270  MISS:     112284
cpu0_DTLB PREFETCH  ACCESS:          0  HIT:          0  MISS:          0
cpu0_DTLB WRITEBACK ACCESS:          0  HIT:          0  MISS:          0
cpu0_ITLB TOTAL     ACCESS:     621200  HIT:     621200  MISS:          0
cpu0_ITLB LOAD      ACCESS:     621200  HIT:     621200  MISS:          0
cpu0_ITLB RFO       ACCESS:          0  HIT:          0  MISS:          0
cpu0_ITLB PREFETCH  ACCESS:          0  HIT:          0  MISS:          0
cpu0_ITLB WRITEBACK ACCESS:          0  HIT:          0  MISS:          0
cpu0_L1I TOTAL     ACCESS:    3990563  HIT:    3990563  MISS:          0
cpu0_L1I LOAD      ACCESS:    3990563  HIT:    3990563  MISS:          0
cpu0_L1I RFO       ACCESS:          0  HIT:          0  MISS:          0
cpu0_L1I PREFETCH  ACCESS:          0  HIT:          0  MISS:          0
cpu0_L1I WRITEBACK ACCESS:          0  HIT:          0  MISS:          0
cpu0_STLB TOTAL     ACCESS:     236305  HIT:     232932  MISS:       3373
cpu0_STLB LOAD      ACCESS:     124021  HIT:     120648  MISS:       3373
cpu0_STLB RFO       ACCESS:     112284  HIT:     112284  MISS:          0
cpu0_STLB PREFETCH  ACCESS:          0  HIT:          0  MISS:          0
cpu0_STLB WRITEBACK ACCESS:          0  HIT:          0  MISS:          0
cpu0_L1D TOTAL     ACCESS:   19910008  HIT:   19650873  MISS:     259135
cpu0_L1D LOAD      ACCESS:   17778737  HIT:   17521812  MISS:     256925
cpu0_L1D RFO       ACCESS:    2128091  HIT:    2128091  MISS:          0
cpu0_L1D PREFETCH  ACCESS:          0  HIT:          0  MISS:          0
cpu0_L1D WRITEBACK ACCESS:          0  HIT:          0  MISS:          0
cpu0_L2C TOTAL     ACCESS:     393721  HIT:     144034  MISS:     249687
cpu0_L2C LOAD      ACCESS:     256925  HIT:       7271  MISS:     249654
cpu0_L2C RFO       ACCESS:          0  HIT:          0  MISS:          0
cpu0_L2C PREFETCH  ACCESS:          0  HIT:          0  MISS:          0
cpu0_L2C WRITEBACK ACCESS:     134586  HIT:     134555  MISS:         31
LLC TOTAL     ACCESS:     384032  HIT:     155025  MISS:     229007
LLC LOAD      ACCESS:     249654  HIT:      21500  MISS:     228154
LLC RFO       ACCESS:          0  HIT:          0  MISS:          0
LLC PREFETCH  ACCESS:          0  HIT:          0  MISS:          0
LLC WRITEBACK ACCESS:     134376  HIT:     133524  MISS:        852
Heartbeat CPU 0 instructions: 88000000 cycles: 80152036 heartbeat IPC: 0.734369 cumulative IPC: 0.734604 (Simulation time: 2 hr 16 min 33 sec) 

Region of Interest Statistics
cpu0_DTLB TOTAL     ACCESS:   18023596  HIT:   17770899  MISS:     252697
cpu0_DTLB LOAD      ACCESS:   16539749  HIT:   16407782  MISS:     131967
cpu0_DTLB RFO       ACCESS:    1483847  HIT:    1363117  MISS:     120730
cpu0_DTLB PREFETCH  ACCESS:          0  HIT:          0  MISS:          0
cpu0_DTLB WRITEBACK ACCESS:          0  HIT:          0  MISS:          0
cpu0_ITLB TOTAL     ACCESS:     655711  HIT:     655711  MISS:          0
cpu0_ITLB LOAD      ACCESS:     655711  HIT:     655711  MISS:          0
cpu0_ITLB RFO       ACCESS:          0  HIT:          0  MISS:          0
cpu0_ITLB PREFETCH  ACCESS:          0  HIT:          0  MISS:          0
cpu0_ITLB WRITEBACK ACCESS:          0  HIT:          0  MISS:          0
cpu0_L1I TOTAL     ACCESS:    4212546  HIT:    4212546  MISS:          0
cpu0_L1I LOAD      ACCESS:    4212546  HIT:    4212546  MISS:          0
cpu0_L1I RFO       ACCESS:          0  HIT:          0  MISS:          0
cpu0_L1I PREFETCH  ACCESS:          0  HIT:          0  MISS:          0
cpu0_L1I WRITEBACK ACCESS:          0  HIT:          0  MISS:          0
cpu0_STLB TOTAL     ACCESS:     252697  HIT:     249130  MISS:       3567
cpu0_STLB LOAD      ACCESS:     131967  HIT:     128400  MISS:       3567
cpu0_STLB RFO       ACCESS:     120730  HIT:     120730  MISS:          0
cpu0_STLB PREFETCH  ACCESS:          0  HIT:          0  MISS:          0
cpu0_STLB WRITEBACK ACCESS:          0  HIT:          0  MISS:          0
cpu0_L1D TOTAL     ACCESS:   21017715  HIT:   20744018  MISS:     273697
cpu0_L1D LOAD      ACCESS:   18768022  HIT:   18496653  MISS:     271369
cpu0_L1D RFO       ACCESS:    2246329  HIT:    2246329  MISS:          0
cpu0_L1D PREFETCH  ACCESS:          0  HIT:          0  MISS:          0
cpu0_L1D WRITEBACK ACCESS:          0  HIT:          0  MISS:          0
cpu0_L2C TOTAL     ACCESS:     415800  HIT:     152207  MISS:     263593
cpu0_L2C LOAD      ACCESS:     271369  HIT:       7810  MISS:     263559
cpu0_L2C RFO       ACCESS:          0  HIT:          0  MISS:          0
cpu0_L2C PREFETCH  ACCESS:          0  HIT:          0  MISS:          0
cpu0_L2C WRITEBACK ACCESS:     142103  HIT:     142071  MISS:         32
LLC TOTAL     ACCESS:     405618  HIT:     163784  MISS:     241834
LLC LOAD      ACCESS:     263559  HIT:      22761  MISS:     240798
LLC RFO       ACCESS:          0  HIT:          0  MISS:          0
LLC PREFETCH  ACCESS:          0  HIT:          0  MISS:          0
LLC WRITEBACK ACCESS:     142057  HIT:     141022  MISS:       1035
Heartbeat CPU 0 instructions: 90000003 cycles: 82869169 heartbeat IPC: 0.736071 cumulative IPC: 0.734678 (Simulation time: 2 hr 20 min 16 sec) 

Region of Interest Statistics
cpu0_DTLB TOTAL     ACCESS:   18970316  HIT:   18711808  MISS:     258508
cpu0_DTLB LOAD      ACCESS:   17407974  HIT:   17273759  MISS:     134215
cpu0_DTLB RFO       ACCESS:    1562342  HIT:    1438049  MISS:     124293
cpu0_DTLB PREFETCH  ACCESS:          0  HIT:          0  MISS:          0
cpu0_DTLB WRITEBACK ACCESS:          0  HIT:          0  MISS:          0
cpu0_ITLB TOTAL     ACCESS:     690216  HIT:     690216  MISS:          0
cpu0_ITLB LOAD      ACCESS:     690216  HIT:     690216  MISS:          0
cpu0_ITLB RFO       ACCESS:          0  HIT:          0  MISS:          0
cpu0_ITLB PREFETCH  ACCESS:          0  HIT:          0  MISS:          0
cpu0_ITLB WRITEBACK ACCESS:          0  HIT:          0  MISS:          0
cpu0_L1I TOTAL     ACCESS:    4433583  HIT:    4433583  MISS:          0
cpu0_L1I LOAD      ACCESS:    4433583  HIT:    4433583  MISS:          0
cpu0_L1I RFO       ACCESS:          0  HIT:          0  MISS:          0
cpu0_L1I PREFETCH  ACCESS:          0  HIT:          0  MISS:          0
cpu0_L1I WRITEBACK ACCESS:          0  HIT:          0  MISS:          0
cpu0_STLB TOTAL     ACCESS:     258508  HIT:     254755  MISS:       3753
cpu0_STLB LOAD      ACCESS:     134215  HIT:     130462  MISS:       3753
cpu0_STLB RFO       ACCESS:     124293  HIT:     124293  MISS:          0
cpu0_STLB PREFETCH  ACCESS:          0  HIT:          0  MISS:          0
cpu0_STLB WRITEBACK ACCESS:          0  HIT:          0  MISS:          0
cpu0_L1D TOTAL     ACCESS:   22121191  HIT:   21833543  MISS:     287648
cpu0_L1D LOAD      ACCESS:   19753095  HIT:   19467903  MISS:     285192
cpu0_L1D RFO       ACCESS:    2364558  HIT:    2364558  MISS:          0
cpu0_L1D PREFETCH  ACCESS:          0  HIT:          0  MISS:          0
cpu0_L1D WRITEBACK ACCESS:          0  HIT:          0  MISS:          0
cpu0_L2C TOTAL     ACCESS:     437208  HIT:     159804  MISS:     277404
cpu0_L2C LOAD      ACCESS:     285192  HIT:       7823  MISS:     277369
cpu0_L2C RFO       ACCESS:          0  HIT:          0  MISS:          0
cpu0_L2C PREFETCH  ACCESS:          0  HIT:          0  MISS:          0
cpu0_L2C WRITEBACK ACCESS:     149560  HIT:     149527  MISS:         33
LLC TOTAL     ACCESS:     426646  HIT:     172116  MISS:     254530
LLC LOAD      ACCESS:     277369  HIT:      23930  MISS:     253439
LLC RFO       ACCESS:          0  HIT:          0  MISS:          0
LLC PREFETCH  ACCESS:          0  HIT:          0  MISS:          0
LLC WRITEBACK ACCESS:     149275  HIT:     148185  MISS:       1090
Heartbeat CPU 0 instructions: 92000002 cycles: 85579261 heartbeat IPC: 0.737982 cumulative IPC: 0.734834 (Simulation time: 2 hr 23 min 59 sec) 

Region of Interest Statistics
cpu0_DTLB TOTAL     ACCESS:   19918685  HIT:   19648101  MISS:     270584
cpu0_DTLB LOAD      ACCESS:   18277937  HIT:   18137742  MISS:     140195
cpu0_DTLB RFO       ACCESS:    1640748  HIT:    1510359  MISS:     130389
cpu0_DTLB PREFETCH  ACCESS:          0  HIT:          0  MISS:          0
cpu0_DTLB WRITEBACK ACCESS:          0  HIT:          0  MISS:          0
cpu0_ITLB TOTAL     ACCESS:     724721  HIT:     724721  MISS:          0
cpu0_ITLB LOAD      ACCESS:     724721  HIT:     724721  MISS:          0
cpu0_ITLB RFO       ACCESS:          0  HIT:          0  MISS:          0
cpu0_ITLB PREFETCH  ACCESS:          0  HIT:          0  MISS:          0
cpu0_ITLB WRITEBACK ACCESS:          0  HIT:          0  MISS:          0
cpu0_L1I TOTAL     ACCESS:    4655306  HIT:    4655306  MISS:          0
cpu0_L1I LOAD      ACCESS:    4655306  HIT:    4655306  MISS:          0
cpu0_L1I RFO       ACCESS:          0  HIT:          0  MISS:          0
cpu0_L1I PREFETCH  ACCESS:          0  HIT:          0  MISS:          0
cpu0_L1I WRITEBACK ACCESS:          0  HIT:          0  MISS:          0
cpu0_STLB TOTAL     ACCESS:     270584  HIT:     266645  MISS:       3939
cpu0_STLB LOAD      ACCESS:     140195  HIT:     136256  MISS:       3939
cpu0_STLB RFO       ACCESS:     130389  HIT:     130389  MISS:          0
cpu0_STLB PREFETCH  ACCESS:          0  HIT:          0  MISS:          0
cpu0_STLB WRITEBACK ACCESS:          0  HIT:          0  MISS:          0
cpu0_L1D TOTAL     ACCESS:   23226711  HIT:   22925038  MISS:     301673
cpu0_L1D LOAD      ACCESS:   20740211  HIT:   20441121  MISS:     299090
cpu0_L1D RFO       ACCESS:    2482782  HIT:    2482782  MISS:          0
cpu0_L1D PREFETCH  ACCESS:          0  HIT:          0  MISS:          0
cpu0_L1D WRITEBACK ACCESS:          0  HIT:          0  MISS:          0
cpu0_L2C TOTAL     ACCESS:     458711  HIT:     167486  MISS:     291225
cpu0_L2C LOAD      ACCESS:     299090  HIT:       7902  MISS:     291188
cpu0_L2C RFO       ACCESS:          0  HIT:          0  MISS:          0
cpu0_L2C PREFETCH  ACCESS:          0  HIT:          0  MISS:          0
cpu0_L2C WRITEBACK ACCESS:     157038  HIT:     157003  MISS:         35
LLC TOTAL     ACCESS:     447602  HIT:     180367  MISS:     267235
LLC LOAD      ACCESS:     291188  HIT:      25102  MISS:     266086
LLC RFO       ACCESS:          0  HIT:          0  MISS:          0
LLC PREFETCH  ACCESS:          0  HIT:          0  MISS:          0
LLC WRITEBACK ACCESS:     156412  HIT:     155264  MISS:       1148
Heartbeat CPU 0 instructions: 94000004 cycles: 88303756 heartbeat IPC: 0.734082 cumulative IPC: 0.7348 (Simulation time: 2 hr 27 min 44 sec) 

Region of Interest Statistics
cpu0_DTLB TOTAL     ACCESS:   20867006  HIT:   20587365  MISS:     279641
cpu0_DTLB LOAD      ACCESS:   19148456  HIT:   19002212  MISS:     146244
cpu0_DTLB RFO       ACCESS:    1718550  HIT:    1585153  MISS:     133397
cpu0_DTLB PREFETCH  ACCESS:          0  HIT:          0  MISS:          0
cpu0_DTLB WRITEBACK ACCESS:          0  HIT:          0  MISS:          0
cpu0_ITLB TOTAL     ACCESS:     759226  HIT:     759226  MISS:          0
cpu0_ITLB LOAD      ACCESS:     759226  HIT:     759226  MISS:          0
cpu0_ITLB RFO       ACCESS:          0  HIT:          0  MISS:          0
cpu0_ITLB PREFETCH  ACCESS:          0  HIT:          0  MISS:          0
cpu0_ITLB WRITEBACK ACCESS:          0  HIT:          0  MISS:          0
cpu0_L1I TOTAL     ACCESS:    4876374  HIT:    4876374  MISS:          0
cpu0_L1I LOAD      ACCESS:    4876374  HIT:    4876374  MISS:          0
cpu0_L1I RFO       ACCESS:          0  HIT:          0  MISS:          0
cpu0_L1I PREFETCH  ACCESS:          0  HIT:          0  MISS:          0
cpu0_L1I WRITEBACK ACCESS:          0  HIT:          0  MISS:          0
cpu0_STLB TOTAL     ACCESS:     279641  HIT:     275516  MISS:       4125
cpu0_STLB LOAD      ACCESS:     146244  HIT:     142119  MISS:       4125
cpu0_STLB RFO       ACCESS:     133397  HIT:     133397  MISS:          0
cpu0_STLB PREFETCH  ACCESS:          0  HIT:          0  MISS:          0
cpu0_STLB WRITEBACK ACCESS:          0  HIT:          0  MISS:          0
cpu0_L1D TOTAL     ACCESS:   24330793  HIT:   24015022  MISS:     315771
cpu0_L1D LOAD      ACCESS:   21725903  HIT:   21412838  MISS:     313065
cpu0_L1D RFO       ACCESS:    2600998  HIT:    2600998  MISS:          0
cpu0_L1D PREFETCH  ACCESS:          0  HIT:          0  MISS:          0
cpu0_L1D WRITEBACK ACCESS:          0  HIT:          0  MISS:          0
cpu0_L2C TOTAL     ACCESS:     480267  HIT:     175175  MISS:     305092
cpu0_L2C LOAD      ACCESS:     313065  HIT:       8012  MISS:     305053
cpu0_L2C RFO       ACCESS:          0  HIT:          0  MISS:          0
cpu0_L2C PREFETCH  ACCESS:          0  HIT:          0  MISS:          0
cpu0_L2C WRITEBACK ACCESS:     164496  HIT:     164459  MISS:         37
LLC TOTAL     ACCESS:     469261  HIT:     189324  MISS:     279937
LLC LOAD      ACCESS:     305053  HIT:      26306  MISS:     278747
LLC RFO       ACCESS:          0  HIT:          0  MISS:          0
LLC PREFETCH  ACCESS:          0  HIT:          0  MISS:          0
LLC WRITEBACK ACCESS:     164206  HIT:     163017  MISS:       1189
Heartbeat CPU 0 instructions: 96000000 cycles: 91029729 heartbeat IPC: 0.733681 cumulative IPC: 0.734751 (Simulation time: 2 hr 31 min 22 sec) 

Region of Interest Statistics
cpu0_DTLB TOTAL     ACCESS:   21813157  HIT:   21526606  MISS:     286551
cpu0_DTLB LOAD      ACCESS:   20016156  HIT:   19865843  MISS:     150313
cpu0_DTLB RFO       ACCESS:    1797001  HIT:    1660763  MISS:     136238
cpu0_DTLB PREFETCH  ACCESS:          0  HIT:          0  MISS:          0
cpu0_DTLB WRITEBACK ACCESS:          0  HIT:          0  MISS:          0
cpu0_ITLB TOTAL     ACCESS:     793734  HIT:     793734  MISS:          0
cpu0_ITLB LOAD      ACCESS:     793734  HIT:     793734  MISS:          0
cpu0_ITLB RFO       ACCESS:          0  HIT:          0  MISS:          0
cpu0_ITLB PREFETCH  ACCESS:          0  HIT:          0  MISS:          0
cpu0_ITLB WRITEBACK ACCESS:          0  HIT:          0  MISS:          0
cpu0_L1I TOTAL     ACCESS:    5097372  HIT:    5097372  MISS:          0
cpu0_L1I LOAD      ACCESS:    5097372  HIT:    5097372  MISS:          0
cpu0_L1I RFO       ACCESS:          0  HIT:          0  MISS:          0
cpu0_L1I PREFETCH  ACCESS:          0  HIT:          0  MISS:          0
cpu0_L1I WRITEBACK ACCESS:          0  HIT:          0  MISS:          0
cpu0_STLB TOTAL     ACCESS:     286551  HIT:     282237  MISS:       4314
cpu0_STLB LOAD      ACCESS:     150313  HIT:     145999  MISS:       4314
cpu0_STLB RFO       ACCESS:     136238  HIT:     136238  MISS:          0
cpu0_STLB PREFETCH  ACCESS:          0  HIT:          0  MISS:          0
cpu0_STLB WRITEBACK ACCESS:          0  HIT:          0  MISS:          0
cpu0_L1D TOTAL     ACCESS:   25434458  HIT:   25104430  MISS:     330028
cpu0_L1D LOAD      ACCESS:   22711162  HIT:   22383967  MISS:     327195
cpu0_L1D RFO       ACCESS:    2719227  HIT:    2719227  MISS:          0
cpu0_L1D PREFETCH  ACCESS:          0  HIT:          0  MISS:          0
cpu0_L1D WRITEBACK ACCESS:          0  HIT:          0  MISS:          0
cpu0_L2C TOTAL     ACCESS:     501994  HIT:     182989  MISS:     319005
cpu0_L2C LOAD      ACCESS:     327195  HIT:       8232  MISS:     318963
cpu0_L2C RFO       ACCESS:          0  HIT:          0  MISS:          0
cpu0_L2C PREFETCH  ACCESS:          0  HIT:          0  MISS:          0
cpu0_L2C WRITEBACK ACCESS:     171966  HIT:     171926  MISS:         40
LLC TOTAL     ACCESS:     490577  HIT:     197612  MISS:     292965
LLC LOAD      ACCESS:     318963  HIT:      27267  MISS:     291696
LLC RFO       ACCESS:          0  HIT:          0  MISS:          0
LLC PREFETCH  ACCESS:          0  HIT:          0  MISS:          0
LLC WRITEBACK ACCESS:     171612  HIT:     170344  MISS:       1268
Heartbeat CPU 0 instructions: 98000000 cycles: 93763698 heartbeat IPC: 0.731537 cumulative IPC: 0.734617 (Simulation time: 2 hr 35 min 6 sec) 

Region of Interest Statistics
cpu0_DTLB TOTAL     ACCESS:   22761303  HIT:   22454675  MISS:     306628
cpu0_DTLB LOAD      ACCESS:   20886695  HIT:   20723320  MISS:     163375
cpu0_DTLB RFO       ACCESS:    1874608  HIT:    1731355  MISS:     143253
cpu0_DTLB PREFETCH  ACCESS:          0  HIT:          0  MISS:          0
cpu0_DTLB WRITEBACK ACCESS:          0  HIT:          0  MISS:          0
cpu0_ITLB TOTAL     ACCESS:     828250  HIT:     828250  MISS:          0
cpu0_ITLB LOAD      ACCESS:     828250  HIT:     828250  MISS:          0
cpu0_ITLB RFO       ACCESS:          0  HIT:          0  MISS:          0
cpu0_ITLB PREFETCH  ACCESS:          0  HIT:          0  MISS:          0
cpu0_ITLB WRITEBACK ACCESS:          0  HIT:          0  MISS:          0
cpu0_L1I TOTAL     ACCESS:    5319218  HIT:    5319218  MISS:          0
cpu0_L1I LOAD      ACCESS:    5319218  HIT:    5319218  MISS:          0
cpu0_L1I RFO       ACCESS:          0  HIT:          0  MISS:          0
cpu0_L1I PREFETCH  ACCESS:          0  HIT:          0  MISS:          0
cpu0_L1I WRITEBACK ACCESS:          0  HIT:          0  MISS:          0
cpu0_STLB TOTAL     ACCESS:     306628  HIT:     302126  MISS:       4502
cpu0_STLB LOAD      ACCESS:     163375  HIT:     158873  MISS:       4502
cpu0_STLB RFO       ACCESS:     143253  HIT:     143253  MISS:          0
cpu0_STLB PREFETCH  ACCESS:          0  HIT:          0  MISS:          0
cpu0_STLB WRITEBACK ACCESS:          0  HIT:          0  MISS:          0
cpu0_L1D TOTAL     ACCESS:   26541937  HIT:   26197651  MISS:     344286
cpu0_L1D LOAD      ACCESS:   23700223  HIT:   23358887  MISS:     341336
cpu0_L1D RFO       ACCESS:    2837474  HIT:    2837474  MISS:          0
cpu0_L1D PREFETCH  ACCESS:          0  HIT:          0  MISS:          0
cpu0_L1D WRITEBACK ACCESS:          0  HIT:          0  MISS:          0
cpu0_L2C TOTAL     ACCESS:     523709  HIT:     190750  MISS:     332959
cpu0_L2C LOAD      ACCESS:     341336  HIT:       8419  MISS:     332917
cpu0_L2C RFO       ACCESS:          0  HIT:          0  MISS:          0
cpu0_L2C PREFETCH  ACCESS:          0  HIT:          0  MISS:          0
cpu0_L2C WRITEBACK ACCESS:     179423  HIT:     179383  MISS:         40
LLC TOTAL     ACCESS:     512169  HIT:     206420  MISS:     305749
LLC LOAD      ACCESS:     332917  HIT:      28482  MISS:     304435
LLC RFO       ACCESS:          0  HIT:          0  MISS:          0
LLC PREFETCH  ACCESS:          0  HIT:          0  MISS:          0
LLC WRITEBACK ACCESS:     179250  HIT:     177937  MISS:       1313
Heartbeat CPU 0 instructions: 100000002 cycles: 96460456 heartbeat IPC: 0.741632 cumulative IPC: 0.734895 (Simulation time: 2 hr 38 min 39 sec) 

Region of Interest Statistics
cpu0_DTLB TOTAL     ACCESS:   23708352  HIT:   23398104  MISS:     310248
cpu0_DTLB LOAD      ACCESS:   21755366  HIT:   21589754  MISS:     165612
cpu0_DTLB RFO       ACCESS:    1952986  HIT:    1808350  MISS:     144636
cpu0_DTLB PREFETCH  ACCESS:          0  HIT:          0  MISS:          0
cpu0_DTLB WRITEBACK ACCESS:          0  HIT:          0  MISS:          0
cpu0_ITLB TOTAL     ACCESS:     862755  HIT:     862755  MISS:          0
cpu0_ITLB LOAD      ACCESS:     862755  HIT:     862755  MISS:          0
cpu0_ITLB RFO       ACCESS:          0  HIT:          0  MISS:          0
cpu0_ITLB PREFETCH  ACCESS:          0  HIT:          0  MISS:          0
cpu0_ITLB WRITEBACK ACCESS:          0  HIT:          0  MISS:          0
cpu0_L1I TOTAL     ACCESS:    5539764  HIT:    5539764  MISS:          0
cpu0_L1I LOAD      ACCESS:    5539764  HIT:    5539764  MISS:          0
cpu0_L1I RFO       ACCESS:          0  HIT:          0  MISS:          0
cpu0_L1I PREFETCH  ACCESS:          0  HIT:          0  MISS:          0
cpu0_L1I WRITEBACK ACCESS:          0  HIT:          0  MISS:          0
cpu0_STLB TOTAL     ACCESS:     310248  HIT:     305560  MISS:       4688
cpu0_STLB LOAD      ACCESS:     165612  HIT:     160924  MISS:       4688
cpu0_STLB RFO       ACCESS:     144636  HIT:     144636  MISS:          0
cpu0_STLB PREFETCH  ACCESS:          0  HIT:          0  MISS:          0
cpu0_STLB WRITEBACK ACCESS:          0  HIT:          0  MISS:          0
cpu0_L1D TOTAL     ACCESS:   27645791  HIT:   27287521  MISS:     358270
cpu0_L1D LOAD      ACCESS:   24685686  HIT:   24330495  MISS:     355191
cpu0_L1D RFO       ACCESS:    2955689  HIT:    2955689  MISS:          0
cpu0_L1D PREFETCH  ACCESS:          0  HIT:          0  MISS:          0
cpu0_L1D WRITEBACK ACCESS:          0  HIT:          0  MISS:          0
cpu0_L2C TOTAL     ACCESS:     545170  HIT:     198389  MISS:     346781
cpu0_L2C LOAD      ACCESS:     355191  HIT:       8453  MISS:     346738
cpu0_L2C RFO       ACCESS:          0  HIT:          0  MISS:          0
cpu0_L2C PREFETCH  ACCESS:          0  HIT:          0  MISS:          0
cpu0_L2C WRITEBACK ACCESS:     186900  HIT:     186859  MISS:         41
LLC TOTAL     ACCESS:     533506  HIT:     215220  MISS:     318286
LLC LOAD      ACCESS:     346738  HIT:      29805  MISS:     316933
LLC RFO       ACCESS:          0  HIT:          0  MISS:          0
LLC PREFETCH  ACCESS:          0  HIT:          0  MISS:          0
LLC WRITEBACK ACCESS:     186766  HIT:     185414  MISS:       1352
Heartbeat CPU 0 instructions: 102000003 cycles: 99231535 heartbeat IPC: 0.721741 cumulative IPC: 0.73438 (Simulation time: 2 hr 42 min 19 sec) 

Region of Interest Statistics
cpu0_DTLB TOTAL     ACCESS:   24653744  HIT:   24315913  MISS:     337831
cpu0_DTLB LOAD      ACCESS:   22622789  HIT:   22439919  MISS:     182870
cpu0_DTLB RFO       ACCESS:    2030955  HIT:    1875994  MISS:     154961
cpu0_DTLB PREFETCH  ACCESS:          0  HIT:          0  MISS:          0
cpu0_DTLB WRITEBACK ACCESS:          0  HIT:          0  MISS:          0
cpu0_ITLB TOTAL     ACCESS:     897269  HIT:     897269  MISS:          0
cpu0_ITLB LOAD      ACCESS:     897269  HIT:     897269  MISS:          0
cpu0_ITLB RFO       ACCESS:          0  HIT:          0  MISS:          0
cpu0_ITLB PREFETCH  ACCESS:          0  HIT:          0  MISS:          0
cpu0_ITLB WRITEBACK ACCESS:          0  HIT:          0  MISS:          0
cpu0_L1I TOTAL     ACCESS:    5762212  HIT:    5762212  MISS:          0
cpu0_L1I LOAD      ACCESS:    5762212  HIT:    5762212  MISS:          0
cpu0_L1I RFO       ACCESS:          0  HIT:          0  MISS:          0
cpu0_L1I PREFETCH  ACCESS:          0  HIT:          0  MISS:          0
cpu0_L1I WRITEBACK ACCESS:          0  HIT:          0  MISS:          0
cpu0_STLB TOTAL     ACCESS:     337831  HIT:     332957  MISS:       4874
cpu0_STLB LOAD      ACCESS:     182870  HIT:     177996  MISS:       4874
cpu0_STLB RFO       ACCESS:     154961  HIT:     154961  MISS:          0
cpu0_STLB PREFETCH  ACCESS:          0  HIT:          0  MISS:          0
cpu0_STLB WRITEBACK ACCESS:          0  HIT:          0  MISS:          0
cpu0_L1D TOTAL     ACCESS:   28752247  HIT:   28379992  MISS:     372255
cpu0_L1D LOAD      ACCESS:   25673735  HIT:   25304683  MISS:     369052
cpu0_L1D RFO       ACCESS:    3073919  HIT:    3073919  MISS:          0
cpu0_L1D PREFETCH  ACCESS:          0  HIT:          0  MISS:          0
cpu0_L1D WRITEBACK ACCESS:          0  HIT:          0  MISS:          0
cpu0_L2C TOTAL     ACCESS:     566665  HIT:     206069  MISS:     360596
cpu0_L2C LOAD      ACCESS:     369052  HIT:       8500  MISS:     360552
cpu0_L2C RFO       ACCESS:          0  HIT:          0  MISS:          0
cpu0_L2C PREFETCH  ACCESS:          0  HIT:          0  MISS:          0
cpu0_L2C WRITEBACK ACCESS:     194410  HIT:     194368  MISS:         42
LLC TOTAL     ACCESS:     554655  HIT:     223563  MISS:     331092
LLC LOAD      ACCESS:     360552  HIT:      30816  MISS:     329736
LLC RFO       ACCESS:          0  HIT:          0  MISS:          0
LLC PREFETCH  ACCESS:          0  HIT:          0  MISS:          0
LLC WRITEBACK ACCESS:     194101  HIT:     192746  MISS:       1355
Heartbeat CPU 0 instructions: 104000003 cycles: 101982688 heartbeat IPC: 0.726968 cumulative IPC: 0.734103 (Simulation time: 2 hr 45 min 58 sec) 

Region of Interest Statistics
cpu0_DTLB TOTAL     ACCESS:   25605051  HIT:   25250894  MISS:     354157
cpu0_DTLB LOAD      ACCESS:   23496509  HIT:   23304453  MISS:     192056
cpu0_DTLB RFO       ACCESS:    2108542  HIT:    1946441  MISS:     162101
cpu0_DTLB PREFETCH  ACCESS:          0  HIT:          0  MISS:          0
cpu0_DTLB WRITEBACK ACCESS:          0  HIT:          0  MISS:          0
cpu0_ITLB TOTAL     ACCESS:     931774  HIT:     931774  MISS:          0
cpu0_ITLB LOAD      ACCESS:     931774  HIT:     931774  MISS:          0
cpu0_ITLB RFO       ACCESS:          0  HIT:          0  MISS:          0
cpu0_ITLB PREFETCH  ACCESS:          0  HIT:          0  MISS:          0
cpu0_ITLB WRITEBACK ACCESS:          0  HIT:          0  MISS:          0
cpu0_L1I TOTAL     ACCESS:    5984542  HIT:    5984542  MISS:          0
cpu0_L1I LOAD      ACCESS:    5984542  HIT:    5984542  MISS:          0
cpu0_L1I RFO       ACCESS:          0  HIT:          0  MISS:          0
cpu0_L1I PREFETCH  ACCESS:          0  HIT:          0  MISS:          0
cpu0_L1I WRITEBACK ACCESS:          0  HIT:          0  MISS:          0
cpu0_STLB TOTAL     ACCESS:     354157  HIT:     349097  MISS:       5060
cpu0_STLB LOAD      ACCESS:     192056  HIT:     186996  MISS:       5060
cpu0_STLB RFO       ACCESS:     162101  HIT:     162101  MISS:          0
cpu0_STLB PREFETCH  ACCESS:          0  HIT:          0  MISS:          0
cpu0_STLB WRITEBACK ACCESS:          0  HIT:          0  MISS:          0
cpu0_L1D TOTAL     ACCESS:   29859309  HIT:   29473012  MISS:     386297
cpu0_L1D LOAD      ACCESS:   26662408  HIT:   26279440  MISS:     382968
cpu0_L1D RFO       ACCESS:    3192135  HIT:    3192135  MISS:          0
cpu0_L1D PREFETCH  ACCESS:          0  HIT:          0  MISS:          0
cpu0_L1D WRITEBACK ACCESS:          0  HIT:          0  MISS:          0
cpu0_L2C TOTAL     ACCESS:     588154  HIT:     213732  MISS:     374422
cpu0_L2C LOAD      ACCESS:     382968  HIT:       8590  MISS:     374378
cpu0_L2C RFO       ACCESS:          0  HIT:          0  MISS:          0
cpu0_L2C PREFETCH  ACCESS:          0  HIT:          0  MISS:          0
cpu0_L2C WRITEBACK ACCESS:     201857  HIT:     201815  MISS:         42
LLC TOTAL     ACCESS:     576038  HIT:     232086  MISS:     343952
LLC LOAD      ACCESS:     374378  HIT:      31832  MISS:     342546
LLC RFO       ACCESS:          0  HIT:          0  MISS:          0
LLC PREFETCH  ACCESS:          0  HIT:          0  MISS:          0
LLC WRITEBACK ACCESS:     201658  HIT:     200253  MISS:       1405
Heartbeat CPU 0 instructions: 106000000 cycles: 104722638 heartbeat IPC: 0.729939 cumulative IPC: 0.733953 (Simulation time: 2 hr 49 min 32 sec) 

Region of Interest Statistics
cpu0_DTLB TOTAL     ACCESS:   26554596  HIT:   26172835  MISS:     381761
cpu0_DTLB LOAD      ACCESS:   24368348  HIT:   24160399  MISS:     207949
cpu0_DTLB RFO       ACCESS:    2186248  HIT:    2012436  MISS:     173812
cpu0_DTLB PREFETCH  ACCESS:          0  HIT:          0  MISS:          0
cpu0_DTLB WRITEBACK ACCESS:          0  HIT:          0  MISS:          0
cpu0_ITLB TOTAL     ACCESS:     966288  HIT:     966288  MISS:          0
cpu0_ITLB LOAD      ACCESS:     966288  HIT:     966288  MISS:          0
cpu0_ITLB RFO       ACCESS:          0  HIT:          0  MISS:          0
cpu0_ITLB PREFETCH  ACCESS:          0  HIT:          0  MISS:          0
cpu0_ITLB WRITEBACK ACCESS:          0  HIT:          0  MISS:          0
cpu0_L1I TOTAL     ACCESS:    6206992  HIT:    6206992  MISS:          0
cpu0_L1I LOAD      ACCESS:    6206992  HIT:    6206992  MISS:          0
cpu0_L1I RFO       ACCESS:          0  HIT:          0  MISS:          0
cpu0_L1I PREFETCH  ACCESS:          0  HIT:          0  MISS:          0
cpu0_L1I WRITEBACK ACCESS:          0  HIT:          0  MISS:          0
cpu0_STLB TOTAL     ACCESS:     381761  HIT:     376513  MISS:       5248
cpu0_STLB LOAD      ACCESS:     207949  HIT:     202701  MISS:       5248
cpu0_STLB RFO       ACCESS:     173812  HIT:     173812  MISS:          0
cpu0_STLB PREFETCH  ACCESS:          0  HIT:          0  MISS:          0
cpu0_STLB WRITEBACK ACCESS:          0  HIT:          0  MISS:          0
cpu0_L1D TOTAL     ACCESS:   30967198  HIT:   30566661  MISS:     400537
cpu0_L1D LOAD      ACCESS:   27651875  HIT:   27254789  MISS:     397086
cpu0_L1D RFO       ACCESS:    3310381  HIT:    3310381  MISS:          0
cpu0_L1D PREFETCH  ACCESS:          0  HIT:          0  MISS:          0
cpu0_L1D WRITEBACK ACCESS:          0  HIT:          0  MISS:          0
cpu0_L2C TOTAL     ACCESS:     609880  HIT:     221494  MISS:     388386
cpu0_L2C LOAD      ACCESS:     397086  HIT:       8747  MISS:     388339
cpu0_L2C RFO       ACCESS:          0  HIT:          0  MISS:          0
cpu0_L2C PREFETCH  ACCESS:          0  HIT:          0  MISS:          0
[...]
LLC TOTAL     ACCESS:   23933438  HIT:    9049238  MISS:   14884200
LLC LOAD      ACCESS:   16962688  HIT:    2124109  MISS:   14838579
LLC RFO       ACCESS:     137677  HIT:     118452  MISS:      19225
LLC PREFETCH  ACCESS:          0  HIT:          0  MISS:          0
LLC WRITEBACK ACCESS:    6831792  HIT:    6805954  MISS:      25838
Finished CPU 0 instructions: 1500000003 cycles: 2275145047 cumulative IPC: 0.659299 (Simulation time: 19 hr 26 min 57 sec) 

ChampSim completed all CPUs

Region of Interest Statistics

CPU 0 cumulative IPC: 0.659299 instructions: 1500000003 cycles: 2275145047
cpu0_DTLB TOTAL     ACCESS:  575579284  HIT:  565748944  MISS:    9830340
cpu0_DTLB LOAD      ACCESS:  515180031  HIT:  506879485  MISS:    8300546
cpu0_DTLB RFO       ACCESS:   60399253  HIT:   58869459  MISS:    1529794
cpu0_DTLB PREFETCH  ACCESS:          0  HIT:          0  MISS:          0
cpu0_DTLB WRITEBACK ACCESS:          0  HIT:          0  MISS:          0
cpu0_DTLB TRANSLATION ACCESS:          0  HIT:          0  MISS:          0
cpu0_DTLB PREFETCH  REQUESTED:          0  ISSUED:          0  USEFUL:          0  USELESS:          0
cpu0_DTLB AVERAGE MISS LATENCY: 15.6864 cycles
cpu0_ITLB TOTAL     ACCESS:   23546922  HIT:   23546889  MISS:         33
cpu0_ITLB LOAD      ACCESS:   23546922  HIT:   23546889  MISS:         33
cpu0_ITLB RFO       ACCESS:          0  HIT:          0  MISS:          0
cpu0_ITLB PREFETCH  ACCESS:          0  HIT:          0  MISS:          0
cpu0_ITLB WRITEBACK ACCESS:          0  HIT:          0  MISS:          0
cpu0_ITLB TRANSLATION ACCESS:          0  HIT:          0  MISS:          0
cpu0_ITLB PREFETCH  REQUESTED:          0  ISSUED:          0  USEFUL:          0  USELESS:          0
cpu0_ITLB AVERAGE MISS LATENCY: 230.303 cycles
cpu0_L1I TOTAL     ACCESS:  113999707  HIT:  113998817  MISS:        890
cpu0_L1I LOAD      ACCESS:  113999707  HIT:  113998817  MISS:        890
cpu0_L1I RFO       ACCESS:          0  HIT:          0  MISS:          0
cpu0_L1I PREFETCH  ACCESS:          0  HIT:          0  MISS:          0
cpu0_L1I WRITEBACK ACCESS:          0  HIT:          0  MISS:          0
cpu0_L1I TRANSLATION ACCESS:          0  HIT:          0  MISS:          0
cpu0_L1I PREFETCH  REQUESTED:          0  ISSUED:          0  USEFUL:          0  USELESS:          0
cpu0_L1I AVERAGE MISS LATENCY: 342.446 cycles
cpu0_STLB TOTAL     ACCESS:    9830373  HIT:    8801084  MISS:    1029289
cpu0_STLB LOAD      ACCESS:    8300579  HIT:    7273894  MISS:    1026685
cpu0_STLB RFO       ACCESS:    1529794  HIT:    1527190  MISS:       2604
cpu0_STLB PREFETCH  ACCESS:          0  HIT:          0  MISS:          0
cpu0_STLB WRITEBACK ACCESS:          0  HIT:          0  MISS:          0
cpu0_STLB TRANSLATION ACCESS:          0  HIT:          0  MISS:          0
cpu0_STLB PREFETCH  REQUESTED:          0  ISSUED:          0  USEFUL:          0  USELESS:          0
cpu0_STLB AVERAGE MISS LATENCY: 63.7878 cycles
cpu0_L1D TOTAL     ACCESS:  641820996  HIT:  614538583  MISS:   27282413
cpu0_L1D LOAD      ACCESS:  549516828  HIT:  522485992  MISS:   27030836
cpu0_L1D RFO       ACCESS:   91315412  HIT:   91140073  MISS:     175339
cpu0_L1D PREFETCH  ACCESS:          0  HIT:          0  MISS:          0
cpu0_L1D WRITEBACK ACCESS:          0  HIT:          0  MISS:          0
cpu0_L1D TRANSLATION ACCESS:     988756  HIT:     912518  MISS:      76238
cpu0_L1D PREFETCH  REQUESTED:          0  ISSUED:          0  USEFUL:          0  USELESS:          0
cpu0_L1D AVERAGE MISS LATENCY: 252.536 cycles
cpu0_L2C TOTAL     ACCESS:   35827265  HIT:   18725137  MISS:   17102128
cpu0_L2C LOAD      ACCESS:   27031726  HIT:   10069026  MISS:   16962700
cpu0_L2C RFO       ACCESS:     175339  HIT:      37662  MISS:     137677
cpu0_L2C PREFETCH  ACCESS:          0  HIT:          0  MISS:          0
cpu0_L2C WRITEBACK ACCESS:    8543962  HIT:    8543492  MISS:        470
cpu0_L2C TRANSLATION ACCESS:      76238  HIT:      74957  MISS:       1281
cpu0_L2C PREFETCH  REQUESTED:          0  ISSUED:          0  USEFUL:          0  USELESS:          0
cpu0_L2C AVERAGE MISS LATENCY: 385.289 cycles
LLC TOTAL     ACCESS:   23933438  HIT:    9049238  MISS:   14884200
LLC LOAD      ACCESS:   16962688  HIT:    2124109  MISS:   14838579
LLC RFO       ACCESS:     137677  HIT:     118452  MISS:      19225
LLC PREFETCH  ACCESS:          0  HIT:          0  MISS:          0
LLC WRITEBACK ACCESS:    6831792  HIT:    6805954  MISS:      25838
LLC TRANSLATION ACCESS:       1281  HIT:        723  MISS:        558
LLC PREFETCH  REQUESTED:          0  ISSUED:          0  USEFUL:          0  USELESS:          0
LLC AVERAGE MISS LATENCY: 418.572 cycles
~~~~~~~~~~Reuse Distance Profiler output~~~~~~~~~~
0	25849856	3093952
1	10570496	6794224
2	10716928	8898528
3	15206512	13021664
4	15671856	13353168
5	19107664	15502352
6	24695808	19122512
7	26387536	20630784
8	23454832	18739888
9	22135104	18740960
10	19404400	17837632
11	16036896	14765904
12	14948544	13959808
13	14543808	13702960
14	14002560	13451808
15	12351568	11699760
16	10297472	9808224
17	8692384	8179104
18	8376496	7915568
19	8335504	7880336
20	7219760	6796176
21	6831664	6368896
22	5999424	5560416
23	7042848	6365952
24	5875152	5255600
25	5003264	4534384
26	4892800	4493824
27	4769728	4409216
28	4678192	4307680
29	4673232	4352048
30	4607424	4279312
31	4442112	4119360
32	4097824	3729488
33	4082256	3653648
34	3814768	3360176
35	3606656	3183744
36	3316496	2877536
37	3182944	2778224
38	3082832	2681600
39	2913216	2502464
40	2882512	2429808
41	2622048	2234464
42	2665792	2201728
43	2471344	2053520
44	2233776	1801360
45	2210176	1768480
46	2114352	1749104
47	2075968	1716560
48	2046480	1676064
49	2118032	1752960
50	2077136	1722704
51	2028288	1680752
52	2193600	1866384
53	2237328	1918288
54	2330784	2050368
55	2291888	2029344
56	2351776	2081680
57	2311984	2071664
58	2315424	2087328
59	2321360	2120448
60	2230464	2031376
61	2263632	2075248
62	2079328	1920000
63	2111136	1943376
64	4190416	3849888
66	4110240	3821664
68	4050208	3733920
70	4005472	3717808
72	4056928	3762096
74	4159536	3834768
76	4314048	3969392
78	4290992	4045280
80	4377520	4133808
82	4468336	4222240
84	4500560	4222496
86	4448592	4144560
88	4403712	4120416
90	4592880	4324656
92	4668576	4363968
94	4928224	4598208
96	5172608	4751872
98	5587824	5059344
100	6102768	5486912
102	6603024	5785440
104	6812048	5990208
106	6433952	5565040
108	6119056	5264112
110	5687600	4894480
112	5078336	4350224
114	4289392	3712624
116	3312624	2930688
118	2799424	2506816
120	2258400	2026288
122	1679888	1514464
124	1393088	1244864
126	1224448	1055200
128	2143024	1892112
132	1753248	1549808
136	1439264	1298256
140	1396272	1296128
144	1314416	1253392
148	1206368	1167088
152	1167488	1142608
156	1121424	1083136
160	1065376	1042960
164	952256	925536
168	923584	911200
172	849616	834816
176	839104	782560
180	802080	740960
184	687536	657904
188	661152	651296
192	612160	608592
196	584048	582416
200	553776	553200
204	534576	534464
208	588240	588192
212	510224	510112
216	430160	429984
220	342960	342864
224	260128	260096
228	229760	229744
232	181936	181920
236	153776	153712
240	130976	130912
244	99072	99040
248	76176	76160
252	55984	55984
256	75696	75680
264	59344	59344
272	44288	44288
280	25024	25024
288	20208	20208
296	9824	9824
304	6384	6384
312	2192	2192
320	784	784
328	480	480
336	320	320
344	32	32
352	64	64
360	96	96
368	0	0
376	0	0
384	16	16
392	0	0
400	48	48
408	1120	1120
416	320	320
424	1520	1520
432	4656	4656
440	5808	5808
448	8336	8336
456	10736	10736
464	18080	18080
472	24192	24192
480	22704	22704
488	13936	13936
496	8400	8400
504	7424	7424
512	15440	15440
528	30000	30000
544	68304	68304
560	74624	74624
576	42432	42432
592	41776	41776
608	28512	28512
624	11104	11104
640	7856	7856
656	18864	18864
672	31584	31584
688	27360	27360
704	13728	13728
720	11392	11392
736	4928	4928
752	8112	8112
768	11072	11072
784	23632	23632
800	46448	46448
816	24352	24352
832	34752	34752
848	56528	56528
864	22768	22768
880	29936	29936
896	20880	20880
912	7536	7536
928	16064	16064
944	15488	15488
960	11616	11616
976	11280	11280
992	11744	11744
1008	10576	10576
1024	27488	27488
1056	108080	108080
1088	79840	79840
1120	44288	44288
1152	24880	24880
1184	27728	27728
1216	39120	39120
1248	76480	76480
1280	159440	159440
1312	90432	90432
1344	102288	102288
1376	346336	346336
1408	264624	264512
1440	8960	8848
1472	384	384
1504	208	208
1536	0	0
1568	16	16
1600	144	144
1632	400	400
1664	1344	1344
1696	6336	6336
1728	27024	27024
1760	61216	61216
1792	95184	95184
1824	166944	166944
1856	286000	286000
1888	406016	406016
1920	381632	381632
1952	286048	286048
1984	211168	211168
2016	202992	202992
2048	379008	379008
2112	83504	83504
2176	13616	13616
2240	112	112
2304	0	0
2368	0	0
2432	0	0
2496	0	0
2560	0	0
2624	0	0
2688	0	0
2752	0	0
2816	0	0
2880	0	0
2944	0	0
3008	0	0
3072	0	0
3136	0	0
3200	0	0
3264	0	0
3328	0	0
3392	0	0
3456	0	0
3520	0	0
3584	0	0
3648	0	0
3712	0	0
3776	0	0
3840	0	0
3904	0	0
3968	0	0
4032	0	0
4096	0	0
4224	0	0
4352	0	0
4480	4032	4032
4608	3920	3920
4736	1616	1616
4864	0	0
4992	0	0
5120	0	0
5248	16	16
5376	0	0
5504	144	112
5632	48	16
5760	0	0
5888	0	0
6016	0	0
6144	16	0
6272	1184	1184
6400	10160	10128
6528	22784	22784
6656	16480	16480
6784	8720	8720
6912	4160	4160
7040	4048	4048
7168	2112	2112
7296	592	560
7424	336	320
7552	368	352
7680	32	32
7808	272	272
7936	1456	1456
8064	8688	8672
8192	35056	35024
8448	11936	11936
8704	32	0
8960	0	0
9216	48	32
9472	0	0
9728	16	0
9984	0	0
10240	16	0
10496	32	0
10752	16	0
11008	0	0
11264	16	0
11520	0	0
11776	32	0
12032	16	0
12288	32	32
12544	48	0
12800	0	0
13056	16	0
13312	16	0
13568	32	0
13824	32	16
14080	0	0
14336	0	0
14592	80	16
14848	0	0
15104	16	0
15360	16	0
15616	16	16
15872	32	0
16128	16	0
16384	32	0
16896	32	0
17408	64	32
17920	48	32
18432	48	0
18944	32	0
19456	80	48
19968	16	0
20480	48	16
20992	1040	1024
21504	55296	55264
22016	461472	461424
22528	997472	997424
23040	244192	244176
23552	54384	54368
24064	1968	1936
24576	368	304
25088	176	80
25600	16	0
26112	16	0
26624	0	0
27136	80	32
27648	32	0
28160	16	0
28672	48	0
29184	16	0
29696	1648	1600
30208	557776	557680
30720	1452176	1451680
31232	862704	862208
31744	1918304	1917824
32256	1609792	1609232
32768	9424	8336
33792	1056	96
34816	976	64
35840	992	80
36864	1200	64
37888	960	96
38912	1088	80
39936	1008	64
40960	1112224	1111344
41984	1708528	1707472
43008	1088	64
44032	1152	80
45056	1040	64
46080	1376	80
47104	1088	48
48128	1296	64
49152	1136	48
50176	1040	144
51200	1120	160
52224	1328	176
53248	1312	160
54272	1152	128
55296	1152	96
56320	1056	48
57344	1104	64
58368	992	64
59392	1344	144
60416	1056	112
61440	1216	112
62464	1024	64
63488	1168	48
64512	896	64
65536	2112	176
67584	2576	160
69632	2304	128
71680	2416	336
73728	2304	496
75776	1568	448
77824	832	144
79872	848	208
81920	656	112
83968	928	192
86016	848	256
88064	624	112
90112	1104	432
92160	1648	992
94208	1552	1008
96256	944	400
98304	832	160
100352	992	208
102400	1008	240
104448	896	384
106496	992	432
108544	1168	608
110592	912	608
112640	704	544
114688	496	320
116736	480	256
118784	720	368
120832	512	160
122880	464	112
124928	432	192
126976	352	256
129024	656	400
131072	1232	544
135168	1760	480
139264	2080	1056
143360	880	352
147456	768	320
151552	688	416
155648	1040	416
159744	1184	608
163840	1104	672
167936	656	336
172032	992	768
176128	1024	672
180224	896	608
184320	1760	1424
188416	864	368
192512	896	448
196608	928	608
200704	752	208
204800	928	384
208896	1120	560
212992	800	480
217088	1408	784
221184	848	496
225280	1040	384
229376	464	240
233472	1472	1120
237568	1760	1232
241664	1168	752
245760	6880	6608
249856	13008	12544
253952	61056	60256
258048	71008	70544
262144	1888	1232
270336	51008	49680
278528	132576	131344
286720	2304	1248
294912	2336	1424
303104	1936	1152
311296	28928	27856
319488	290464	289248
327680	266288	264912
335872	2848	1392
344064	1968	928
352256	1488	768
360448	1856	688
368640	2560	1216
376832	2016	960
385024	1696	816
393216	1728	768
401408	2864	2320
409600	8672	7728
417792	2305296	2304176
425984	69552	68592
434176	1648	1072
442368	2112	1440
450560	1552	576
458752	2208	1568
466944	1472	928
475136	1968	1008
483328	1936	624
491520	1632	816
499712	2336	1168
507904	1568	960
516096	1824	1040
524288	3632	1776
540672	3264	1664
557056	3856	2144
573440	4272	2512
589824	4080	1952
606208	4048	1760
622592	3792	2144
638976	4016	2112
655360	4272	2272
671744	3888	1952
688128	3824	2016
704512	4288	2304
720896	4128	2352
737280	4000	2208
753664	4736	2448
770048	4592	2368
786432	3984	2208
802816	3856	1888
819200	3552	1776
835584	4336	2160
851968	4176	2064
868352	4304	2480
884736	3056	1616
901120	1296	416
917504	1424	16
933888	768	32
950272	544	32
966656	400	0
983040	64	16
999424	64	0
1015808	64	64
1032192	0	0
1048576	0	0
1081344	16	16
1114112	32	32
1146880	0	0
1179648	16	16
1212416	32	32
1245184	0	0
1277952	0	0
1310720	16	16
1343488	16	16
1376256	128	128
1409024	5824	5824
1441792	64	64
1474560	64	64
1507328	192	176
1540096	80	80
1572864	96	96
1605632	64	64
1638400	32	32
1671168	48	48
1703936	80	80
1736704	80	80
1769472	16	16
1802240	64	64
1835008	64	64
1867776	80	80
1900544	128	128
1933312	176	176
1966080	96	96
1998848	192	192
2031616	64	64
2064384	128	128
2097152	48	48
2162688	144	144
2228224	160	160
2293760	64	64
2359296	192	192
2424832	432	432
2490368	320	320
2555904	160	160
2621440	256	256
2686976	176	176
2752512	192	192
2818048	240	240
2883584	288	288
2949120	352	352
3014656	128	128
3080192	752	752
3145728	384	384
3211264	304	304
3276800	224	224
3342336	256	256
3407872	256	256
3473408	240	240
3538944	320	320
3604480	320	320
3670016	352	352
3735552	256	256
3801088	256	256
3866624	368	368
3932160	304	304
3997696	224	224
4063232	192	192
4128768	288	288
4194304	1216	1216
4325376	1008	1008
4456448	528	528
4587520	1776	1776
4718592	1696	1696
4849664	210576	210576
4980736	28000	28000
5111808	3264	3264
5242880	5504	5504
5373952	5232	5232
5505024	5040	5040
5636096	2368	2352
5767168	896	896
5898240	896	896
6029312	672	672
6160384	848	848
6291456	880	880
6422528	576	576
6553600	736	736
6684672	496	496
6815744	704	704
6946816	5888	5888
7077888	576	576
7208960	3072	3072
7340032	2928	2928
7471104	2096	2096
7602176	512	512
7733248	576	576
7864320	720	720
7995392	656	656
8126464	736	736
8257536	704	704
8388608	1424	1424
8650752	1232	1232
8912896	1296	1296
9175040	1328	1328
9437184	1408	1408
9699328	1232	1232
9961472	1920	1920
10223616	1888	1888
10485760	2144	2144
10747904	2112	2112
11010048	1648	1648
11272192	2512	2512
11534336	2352	2352
11796480	2048	2048
12058624	2000	2000
12320768	2144	2144
12582912	2176	2176
12845056	1920	1920
13107200	2032	2032
13369344	1952	1952
13631488	1328	1328
13893632	1632	1632
14155776	1952	1952
14417920	1872	1872
14680064	2160	2160
14942208	1872	1872
15204352	2880	2880
15466496	1536	1536
15728640	1344	1344
15990784	1456	1456
16252928	1280	1280
16515072	1488	1488
16777216	5408	5408
17301504	4320	4320
17825792	4272	4272
18350080	3904	3904
18874368	4016	4016
19398656	4128	4128
19922944	3440	3440
20447232	4000	4000
20971520	3424	3424
21495808	2224	2224
22020096	2128	2128
22544384	2400	2400
23068672	1616	1616
23592960	1584	1584
24117248	1408	1408
24641536	1920	1920
25165824	1616	1616
25690112	1504	1504
26214400	1872	1872
26738688	2080	2080
27262976	1792	1792
27787264	1936	1936
28311552	1792	1792
28835840	1952	1952
29360128	1616	1616
29884416	1696	1696
30408704	2208	2208
30932992	1760	1760
31457280	1744	1744
31981568	1808	1808
32505856	1440	1440
33030144	1648	1648
33554432	3504	3504
34603008	3664	3664
35651584	4704	4704
36700160	4416	4416
37748736	994496	994496
38797312	5248	5248
39845888	5536	5536
40894464	5440	5440
41943040	6128	6128
42991616	6736	6736
44040192	6608	6608
45088768	7152	7152
46137344	6384	6384
47185920	6736	6736
48234496	7200	7200
49283072	6608	6608
50331648	6816	6816
51380224	7456	7456
52428800	7312	7312
53477376	8192	8192
54525952	9904	9904
55574528	11040	11040
56623104	10176	10176
57671680	6720	6720
58720256	6624	6608
59768832	6688	6688
60817408	7024	7024
61865984	6896	6896
62914560	6464	6464
63963136	7216	7216
65011712	6448	6448
66060288	6992	6992
67108864	16448	16448
69206016	15808	15808
71303168	16544	16544
73400320	35184	35184
75497472	35968	35968
77594624	293712	293712
79691776	32688	32688
81788928	34112	34112
83886080	35600	35600
85983232	33408	33408
88080384	35200	35200
90177536	35232	35232
92274688	19152	19152
94371840	10672	10672
96468992	10976	10976
98566144	8544	8544
100663296	8512	8512
102760448	7968	7968
104857600	7648	7648
106954752	7424	7424
109051904	7040	7040
111149056	5856	5856
113246208	4480	4480
115343360	3456	3456
117440512	1824	1824
119537664	528	528
121634816	400	400
123731968	304	304
125829120	192	192
127926272	320	320
130023424	336	336
132120576	320	320
134217728	4368	4368
138412032	6064	6064
142606336	5344	5344
146800640	5808	5808
150994944	42512	42464
155189248	52720	52704
159383552	50880	50880
163577856	50496	50496
167772160	53232	53232
171966464	10816	10816
176160768	6832	6832
180355072	6512	6512
184549376	6944	6944
188743680	8496	8496
192937984	9136	9136
197132288	9536	9536
201326592	8192	8192
205520896	6128	6128
209715200	5920	5920
213909504	11744	11744
218103808	12528	12528
222298112	23744	23744
226492416	21984	21984
230686720	8032	8032
234881024	12496	12496
239075328	12752	12752
243269632	8112	8112
247463936	2032	2032
251658240	256	256
255852544	240	240
260046848	240	240
264241152	192	192
268435456	384	384
276824064	432	432
285212672	1696	1696
293601280	3648	3648
301989888	15216	15216
310378496	14416	14416
318767104	1808	1808
327155712	3248	3248
335544320	4288	4288
343932928	4656	4656
352321536	4112	4112
360710144	4896	4896
369098752	7280	7280
377487360	1392	1392
385875968	736	736
394264576	1024	1024
402653184	2304	2304
411041792	3824	3824
419430400	3456	3456
427819008	3488	3488
436207616	3360	3360
444596224	7456	7456
452984832	1696	1696
461373440	240	240
469762048	0	0
478150656	432	432
486539264	240	240
494927872	416	416
503316480	320	320
511705088	400	400
520093696	4016	4016
528482304	192	192
536870912	0	0
553648128	0	0
570425344	0	0
587202560	1040	1040
603979776	0	0
620756992	0	0
637534208	0	0
654311424	41504	41504
671088640	0	0
687865856	0	0
704643072	0	0
721420288	0	0
738197504	0	0
754974720	0	0
771751936	0	0
788529152	0	0
805306368	0	0
822083584	0	0
838860800	0	0
855638016	0	0
872415232	0	0
889192448	0	0
905969664	0	0
922746880	0	0
939524096	0	0
956301312	0	0
973078528	0	0
989855744	0	0
1006632960	0	0
1023410176	0	0
1040187392	0	0
1056964608	0	0
1073741824	0	0
1107296256	0	0
1140850688	0	0
1174405120	0	0
1207959552	0	0
1241513984	0	0
1275068416	0	0
1308622848	0	0
1342177280	0	0
1375731712	0	0
1409286144	0	0
1442840576	0	0
1476395008	0	0
1509949440	0	0
1543503872	0	0
1577058304	0	0
1610612736	0	0
1644167168	0	0
1677721600	0	0
1711276032	0	0
1744830464	0	0
1778384896	0	0
1811939328	0	0
1845493760	0	0
1879048192	0	0
1912602624	0	0
1946157056	0	0
1979711488	0	0
2013265920	0	0
2046820352	0	0
2080374784	0	0
2113929216	0	0
2147483648	0	0
2214592512	0	0
2281701376	0	0
2348810240	0	0
2415919104	0	0
2483027968	0	0
2550136832	0	0
2617245696	0	0
2684354560	0	0
2751463424	0	0
2818572288	0	0
2885681152	0	0
2952790016	0	0
3019898880	0	0
3087007744	0	0
3154116608	0	0
3221225472	0	0
3288334336	0	0
3355443200	0	0
3422552064	0	0
3489660928	0	0
3556769792	0	0
3623878656	0	0
3690987520	0	0
3758096384	0	0
3825205248	0	0
3892314112	0	0
3959422976	0	0
4026531840	0	0
4093640704	0	0
4160749568	0	0
4227858432	0	0
~~~~~~~~~~Reuse Distance Profiler output end~~~~~~~~~~

Sampler size:728966

DRAM Statistics
 CHANNEL 0
 RQ ROW_BUFFER_HIT:      50120  ROW_BUFFER_MISS:   14808193
 DBUS AVG_CONGESTED_CYCLE:    3.98535
 WQ ROW_BUFFER_HIT:     353657  ROW_BUFFER_MISS:    6329443  FULL:          0


CPU 0 Branch Prediction Accuracy: 98.5289% MPKI: 0.23875 Average ROB Occupancy at Mispredict: 341.025
Branch type MPKI
BRANCH_DIRECT_JUMP: 2e-05
BRANCH_INDIRECT: 2e-06
BRANCH_CONDITIONAL: 0.238595
BRANCH_DIRECT_CALL: 6.73333e-05
BRANCH_INDIRECT_CALL: 0
BRANCH_RETURN: 6.53333e-05

