
*** ChampSim Multicore Out-of-Order Simulator ***

Warmup Instructions: 50000000
Simulation Instructions: 1500000000
Number of CPUs: 1
Off-chip DRAM Size: 4 GiB Channels: 1 Width: 64-bit Data Rate: 3200 MT/s

VirtualMemory physical capacity: 8588881920 num_ppages: 2096895
VirtualMemory page size: 4096 log2_page_size: 12

CPU 0 runs /s/traces/champsim_traces/462.libquantum-1343B.champsimtrace.xz
CPU 0 Bimodal branch predictor
Basic BTB sets: 1024 ways: 8 indirect buffer size: 4096 RAS size: 64
Initializing LRU.
Initializing LRU.
Initializing LRU.
Initializing LRU.
Initializing rdLRU.
Initializing LRU.
Heartbeat CPU 0 instructions: 2000000 cycles: 540024 heartbeat IPC: 3.70354 cumulative IPC: 3.70354 (Simulation time: 0 hr 1 min 13 sec) 
Heartbeat CPU 0 instructions: 4000000 cycles: 1082656 heartbeat IPC: 3.68574 cumulative IPC: 3.69462 (Simulation time: 0 hr 2 min 25 sec) 
Heartbeat CPU 0 instructions: 6000002 cycles: 1625292 heartbeat IPC: 3.68572 cumulative IPC: 3.69165 (Simulation time: 0 hr 3 min 39 sec) 
Heartbeat CPU 0 instructions: 8000002 cycles: 2167933 heartbeat IPC: 3.68568 cumulative IPC: 3.69015 (Simulation time: 0 hr 4 min 52 sec) 
Heartbeat CPU 0 instructions: 10000004 cycles: 2710549 heartbeat IPC: 3.68585 cumulative IPC: 3.68929 (Simulation time: 0 hr 6 min 7 sec) 
Heartbeat CPU 0 instructions: 12000000 cycles: 3253163 heartbeat IPC: 3.68585 cumulative IPC: 3.68872 (Simulation time: 0 hr 7 min 23 sec) 
Heartbeat CPU 0 instructions: 14000001 cycles: 3795781 heartbeat IPC: 3.68584 cumulative IPC: 3.68831 (Simulation time: 0 hr 8 min 37 sec) 
Heartbeat CPU 0 instructions: 16000002 cycles: 4338393 heartbeat IPC: 3.68588 cumulative IPC: 3.688 (Simulation time: 0 hr 9 min 46 sec) 
Heartbeat CPU 0 instructions: 18000003 cycles: 4881008 heartbeat IPC: 3.68586 cumulative IPC: 3.68776 (Simulation time: 0 hr 10 min 59 sec) 
Heartbeat CPU 0 instructions: 20000000 cycles: 5423619 heartbeat IPC: 3.68588 cumulative IPC: 3.68757 (Simulation time: 0 hr 12 min 12 sec) 
Heartbeat CPU 0 instructions: 22000000 cycles: 5966242 heartbeat IPC: 3.6858 cumulative IPC: 3.68741 (Simulation time: 0 hr 13 min 28 sec) 
Heartbeat CPU 0 instructions: 24000001 cycles: 6508875 heartbeat IPC: 3.68573 cumulative IPC: 3.68727 (Simulation time: 0 hr 14 min 43 sec) 
Heartbeat CPU 0 instructions: 26000002 cycles: 7113217 heartbeat IPC: 3.30939 cumulative IPC: 3.65517 (Simulation time: 0 hr 16 min 2 sec) 
Heartbeat CPU 0 instructions: 28000000 cycles: 7751506 heartbeat IPC: 3.13337 cumulative IPC: 3.6122 (Simulation time: 0 hr 17 min 26 sec) 
Heartbeat CPU 0 instructions: 30000001 cycles: 8389786 heartbeat IPC: 3.13342 cumulative IPC: 3.57578 (Simulation time: 0 hr 18 min 50 sec) 
Heartbeat CPU 0 instructions: 32000004 cycles: 9028070 heartbeat IPC: 3.13341 cumulative IPC: 3.5445 (Simulation time: 0 hr 20 min 18 sec) 
Heartbeat CPU 0 instructions: 34000000 cycles: 9666351 heartbeat IPC: 3.13341 cumulative IPC: 3.51736 (Simulation time: 0 hr 21 min 44 sec) 
Heartbeat CPU 0 instructions: 36000002 cycles: 10304638 heartbeat IPC: 3.13339 cumulative IPC: 3.49357 (Simulation time: 0 hr 23 min 8 sec) 
Heartbeat CPU 0 instructions: 38000000 cycles: 10942921 heartbeat IPC: 3.1334 cumulative IPC: 3.47256 (Simulation time: 0 hr 24 min 28 sec) 
Heartbeat CPU 0 instructions: 40000000 cycles: 11581199 heartbeat IPC: 3.13343 cumulative IPC: 3.45387 (Simulation time: 0 hr 25 min 52 sec) 
Heartbeat CPU 0 instructions: 42000003 cycles: 12219427 heartbeat IPC: 3.13368 cumulative IPC: 3.43715 (Simulation time: 0 hr 27 min 14 sec) 
Heartbeat CPU 0 instructions: 44000000 cycles: 12857648 heartbeat IPC: 3.13371 cumulative IPC: 3.42209 (Simulation time: 0 hr 28 min 35 sec) 
Heartbeat CPU 0 instructions: 46000000 cycles: 13667251 heartbeat IPC: 2.47035 cumulative IPC: 3.36571 (Simulation time: 0 hr 30 min 24 sec) 
Heartbeat CPU 0 instructions: 48000002 cycles: 14524392 heartbeat IPC: 2.33334 cumulative IPC: 3.30479 (Simulation time: 0 hr 32 min 19 sec) 
Heartbeat CPU 0 instructions: 50000001 cycles: 15381536 heartbeat IPC: 2.33333 cumulative IPC: 3.25065 (Simulation time: 0 hr 34 min 18 sec) 

Warmup complete CPU 0 instructions: 50000001 cycles: 15381536 (Simulation time: 0 hr 34 min 18 sec) 

Heartbeat CPU 0 instructions: 52000003 cycles: 20256318 heartbeat IPC: 0.410275 cumulative IPC: 0.410275 (Simulation time: 0 hr 39 min 57 sec) 

Region of Interest Statistics
cpu0_DTLB TOTAL     ACCESS:     347683  HIT:     346567  MISS:       1116
cpu0_DTLB LOAD      ACCESS:     218952  HIT:     218912  MISS:         40
cpu0_DTLB RFO       ACCESS:     128731  HIT:     127655  MISS:       1076
cpu0_DTLB PREFETCH  ACCESS:          0  HIT:          0  MISS:          0
cpu0_DTLB WRITEBACK ACCESS:          0  HIT:          0  MISS:          0
cpu0_ITLB TOTAL     ACCESS:      10276  HIT:      10276  MISS:          0
cpu0_ITLB LOAD      ACCESS:      10276  HIT:      10276  MISS:          0
cpu0_ITLB RFO       ACCESS:          0  HIT:          0  MISS:          0
cpu0_ITLB PREFETCH  ACCESS:          0  HIT:          0  MISS:          0
cpu0_ITLB WRITEBACK ACCESS:          0  HIT:          0  MISS:          0
cpu0_STLB TOTAL     ACCESS:       1116  HIT:          0  MISS:       1116
cpu0_STLB LOAD      ACCESS:         40  HIT:          0  MISS:         40
cpu0_STLB RFO       ACCESS:       1076  HIT:          0  MISS:       1076
cpu0_STLB PREFETCH  ACCESS:          0  HIT:          0  MISS:          0
cpu0_STLB WRITEBACK ACCESS:          0  HIT:          0  MISS:          0
cpu0_L1D TOTAL     ACCESS:     493496  HIT:     422066  MISS:      71430
cpu0_L1D LOAD      ACCESS:     206666  HIT:     135237  MISS:      71429
cpu0_L1D RFO       ACCESS:     285714  HIT:     285714  MISS:          0
cpu0_L1D PREFETCH  ACCESS:          0  HIT:          0  MISS:          0
cpu0_L1D WRITEBACK ACCESS:          0  HIT:          0  MISS:          0
cpu0_L2C TOTAL     ACCESS:     142858  HIT:      71428  MISS:      71430
cpu0_L2C LOAD      ACCESS:      71429  HIT:          0  MISS:      71429
cpu0_L2C RFO       ACCESS:          0  HIT:          0  MISS:          0
cpu0_L2C PREFETCH  ACCESS:          0  HIT:          0  MISS:          0
cpu0_L2C WRITEBACK ACCESS:      71428  HIT:      71428  MISS:          0
LLC TOTAL     ACCESS:     142857  HIT:      60255  MISS:      82602
LLC LOAD      ACCESS:      71429  HIT:          0  MISS:      71429
LLC RFO       ACCESS:          0  HIT:          0  MISS:          0
LLC PREFETCH  ACCESS:          0  HIT:          0  MISS:          0
LLC WRITEBACK ACCESS:      71427  HIT:      60255  MISS:      11172
Heartbeat CPU 0 instructions: 54000002 cycles: 25129178 heartbeat IPC: 0.410436 cumulative IPC: 0.410356 (Simulation time: 0 hr 45 min 41 sec) 

Region of Interest Statistics
cpu0_DTLB TOTAL     ACCESS:     695034  HIT:     692802  MISS:       2232
cpu0_DTLB LOAD      ACCESS:     437602  HIT:     437514  MISS:         88
cpu0_DTLB RFO       ACCESS:     257432  HIT:     255288  MISS:       2144
cpu0_DTLB PREFETCH  ACCESS:          0  HIT:          0  MISS:          0
cpu0_DTLB WRITEBACK ACCESS:          0  HIT:          0  MISS:          0
cpu0_ITLB TOTAL     ACCESS:      20944  HIT:      20944  MISS:          0
cpu0_ITLB LOAD      ACCESS:      20944  HIT:      20944  MISS:          0
cpu0_ITLB RFO       ACCESS:          0  HIT:          0  MISS:          0
cpu0_ITLB PREFETCH  ACCESS:          0  HIT:          0  MISS:          0
cpu0_ITLB WRITEBACK ACCESS:          0  HIT:          0  MISS:          0
cpu0_STLB TOTAL     ACCESS:       2232  HIT:          0  MISS:       2232
cpu0_STLB LOAD      ACCESS:         88  HIT:          0  MISS:         88
cpu0_STLB RFO       ACCESS:       2144  HIT:          0  MISS:       2144
cpu0_STLB PREFETCH  ACCESS:          0  HIT:          0  MISS:          0
cpu0_STLB WRITEBACK ACCESS:          0  HIT:          0  MISS:          0
cpu0_L1D TOTAL     ACCESS:     987010  HIT:     844152  MISS:     142858
cpu0_L1D LOAD      ACCESS:     413352  HIT:     270495  MISS:     142857
cpu0_L1D RFO       ACCESS:     571426  HIT:     571426  MISS:          0
cpu0_L1D PREFETCH  ACCESS:          0  HIT:          0  MISS:          0
cpu0_L1D WRITEBACK ACCESS:          0  HIT:          0  MISS:          0
cpu0_L2C TOTAL     ACCESS:     285714  HIT:     142856  MISS:     142858
cpu0_L2C LOAD      ACCESS:     142857  HIT:          0  MISS:     142857
cpu0_L2C RFO       ACCESS:          0  HIT:          0  MISS:          0
cpu0_L2C PREFETCH  ACCESS:          0  HIT:          0  MISS:          0
cpu0_L2C WRITEBACK ACCESS:     142856  HIT:     142856  MISS:          0
LLC TOTAL     ACCESS:     285713  HIT:     120779  MISS:     164934
LLC LOAD      ACCESS:     142857  HIT:          0  MISS:     142857
LLC RFO       ACCESS:          0  HIT:          0  MISS:          0
LLC PREFETCH  ACCESS:          0  HIT:          0  MISS:          0
LLC WRITEBACK ACCESS:     142855  HIT:     120779  MISS:      22076
Heartbeat CPU 0 instructions: 56000004 cycles: 30000009 heartbeat IPC: 0.410608 cumulative IPC: 0.41044 (Simulation time: 0 hr 51 min 19 sec) 

Region of Interest Statistics
cpu0_DTLB TOTAL     ACCESS:    1042804  HIT:    1039456  MISS:       3348
cpu0_DTLB LOAD      ACCESS:     656537  HIT:     656411  MISS:        126
cpu0_DTLB RFO       ACCESS:     386267  HIT:     383045  MISS:       3222
cpu0_DTLB PREFETCH  ACCESS:          0  HIT:          0  MISS:          0
cpu0_DTLB WRITEBACK ACCESS:          0  HIT:          0  MISS:          0
cpu0_ITLB TOTAL     ACCESS:      30939  HIT:      30939  MISS:          0
cpu0_ITLB LOAD      ACCESS:      30939  HIT:      30939  MISS:          0
cpu0_ITLB RFO       ACCESS:          0  HIT:          0  MISS:          0
cpu0_ITLB PREFETCH  ACCESS:          0  HIT:          0  MISS:          0
cpu0_ITLB WRITEBACK ACCESS:          0  HIT:          0  MISS:          0
cpu0_STLB TOTAL     ACCESS:       3348  HIT:          0  MISS:       3348
cpu0_STLB LOAD      ACCESS:        126  HIT:          0  MISS:        126
cpu0_STLB RFO       ACCESS:       3222  HIT:          0  MISS:       3222
cpu0_STLB PREFETCH  ACCESS:          0  HIT:          0  MISS:          0
cpu0_STLB WRITEBACK ACCESS:          0  HIT:          0  MISS:          0
cpu0_L1D TOTAL     ACCESS:    1480575  HIT:    1266288  MISS:     214287
cpu0_L1D LOAD      ACCESS:     620085  HIT:     405799  MISS:     214286
cpu0_L1D RFO       ACCESS:     857142  HIT:     857142  MISS:          0
cpu0_L1D PREFETCH  ACCESS:          0  HIT:          0  MISS:          0
cpu0_L1D WRITEBACK ACCESS:          0  HIT:          0  MISS:          0
cpu0_L2C TOTAL     ACCESS:     428572  HIT:     214285  MISS:     214287
cpu0_L2C LOAD      ACCESS:     214286  HIT:          0  MISS:     214286
cpu0_L2C RFO       ACCESS:          0  HIT:          0  MISS:          0
cpu0_L2C PREFETCH  ACCESS:          0  HIT:          0  MISS:          0
cpu0_L2C WRITEBACK ACCESS:     214285  HIT:     214285  MISS:          0
LLC TOTAL     ACCESS:     428571  HIT:     180652  MISS:     247919
LLC LOAD      ACCESS:     214286  HIT:          0  MISS:     214286
LLC RFO       ACCESS:          0  HIT:          0  MISS:          0
LLC PREFETCH  ACCESS:          0  HIT:          0  MISS:          0
LLC WRITEBACK ACCESS:     214284  HIT:     180652  MISS:      33632
Heartbeat CPU 0 instructions: 58000003 cycles: 34867529 heartbeat IPC: 0.410887 cumulative IPC: 0.410551 (Simulation time: 0 hr 57 min 11 sec) 

Region of Interest Statistics
cpu0_DTLB TOTAL     ACCESS:    1390134  HIT:    1385670  MISS:       4464
cpu0_DTLB LOAD      ACCESS:     875214  HIT:     875029  MISS:        185
cpu0_DTLB RFO       ACCESS:     514920  HIT:     510641  MISS:       4279
cpu0_DTLB PREFETCH  ACCESS:          0  HIT:          0  MISS:          0
cpu0_DTLB WRITEBACK ACCESS:          0  HIT:          0  MISS:          0
cpu0_ITLB TOTAL     ACCESS:      41491  HIT:      41491  MISS:          0
cpu0_ITLB LOAD      ACCESS:      41491  HIT:      41491  MISS:          0
cpu0_ITLB RFO       ACCESS:          0  HIT:          0  MISS:          0
cpu0_ITLB PREFETCH  ACCESS:          0  HIT:          0  MISS:          0
cpu0_ITLB WRITEBACK ACCESS:          0  HIT:          0  MISS:          0
cpu0_STLB TOTAL     ACCESS:       4464  HIT:          0  MISS:       4464
cpu0_STLB LOAD      ACCESS:        185  HIT:          0  MISS:        185
cpu0_STLB RFO       ACCESS:       4279  HIT:          0  MISS:       4279
cpu0_STLB PREFETCH  ACCESS:          0  HIT:          0  MISS:          0
cpu0_STLB WRITEBACK ACCESS:          0  HIT:          0  MISS:          0
cpu0_L1D TOTAL     ACCESS:    1974012  HIT:    1688297  MISS:     285715
cpu0_L1D LOAD      ACCESS:     826693  HIT:     540979  MISS:     285714
cpu0_L1D RFO       ACCESS:    1142855  HIT:    1142855  MISS:          0
cpu0_L1D PREFETCH  ACCESS:          0  HIT:          0  MISS:          0
cpu0_L1D WRITEBACK ACCESS:          0  HIT:          0  MISS:          0
cpu0_L2C TOTAL     ACCESS:     571428  HIT:     285713  MISS:     285715
cpu0_L2C LOAD      ACCESS:     285714  HIT:          0  MISS:     285714
cpu0_L2C RFO       ACCESS:          0  HIT:          0  MISS:          0
cpu0_L2C PREFETCH  ACCESS:          0  HIT:          0  MISS:          0
cpu0_L2C WRITEBACK ACCESS:     285713  HIT:     285713  MISS:          0
LLC TOTAL     ACCESS:     571427  HIT:     241101  MISS:     330326
LLC LOAD      ACCESS:     285714  HIT:          0  MISS:     285714
LLC RFO       ACCESS:          0  HIT:          0  MISS:          0
LLC PREFETCH  ACCESS:          0  HIT:          0  MISS:          0
LLC WRITEBACK ACCESS:     285712  HIT:     241101  MISS:      44611
Heartbeat CPU 0 instructions: 60000004 cycles: 39919991 heartbeat IPC: 0.395847 cumulative IPC: 0.407524 (Simulation time: 1 hr 1 min 40 sec) 

Region of Interest Statistics
cpu0_DTLB TOTAL     ACCESS:    1720178  HIT:    1714780  MISS:       5398
cpu0_DTLB LOAD      ACCESS:    1129572  HIT:    1129039  MISS:        533
cpu0_DTLB RFO       ACCESS:     590606  HIT:     585741  MISS:       4865
cpu0_DTLB PREFETCH  ACCESS:          0  HIT:          0  MISS:          0
cpu0_DTLB WRITEBACK ACCESS:          0  HIT:          0  MISS:          0
cpu0_ITLB TOTAL     ACCESS:     122414  HIT:     122414  MISS:          0
cpu0_ITLB LOAD      ACCESS:     122414  HIT:     122414  MISS:          0
cpu0_ITLB RFO       ACCESS:          0  HIT:          0  MISS:          0
cpu0_ITLB PREFETCH  ACCESS:          0  HIT:          0  MISS:          0
cpu0_ITLB WRITEBACK ACCESS:          0  HIT:          0  MISS:          0
cpu0_L1I TOTAL     ACCESS:          9  HIT:          3  MISS:          6
cpu0_L1I LOAD      ACCESS:          9  HIT:          3  MISS:          6
cpu0_L1I RFO       ACCESS:          0  HIT:          0  MISS:          0
cpu0_L1I PREFETCH  ACCESS:          0  HIT:          0  MISS:          0
cpu0_L1I WRITEBACK ACCESS:          0  HIT:          0  MISS:          0
cpu0_STLB TOTAL     ACCESS:       5398  HIT:          0  MISS:       5398
cpu0_STLB LOAD      ACCESS:        533  HIT:          0  MISS:        533
cpu0_STLB RFO       ACCESS:       4865  HIT:          0  MISS:       4865
cpu0_STLB PREFETCH  ACCESS:          0  HIT:          0  MISS:          0
cpu0_STLB WRITEBACK ACCESS:          0  HIT:          0  MISS:          0
cpu0_L1D TOTAL     ACCESS:    2327762  HIT:    1982370  MISS:     345392
cpu0_L1D LOAD      ACCESS:    1016395  HIT:     671011  MISS:     345384
cpu0_L1D RFO       ACCESS:    1305969  HIT:    1305965  MISS:          4
cpu0_L1D PREFETCH  ACCESS:          0  HIT:          0  MISS:          0
cpu0_L1D WRITEBACK ACCESS:          0  HIT:          0  MISS:          0
cpu0_L2C TOTAL     ACCESS:     675505  HIT:     330106  MISS:     345399
cpu0_L2C LOAD      ACCESS:     345391  HIT:          0  MISS:     345391
cpu0_L2C RFO       ACCESS:          4  HIT:          0  MISS:          4
cpu0_L2C PREFETCH  ACCESS:          0  HIT:          0  MISS:          0
cpu0_L2C WRITEBACK ACCESS:     330106  HIT:     330106  MISS:          0
LLC TOTAL     ACCESS:     681332  HIT:     283125  MISS:     398207
LLC LOAD      ACCESS:     345391  HIT:          0  MISS:     345391
LLC RFO       ACCESS:          4  HIT:          0  MISS:          4
LLC PREFETCH  ACCESS:          0  HIT:          0  MISS:          0
LLC WRITEBACK ACCESS:     335933  HIT:     283125  MISS:      52808
Heartbeat CPU 0 instructions: 62000001 cycles: 44565947 heartbeat IPC: 0.430481 cumulative IPC: 0.411178 (Simulation time: 1 hr 4 min 12 sec) 

Region of Interest Statistics
cpu0_DTLB TOTAL     ACCESS:    2033758  HIT:    2027657  MISS:       6101
cpu0_DTLB LOAD      ACCESS:    1432844  HIT:    1431608  MISS:       1236
cpu0_DTLB RFO       ACCESS:     600914  HIT:     596049  MISS:       4865
cpu0_DTLB PREFETCH  ACCESS:          0  HIT:          0  MISS:          0
cpu0_DTLB WRITEBACK ACCESS:          0  HIT:          0  MISS:          0
cpu0_ITLB TOTAL     ACCESS:     288075  HIT:     288075  MISS:          0
cpu0_ITLB LOAD      ACCESS:     288075  HIT:     288075  MISS:          0
cpu0_ITLB RFO       ACCESS:          0  HIT:          0  MISS:          0
cpu0_ITLB PREFETCH  ACCESS:          0  HIT:          0  MISS:          0
cpu0_ITLB WRITEBACK ACCESS:          0  HIT:          0  MISS:          0
cpu0_L1I TOTAL     ACCESS:          9  HIT:          3  MISS:          6
cpu0_L1I LOAD      ACCESS:          9  HIT:          3  MISS:          6
cpu0_L1I RFO       ACCESS:          0  HIT:          0  MISS:          0
cpu0_L1I PREFETCH  ACCESS:          0  HIT:          0  MISS:          0
cpu0_L1I WRITEBACK ACCESS:          0  HIT:          0  MISS:          0
cpu0_STLB TOTAL     ACCESS:       6101  HIT:          0  MISS:       6101
cpu0_STLB LOAD      ACCESS:       1236  HIT:          0  MISS:       1236
cpu0_STLB RFO       ACCESS:       4865  HIT:          0  MISS:       4865
cpu0_STLB PREFETCH  ACCESS:          0  HIT:          0  MISS:          0
cpu0_STLB WRITEBACK ACCESS:          0  HIT:          0  MISS:          0
cpu0_L1D TOTAL     ACCESS:    2508617  HIT:    2118238  MISS:     390379
cpu0_L1D LOAD      ACCESS:    1186239  HIT:     795868  MISS:     390371
cpu0_L1D RFO       ACCESS:    1316277  HIT:    1316273  MISS:          4
cpu0_L1D PREFETCH  ACCESS:          0  HIT:          0  MISS:          0
cpu0_L1D WRITEBACK ACCESS:          0  HIT:          0  MISS:          0
cpu0_L2C TOTAL     ACCESS:     730193  HIT:     339808  MISS:     390385
cpu0_L2C LOAD      ACCESS:     390377  HIT:          0  MISS:     390377
cpu0_L2C RFO       ACCESS:          4  HIT:          0  MISS:          4
cpu0_L2C PREFETCH  ACCESS:          0  HIT:          0  MISS:          0
cpu0_L2C WRITEBACK ACCESS:     339808  HIT:     339808  MISS:          0
LLC TOTAL     ACCESS:     735954  HIT:     292598  MISS:     443356
LLC LOAD      ACCESS:     390377  HIT:          0  MISS:     390377
LLC RFO       ACCESS:          4  HIT:          0  MISS:          4
LLC PREFETCH  ACCESS:          0  HIT:          0  MISS:          0
LLC WRITEBACK ACCESS:     345569  HIT:     292598  MISS:      52971
Heartbeat CPU 0 instructions: 64000004 cycles: 48671014 heartbeat IPC: 0.487204 cumulative IPC: 0.420553 (Simulation time: 1 hr 6 min 31 sec) 

Region of Interest Statistics
cpu0_DTLB TOTAL     ACCESS:    2350023  HIT:    2343219  MISS:       6804
cpu0_DTLB LOAD      ACCESS:    1738801  HIT:    1736862  MISS:       1939
cpu0_DTLB RFO       ACCESS:     611222  HIT:     606357  MISS:       4865
cpu0_DTLB PREFETCH  ACCESS:          0  HIT:          0  MISS:          0
cpu0_DTLB WRITEBACK ACCESS:          0  HIT:          0  MISS:          0
cpu0_ITLB TOTAL     ACCESS:     446528  HIT:     446528  MISS:          0
cpu0_ITLB LOAD      ACCESS:     446528  HIT:     446528  MISS:          0
cpu0_ITLB RFO       ACCESS:          0  HIT:          0  MISS:          0
cpu0_ITLB PREFETCH  ACCESS:          0  HIT:          0  MISS:          0
cpu0_ITLB WRITEBACK ACCESS:          0  HIT:          0  MISS:          0
cpu0_L1I TOTAL     ACCESS:          9  HIT:          3  MISS:          6
cpu0_L1I LOAD      ACCESS:          9  HIT:          3  MISS:          6
cpu0_L1I RFO       ACCESS:          0  HIT:          0  MISS:          0
cpu0_L1I PREFETCH  ACCESS:          0  HIT:          0  MISS:          0
cpu0_L1I WRITEBACK ACCESS:          0  HIT:          0  MISS:          0
cpu0_STLB TOTAL     ACCESS:       6804  HIT:          0  MISS:       6804
cpu0_STLB LOAD      ACCESS:       1939  HIT:          0  MISS:       1939
cpu0_STLB RFO       ACCESS:       4865  HIT:          0  MISS:       4865
cpu0_STLB PREFETCH  ACCESS:          0  HIT:          0  MISS:          0
cpu0_STLB WRITEBACK ACCESS:          0  HIT:          0  MISS:          0
cpu0_L1D TOTAL     ACCESS:    2689284  HIT:    2253920  MISS:     435364
cpu0_L1D LOAD      ACCESS:    1355895  HIT:     920539  MISS:     435356
cpu0_L1D RFO       ACCESS:    1326585  HIT:    1326581  MISS:          4
cpu0_L1D PREFETCH  ACCESS:          0  HIT:          0  MISS:          0
cpu0_L1D WRITEBACK ACCESS:          0  HIT:          0  MISS:          0
cpu0_L2C TOTAL     ACCESS:     784881  HIT:     349510  MISS:     435371
cpu0_L2C LOAD      ACCESS:     435363  HIT:          0  MISS:     435363
cpu0_L2C RFO       ACCESS:          4  HIT:          0  MISS:          4
cpu0_L2C PREFETCH  ACCESS:          0  HIT:          0  MISS:          0
cpu0_L2C WRITEBACK ACCESS:     349510  HIT:     349510  MISS:          0
LLC TOTAL     ACCESS:     790845  HIT:     302495  MISS:     488350
LLC LOAD      ACCESS:     435363  HIT:          0  MISS:     435363
LLC RFO       ACCESS:          4  HIT:          0  MISS:          4
LLC PREFETCH  ACCESS:          0  HIT:          0  MISS:          0
LLC WRITEBACK ACCESS:     355474  HIT:     302495  MISS:      52979
Heartbeat CPU 0 instructions: 66000004 cycles: 52511524 heartbeat IPC: 0.520764 cumulative IPC: 0.430919 (Simulation time: 1 hr 9 min 1 sec) 

Region of Interest Statistics
cpu0_DTLB TOTAL     ACCESS:    2667958  HIT:    2660451  MISS:       7507
cpu0_DTLB LOAD      ACCESS:    2046428  HIT:    2043786  MISS:       2642
cpu0_DTLB RFO       ACCESS:     621530  HIT:     616665  MISS:       4865
cpu0_DTLB PREFETCH  ACCESS:          0  HIT:          0  MISS:          0
cpu0_DTLB WRITEBACK ACCESS:          0  HIT:          0  MISS:          0
cpu0_ITLB TOTAL     ACCESS:     600685  HIT:     600685  MISS:          0
cpu0_ITLB LOAD      ACCESS:     600685  HIT:     600685  MISS:          0
cpu0_ITLB RFO       ACCESS:          0  HIT:          0  MISS:          0
cpu0_ITLB PREFETCH  ACCESS:          0  HIT:          0  MISS:          0
cpu0_ITLB WRITEBACK ACCESS:          0  HIT:          0  MISS:          0
cpu0_L1I TOTAL     ACCESS:          9  HIT:          3  MISS:          6
cpu0_L1I LOAD      ACCESS:          9  HIT:          3  MISS:          6
cpu0_L1I RFO       ACCESS:          0  HIT:          0  MISS:          0
cpu0_L1I PREFETCH  ACCESS:          0  HIT:          0  MISS:          0
cpu0_L1I WRITEBACK ACCESS:          0  HIT:          0  MISS:          0
cpu0_STLB TOTAL     ACCESS:       7507  HIT:          0  MISS:       7507
cpu0_STLB LOAD      ACCESS:       2642  HIT:          0  MISS:       2642
cpu0_STLB RFO       ACCESS:       4865  HIT:          0  MISS:       4865
cpu0_STLB PREFETCH  ACCESS:          0  HIT:          0  MISS:          0
cpu0_STLB WRITEBACK ACCESS:          0  HIT:          0  MISS:          0
cpu0_L1D TOTAL     ACCESS:    2869675  HIT:    2389325  MISS:     480350
cpu0_L1D LOAD      ACCESS:    1525275  HIT:    1044933  MISS:     480342
cpu0_L1D RFO       ACCESS:    1336893  HIT:    1336889  MISS:          4
cpu0_L1D PREFETCH  ACCESS:          0  HIT:          0  MISS:          0
cpu0_L1D WRITEBACK ACCESS:          0  HIT:          0  MISS:          0
cpu0_L2C TOTAL     ACCESS:     839569  HIT:     359212  MISS:     480357
cpu0_L2C LOAD      ACCESS:     480349  HIT:          0  MISS:     480349
cpu0_L2C RFO       ACCESS:          4  HIT:          0  MISS:          4
cpu0_L2C PREFETCH  ACCESS:          0  HIT:          0  MISS:          0
cpu0_L2C WRITEBACK ACCESS:     359212  HIT:     359212  MISS:          0
LLC TOTAL     ACCESS:     845432  HIT:     312093  MISS:     533339
LLC LOAD      ACCESS:     480349  HIT:          0  MISS:     480349
LLC RFO       ACCESS:          4  HIT:          0  MISS:          4
LLC PREFETCH  ACCESS:          0  HIT:          0  MISS:          0
LLC WRITEBACK ACCESS:     365075  HIT:     312093  MISS:      52982
Heartbeat CPU 0 instructions: 68000004 cycles: 56284155 heartbeat IPC: 0.530134 cumulative IPC: 0.44007 (Simulation time: 1 hr 11 min 56 sec) 

Region of Interest Statistics
cpu0_DTLB TOTAL     ACCESS:    2986198  HIT:    2977988  MISS:       8210
cpu0_DTLB LOAD      ACCESS:    2354360  HIT:    2351015  MISS:       3345
cpu0_DTLB RFO       ACCESS:     631838  HIT:     626973  MISS:       4865
cpu0_DTLB PREFETCH  ACCESS:          0  HIT:          0  MISS:          0
cpu0_DTLB WRITEBACK ACCESS:          0  HIT:          0  MISS:          0
cpu0_ITLB TOTAL     ACCESS:     753371  HIT:     753371  MISS:          0
cpu0_ITLB LOAD      ACCESS:     753371  HIT:     753371  MISS:          0
cpu0_ITLB RFO       ACCESS:          0  HIT:          0  MISS:          0
cpu0_ITLB PREFETCH  ACCESS:          0  HIT:          0  MISS:          0
cpu0_ITLB WRITEBACK ACCESS:          0  HIT:          0  MISS:          0
cpu0_L1I TOTAL     ACCESS:          9  HIT:          3  MISS:          6
cpu0_L1I LOAD      ACCESS:          9  HIT:          3  MISS:          6
cpu0_L1I RFO       ACCESS:          0  HIT:          0  MISS:          0
cpu0_L1I PREFETCH  ACCESS:          0  HIT:          0  MISS:          0
cpu0_L1I WRITEBACK ACCESS:          0  HIT:          0  MISS:          0
cpu0_STLB TOTAL     ACCESS:       8210  HIT:          0  MISS:       8210
cpu0_STLB LOAD      ACCESS:       3345  HIT:          0  MISS:       3345
cpu0_STLB RFO       ACCESS:       4865  HIT:          0  MISS:       4865
cpu0_STLB PREFETCH  ACCESS:          0  HIT:          0  MISS:          0
cpu0_STLB WRITEBACK ACCESS:          0  HIT:          0  MISS:          0
cpu0_L1D TOTAL     ACCESS:    3049974  HIT:    2524637  MISS:     525337
cpu0_L1D LOAD      ACCESS:    1694563  HIT:    1169234  MISS:     525329
cpu0_L1D RFO       ACCESS:    1347201  HIT:    1347197  MISS:          4
cpu0_L1D PREFETCH  ACCESS:          0  HIT:          0  MISS:          0
cpu0_L1D WRITEBACK ACCESS:          0  HIT:          0  MISS:          0
cpu0_L2C TOTAL     ACCESS:     894257  HIT:     368914  MISS:     525343
cpu0_L2C LOAD      ACCESS:     525335  HIT:          0  MISS:     525335
cpu0_L2C RFO       ACCESS:          4  HIT:          0  MISS:          4
cpu0_L2C PREFETCH  ACCESS:          0  HIT:          0  MISS:          0
cpu0_L2C WRITEBACK ACCESS:     368914  HIT:     368914  MISS:          0
LLC TOTAL     ACCESS:     900111  HIT:     321780  MISS:     578331
LLC LOAD      ACCESS:     525335  HIT:          0  MISS:     525335
LLC RFO       ACCESS:          4  HIT:          0  MISS:          4
LLC PREFETCH  ACCESS:          0  HIT:          0  MISS:          0
LLC WRITEBACK ACCESS:     374768  HIT:     321780  MISS:      52988
Heartbeat CPU 0 instructions: 70000001 cycles: 60097877 heartbeat IPC: 0.524421 cumulative IPC: 0.447264 (Simulation time: 1 hr 14 min 31 sec) 

Region of Interest Statistics
cpu0_DTLB TOTAL     ACCESS:    3304254  HIT:    3295341  MISS:       8913
cpu0_DTLB LOAD      ACCESS:    2662108  HIT:    2658060  MISS:       4048
cpu0_DTLB RFO       ACCESS:     642146  HIT:     637281  MISS:       4865
cpu0_DTLB PREFETCH  ACCESS:          0  HIT:          0  MISS:          0
cpu0_DTLB WRITEBACK ACCESS:          0  HIT:          0  MISS:          0
cpu0_ITLB TOTAL     ACCESS:     907505  HIT:     907505  MISS:          0
cpu0_ITLB LOAD      ACCESS:     907505  HIT:     907505  MISS:          0
cpu0_ITLB RFO       ACCESS:          0  HIT:          0  MISS:          0
cpu0_ITLB PREFETCH  ACCESS:          0  HIT:          0  MISS:          0
cpu0_ITLB WRITEBACK ACCESS:          0  HIT:          0  MISS:          0
cpu0_L1I TOTAL     ACCESS:          9  HIT:          3  MISS:          6
cpu0_L1I LOAD      ACCESS:          9  HIT:          3  MISS:          6
cpu0_L1I RFO       ACCESS:          0  HIT:          0  MISS:          0
cpu0_L1I PREFETCH  ACCESS:          0  HIT:          0  MISS:          0
cpu0_L1I WRITEBACK ACCESS:          0  HIT:          0  MISS:          0
cpu0_STLB TOTAL     ACCESS:       8913  HIT:          0  MISS:       8913
cpu0_STLB LOAD      ACCESS:       4048  HIT:          0  MISS:       4048
cpu0_STLB RFO       ACCESS:       4865  HIT:          0  MISS:       4865
cpu0_STLB PREFETCH  ACCESS:          0  HIT:          0  MISS:          0
cpu0_STLB WRITEBACK ACCESS:          0  HIT:          0  MISS:          0
cpu0_L1D TOTAL     ACCESS:    3230355  HIT:    2660031  MISS:     570324
cpu0_L1D LOAD      ACCESS:    1863933  HIT:    1293618  MISS:     570315
cpu0_L1D RFO       ACCESS:    1357509  HIT:    1357505  MISS:          4
cpu0_L1D PREFETCH  ACCESS:          0  HIT:          0  MISS:          0
cpu0_L1D WRITEBACK ACCESS:          0  HIT:          0  MISS:          0
cpu0_L2C TOTAL     ACCESS:     948946  HIT:     378616  MISS:     570330
cpu0_L2C LOAD      ACCESS:     570321  HIT:          0  MISS:     570321
cpu0_L2C RFO       ACCESS:          4  HIT:          0  MISS:          4
cpu0_L2C PREFETCH  ACCESS:          0  HIT:          0  MISS:          0
cpu0_L2C WRITEBACK ACCESS:     378616  HIT:     378616  MISS:          0
LLC TOTAL     ACCESS:     955006  HIT:     331688  MISS:     623318
LLC LOAD      ACCESS:     570321  HIT:          0  MISS:     570321
LLC RFO       ACCESS:          4  HIT:          0  MISS:          4
LLC PREFETCH  ACCESS:          0  HIT:          0  MISS:          0
LLC WRITEBACK ACCESS:     384676  HIT:     331688  MISS:      52988
Heartbeat CPU 0 instructions: 72000004 cycles: 63943017 heartbeat IPC: 0.520138 cumulative IPC: 0.453034 (Simulation time: 1 hr 16 min 41 sec) 

Region of Interest Statistics
cpu0_DTLB TOTAL     ACCESS:    3622106  HIT:    3612490  MISS:       9616
cpu0_DTLB LOAD      ACCESS:    2969652  HIT:    2964901  MISS:       4751
cpu0_DTLB RFO       ACCESS:     652454  HIT:     647589  MISS:       4865
cpu0_DTLB PREFETCH  ACCESS:          0  HIT:          0  MISS:          0
cpu0_DTLB WRITEBACK ACCESS:          0  HIT:          0  MISS:          0
cpu0_ITLB TOTAL     ACCESS:    1061769  HIT:    1061769  MISS:          0
cpu0_ITLB LOAD      ACCESS:    1061769  HIT:    1061769  MISS:          0
cpu0_ITLB RFO       ACCESS:          0  HIT:          0  MISS:          0
cpu0_ITLB PREFETCH  ACCESS:          0  HIT:          0  MISS:          0
cpu0_ITLB WRITEBACK ACCESS:          0  HIT:          0  MISS:          0
cpu0_L1I TOTAL     ACCESS:          9  HIT:          3  MISS:          6
cpu0_L1I LOAD      ACCESS:          9  HIT:          3  MISS:          6
cpu0_L1I RFO       ACCESS:          0  HIT:          0  MISS:          0
cpu0_L1I PREFETCH  ACCESS:          0  HIT:          0  MISS:          0
cpu0_L1I WRITEBACK ACCESS:          0  HIT:          0  MISS:          0
cpu0_STLB TOTAL     ACCESS:       9616  HIT:          0  MISS:       9616
cpu0_STLB LOAD      ACCESS:       4751  HIT:          0  MISS:       4751
cpu0_STLB RFO       ACCESS:       4865  HIT:          0  MISS:       4865
cpu0_STLB PREFETCH  ACCESS:          0  HIT:          0  MISS:          0
cpu0_STLB WRITEBACK ACCESS:          0  HIT:          0  MISS:          0
cpu0_L1D TOTAL     ACCESS:    3410760  HIT:    2795450  MISS:     615310
cpu0_L1D LOAD      ACCESS:    2033327  HIT:    1418026  MISS:     615301
cpu0_L1D RFO       ACCESS:    1367817  HIT:    1367813  MISS:          4
cpu0_L1D PREFETCH  ACCESS:          0  HIT:          0  MISS:          0
cpu0_L1D WRITEBACK ACCESS:          0  HIT:          0  MISS:          0
cpu0_L2C TOTAL     ACCESS:    1003634  HIT:     388318  MISS:     615316
cpu0_L2C LOAD      ACCESS:     615307  HIT:          0  MISS:     615307
cpu0_L2C RFO       ACCESS:          4  HIT:          0  MISS:          4
cpu0_L2C PREFETCH  ACCESS:          0  HIT:          0  MISS:          0
cpu0_L2C WRITEBACK ACCESS:     388318  HIT:     388318  MISS:          0
LLC TOTAL     ACCESS:    1009347  HIT:     341043  MISS:     668304
LLC LOAD      ACCESS:     615307  HIT:          0  MISS:     615307
LLC RFO       ACCESS:          4  HIT:          0  MISS:          4
LLC PREFETCH  ACCESS:          0  HIT:          0  MISS:          0
LLC WRITEBACK ACCESS:     394031  HIT:     341043  MISS:      52988
Heartbeat CPU 0 instructions: 74000004 cycles: 67776279 heartbeat IPC: 0.521749 cumulative IPC: 0.458061 (Simulation time: 1 hr 18 min 47 sec) 

Region of Interest Statistics
cpu0_DTLB TOTAL     ACCESS:    3940147  HIT:    3929828  MISS:      10319
cpu0_DTLB LOAD      ACCESS:    3277385  HIT:    3271931  MISS:       5454
cpu0_DTLB RFO       ACCESS:     662762  HIT:     657897  MISS:       4865
cpu0_DTLB PREFETCH  ACCESS:          0  HIT:          0  MISS:          0
cpu0_DTLB WRITEBACK ACCESS:          0  HIT:          0  MISS:          0
cpu0_ITLB TOTAL     ACCESS:    1216279  HIT:    1216279  MISS:          0
cpu0_ITLB LOAD      ACCESS:    1216279  HIT:    1216279  MISS:          0
cpu0_ITLB RFO       ACCESS:          0  HIT:          0  MISS:          0
cpu0_ITLB PREFETCH  ACCESS:          0  HIT:          0  MISS:          0
cpu0_ITLB WRITEBACK ACCESS:          0  HIT:          0  MISS:          0
cpu0_L1I TOTAL     ACCESS:          9  HIT:          3  MISS:          6
cpu0_L1I LOAD      ACCESS:          9  HIT:          3  MISS:          6
cpu0_L1I RFO       ACCESS:          0  HIT:          0  MISS:          0
cpu0_L1I PREFETCH  ACCESS:          0  HIT:          0  MISS:          0
cpu0_L1I WRITEBACK ACCESS:          0  HIT:          0  MISS:          0
cpu0_STLB TOTAL     ACCESS:      10319  HIT:          0  MISS:      10319
cpu0_STLB LOAD      ACCESS:       5454  HIT:          0  MISS:       5454
cpu0_STLB RFO       ACCESS:       4865  HIT:          0  MISS:       4865
cpu0_STLB PREFETCH  ACCESS:          0  HIT:          0  MISS:          0
cpu0_STLB WRITEBACK ACCESS:          0  HIT:          0  MISS:          0
cpu0_L1D TOTAL     ACCESS:    3591251  HIT:    2930956  MISS:     660295
cpu0_L1D LOAD      ACCESS:    2202807  HIT:    1542521  MISS:     660286
cpu0_L1D RFO       ACCESS:    1378125  HIT:    1378121  MISS:          4
cpu0_L1D PREFETCH  ACCESS:          0  HIT:          0  MISS:          0
cpu0_L1D WRITEBACK ACCESS:          0  HIT:          0  MISS:          0
cpu0_L2C TOTAL     ACCESS:    1058321  HIT:     398020  MISS:     660301
cpu0_L2C LOAD      ACCESS:     660292  HIT:          0  MISS:     660292
cpu0_L2C RFO       ACCESS:          4  HIT:          0  MISS:          4
cpu0_L2C PREFETCH  ACCESS:          0  HIT:          0  MISS:          0
cpu0_L2C WRITEBACK ACCESS:     398020  HIT:     398020  MISS:          0
LLC TOTAL     ACCESS:    1064036  HIT:     350747  MISS:     713289
LLC LOAD      ACCESS:     660292  HIT:          0  MISS:     660292
LLC RFO       ACCESS:          4  HIT:          0  MISS:          4
LLC PREFETCH  ACCESS:          0  HIT:          0  MISS:          0
LLC WRITEBACK ACCESS:     403735  HIT:     350747  MISS:      52988
Heartbeat CPU 0 instructions: 76000004 cycles: 71592351 heartbeat IPC: 0.524099 cumulative IPC: 0.462545 (Simulation time: 1 hr 20 min 53 sec) 

Region of Interest Statistics
cpu0_DTLB TOTAL     ACCESS:    4258200  HIT:    4247178  MISS:      11022
cpu0_DTLB LOAD      ACCESS:    3585130  HIT:    3578973  MISS:       6157
cpu0_DTLB RFO       ACCESS:     673070  HIT:     668205  MISS:       4865
cpu0_DTLB PREFETCH  ACCESS:          0  HIT:          0  MISS:          0
cpu0_DTLB WRITEBACK ACCESS:          0  HIT:          0  MISS:          0
cpu0_ITLB TOTAL     ACCESS:    1370341  HIT:    1370341  MISS:          0
cpu0_ITLB LOAD      ACCESS:    1370341  HIT:    1370341  MISS:          0
cpu0_ITLB RFO       ACCESS:          0  HIT:          0  MISS:          0
cpu0_ITLB PREFETCH  ACCESS:          0  HIT:          0  MISS:          0
cpu0_ITLB WRITEBACK ACCESS:          0  HIT:          0  MISS:          0
cpu0_L1I TOTAL     ACCESS:          9  HIT:          3  MISS:          6
cpu0_L1I LOAD      ACCESS:          9  HIT:          3  MISS:          6
cpu0_L1I RFO       ACCESS:          0  HIT:          0  MISS:          0
cpu0_L1I PREFETCH  ACCESS:          0  HIT:          0  MISS:          0
cpu0_L1I WRITEBACK ACCESS:          0  HIT:          0  MISS:          0
cpu0_STLB TOTAL     ACCESS:      11022  HIT:          0  MISS:      11022
cpu0_STLB LOAD      ACCESS:       6157  HIT:          0  MISS:       6157
cpu0_STLB RFO       ACCESS:       4865  HIT:          0  MISS:       4865
cpu0_STLB PREFETCH  ACCESS:          0  HIT:          0  MISS:          0
cpu0_STLB WRITEBACK ACCESS:          0  HIT:          0  MISS:          0
cpu0_L1D TOTAL     ACCESS:    3771678  HIT:    3066397  MISS:     705281
cpu0_L1D LOAD      ACCESS:    2372223  HIT:    1666951  MISS:     705272
cpu0_L1D RFO       ACCESS:    1388433  HIT:    1388429  MISS:          4
cpu0_L1D PREFETCH  ACCESS:          0  HIT:          0  MISS:          0
cpu0_L1D WRITEBACK ACCESS:          0  HIT:          0  MISS:          0
cpu0_L2C TOTAL     ACCESS:    1113009  HIT:     407722  MISS:     705287
cpu0_L2C LOAD      ACCESS:     705278  HIT:          0  MISS:     705278
cpu0_L2C RFO       ACCESS:          4  HIT:          0  MISS:          4
cpu0_L2C PREFETCH  ACCESS:          0  HIT:          0  MISS:          0
cpu0_L2C WRITEBACK ACCESS:     407722  HIT:     407722  MISS:          0
LLC TOTAL     ACCESS:    1118860  HIT:     360585  MISS:     758275
LLC LOAD      ACCESS:     705278  HIT:          0  MISS:     705278
LLC RFO       ACCESS:          4  HIT:          0  MISS:          4
LLC PREFETCH  ACCESS:          0  HIT:          0  MISS:          0
LLC WRITEBACK ACCESS:     413573  HIT:     360585  MISS:      52988
Heartbeat CPU 0 instructions: 78000000 cycles: 75428495 heartbeat IPC: 0.521356 cumulative IPC: 0.466302 (Simulation time: 1 hr 23 min 2 sec) 

Region of Interest Statistics
cpu0_DTLB TOTAL     ACCESS:    4576340  HIT:    4564616  MISS:      11724
cpu0_DTLB LOAD      ACCESS:    3892930  HIT:    3886071  MISS:       6859
cpu0_DTLB RFO       ACCESS:     683410  HIT:     678545  MISS:       4865
cpu0_DTLB PREFETCH  ACCESS:          0  HIT:          0  MISS:          0
cpu0_DTLB WRITEBACK ACCESS:          0  HIT:          0  MISS:          0
cpu0_ITLB TOTAL     ACCESS:    1524477  HIT:    1524477  MISS:          0
cpu0_ITLB LOAD      ACCESS:    1524477  HIT:    1524477  MISS:          0
cpu0_ITLB RFO       ACCESS:          0  HIT:          0  MISS:          0
cpu0_ITLB PREFETCH  ACCESS:          0  HIT:          0  MISS:          0
cpu0_ITLB WRITEBACK ACCESS:          0  HIT:          0  MISS:          0
cpu0_L1I TOTAL     ACCESS:          9  HIT:          3  MISS:          6
cpu0_L1I LOAD      ACCESS:          9  HIT:          3  MISS:          6
cpu0_L1I RFO       ACCESS:          0  HIT:          0  MISS:          0
cpu0_L1I PREFETCH  ACCESS:          0  HIT:          0  MISS:          0
cpu0_L1I WRITEBACK ACCESS:          0  HIT:          0  MISS:          0
cpu0_STLB TOTAL     ACCESS:      11724  HIT:          0  MISS:      11724
cpu0_STLB LOAD      ACCESS:       6859  HIT:          0  MISS:       6859
cpu0_STLB RFO       ACCESS:       4865  HIT:          0  MISS:       4865
cpu0_STLB PREFETCH  ACCESS:          0  HIT:          0  MISS:          0
cpu0_STLB WRITEBACK ACCESS:          0  HIT:          0  MISS:          0
cpu0_L1D TOTAL     ACCESS:    3952223  HIT:    3201958  MISS:     750265
cpu0_L1D LOAD      ACCESS:    2541726  HIT:    1791470  MISS:     750256
cpu0_L1D RFO       ACCESS:    1398773  HIT:    1398769  MISS:          4
cpu0_L1D PREFETCH  ACCESS:          0  HIT:          0  MISS:          0
cpu0_L1D WRITEBACK ACCESS:          0  HIT:          0  MISS:          0
cpu0_L2C TOTAL     ACCESS:    1167695  HIT:     417424  MISS:     750271
cpu0_L2C LOAD      ACCESS:     750262  HIT:          0  MISS:     750262
cpu0_L2C RFO       ACCESS:          4  HIT:          0  MISS:          4
cpu0_L2C PREFETCH  ACCESS:          0  HIT:          0  MISS:          0
cpu0_L2C WRITEBACK ACCESS:     417424  HIT:     417424  MISS:          0
LLC TOTAL     ACCESS:    1173383  HIT:     370124  MISS:     803259
LLC LOAD      ACCESS:     750262  HIT:          0  MISS:     750262
LLC RFO       ACCESS:          4  HIT:          0  MISS:          4
LLC PREFETCH  ACCESS:          0  HIT:          0  MISS:          0
LLC WRITEBACK ACCESS:     423112  HIT:     370124  MISS:      52988
Heartbeat CPU 0 instructions: 80000000 cycles: 79288006 heartbeat IPC: 0.5182 cumulative IPC: 0.469436 (Simulation time: 1 hr 25 min 9 sec) 

Region of Interest Statistics
cpu0_DTLB TOTAL     ACCESS:    4894043  HIT:    4881616  MISS:      12427
cpu0_DTLB LOAD      ACCESS:    4200293  HIT:    4192731  MISS:       7562
cpu0_DTLB RFO       ACCESS:     693750  HIT:     688885  MISS:       4865
cpu0_DTLB PREFETCH  ACCESS:          0  HIT:          0  MISS:          0
cpu0_DTLB WRITEBACK ACCESS:          0  HIT:          0  MISS:          0
cpu0_ITLB TOTAL     ACCESS:    1679561  HIT:    1679561  MISS:          0
cpu0_ITLB LOAD      ACCESS:    1679561  HIT:    1679561  MISS:          0
cpu0_ITLB RFO       ACCESS:          0  HIT:          0  MISS:          0
cpu0_ITLB PREFETCH  ACCESS:          0  HIT:          0  MISS:          0
cpu0_ITLB WRITEBACK ACCESS:          0  HIT:          0  MISS:          0
cpu0_L1I TOTAL     ACCESS:          9  HIT:          3  MISS:          6
cpu0_L1I LOAD      ACCESS:          9  HIT:          3  MISS:          6
cpu0_L1I RFO       ACCESS:          0  HIT:          0  MISS:          0
cpu0_L1I PREFETCH  ACCESS:          0  HIT:          0  MISS:          0
cpu0_L1I WRITEBACK ACCESS:          0  HIT:          0  MISS:          0
cpu0_STLB TOTAL     ACCESS:      12427  HIT:          0  MISS:      12427
cpu0_STLB LOAD      ACCESS:       7562  HIT:          0  MISS:       7562
cpu0_STLB RFO       ACCESS:       4865  HIT:          0  MISS:       4865
cpu0_STLB PREFETCH  ACCESS:          0  HIT:          0  MISS:          0
cpu0_STLB WRITEBACK ACCESS:          0  HIT:          0  MISS:          0
cpu0_L1D TOTAL     ACCESS:    4132618  HIT:    3337368  MISS:     795250
cpu0_L1D LOAD      ACCESS:    2711078  HIT:    1915837  MISS:     795241
cpu0_L1D RFO       ACCESS:    1409113  HIT:    1409109  MISS:          4
cpu0_L1D PREFETCH  ACCESS:          0  HIT:          0  MISS:          0
cpu0_L1D WRITEBACK ACCESS:          0  HIT:          0  MISS:          0
cpu0_L2C TOTAL     ACCESS:    1222382  HIT:     427126  MISS:     795256
cpu0_L2C LOAD      ACCESS:     795247  HIT:          0  MISS:     795247
cpu0_L2C RFO       ACCESS:          4  HIT:          0  MISS:          4
cpu0_L2C PREFETCH  ACCESS:          0  HIT:          0  MISS:          0
cpu0_L2C WRITEBACK ACCESS:     427126  HIT:     427126  MISS:          0
LLC TOTAL     ACCESS:    1228119  HIT:     379875  MISS:     848244
LLC LOAD      ACCESS:     795247  HIT:          0  MISS:     795247
LLC RFO       ACCESS:          4  HIT:          0  MISS:          4
LLC PREFETCH  ACCESS:          0  HIT:          0  MISS:          0
LLC WRITEBACK ACCESS:     432863  HIT:     379875  MISS:      52988
Heartbeat CPU 0 instructions: 82000000 cycles: 83115759 heartbeat IPC: 0.5225 cumulative IPC: 0.472435 (Simulation time: 1 hr 27 min 19 sec) 

Region of Interest Statistics
cpu0_DTLB TOTAL     ACCESS:    5212219  HIT:    5199089  MISS:      13130
cpu0_DTLB LOAD      ACCESS:    4508129  HIT:    4499864  MISS:       8265
cpu0_DTLB RFO       ACCESS:     704090  HIT:     699225  MISS:       4865
cpu0_DTLB PREFETCH  ACCESS:          0  HIT:          0  MISS:          0
cpu0_DTLB WRITEBACK ACCESS:          0  HIT:          0  MISS:          0
cpu0_ITLB TOTAL     ACCESS:    1833820  HIT:    1833820  MISS:          0
cpu0_ITLB LOAD      ACCESS:    1833820  HIT:    1833820  MISS:          0
cpu0_ITLB RFO       ACCESS:          0  HIT:          0  MISS:          0
cpu0_ITLB PREFETCH  ACCESS:          0  HIT:          0  MISS:          0
cpu0_ITLB WRITEBACK ACCESS:          0  HIT:          0  MISS:          0
cpu0_L1I TOTAL     ACCESS:          9  HIT:          3  MISS:          6
cpu0_L1I LOAD      ACCESS:          9  HIT:          3  MISS:          6
cpu0_L1I RFO       ACCESS:          0  HIT:          0  MISS:          0
cpu0_L1I PREFETCH  ACCESS:          0  HIT:          0  MISS:          0
cpu0_L1I WRITEBACK ACCESS:          0  HIT:          0  MISS:          0
cpu0_STLB TOTAL     ACCESS:      13130  HIT:          0  MISS:      13130
cpu0_STLB LOAD      ACCESS:       8265  HIT:          0  MISS:       8265
cpu0_STLB RFO       ACCESS:       4865  HIT:          0  MISS:       4865
cpu0_STLB PREFETCH  ACCESS:          0  HIT:          0  MISS:          0
cpu0_STLB WRITEBACK ACCESS:          0  HIT:          0  MISS:          0
cpu0_L1D TOTAL     ACCESS:    4313074  HIT:    3472838  MISS:     840236
cpu0_L1D LOAD      ACCESS:    2880491  HIT:    2040265  MISS:     840226
cpu0_L1D RFO       ACCESS:    1419453  HIT:    1419449  MISS:          4
cpu0_L1D PREFETCH  ACCESS:          0  HIT:          0  MISS:          0
cpu0_L1D WRITEBACK ACCESS:          0  HIT:          0  MISS:          0
cpu0_L2C TOTAL     ACCESS:    1277070  HIT:     436828  MISS:     840242
cpu0_L2C LOAD      ACCESS:     840232  HIT:          0  MISS:     840232
cpu0_L2C RFO       ACCESS:          4  HIT:          0  MISS:          4
cpu0_L2C PREFETCH  ACCESS:          0  HIT:          0  MISS:          0
cpu0_L2C WRITEBACK ACCESS:     436828  HIT:     436828  MISS:          0
LLC TOTAL     ACCESS:    1282593  HIT:     389363  MISS:     893230
LLC LOAD      ACCESS:     840232  HIT:          0  MISS:     840232
LLC RFO       ACCESS:          4  HIT:          0  MISS:          4
LLC PREFETCH  ACCESS:          0  HIT:          0  MISS:          0
LLC WRITEBACK ACCESS:     442351  HIT:     389363  MISS:      52988
Heartbeat CPU 0 instructions: 84000004 cycles: 86202707 heartbeat IPC: 0.64789 cumulative IPC: 0.480082 (Simulation time: 1 hr 29 min 28 sec) 

Region of Interest Statistics
cpu0_DTLB TOTAL     ACCESS:    5522574  HIT:    5508736  MISS:      13838
cpu0_DTLB LOAD      ACCESS:    4812147  HIT:    4803174  MISS:       8973
cpu0_DTLB RFO       ACCESS:     710427  HIT:     705562  MISS:       4865
cpu0_DTLB PREFETCH  ACCESS:          0  HIT:          0  MISS:          0
cpu0_DTLB WRITEBACK ACCESS:          0  HIT:          0  MISS:          0
cpu0_ITLB TOTAL     ACCESS:    1986829  HIT:    1986829  MISS:          0
cpu0_ITLB LOAD      ACCESS:    1986829  HIT:    1986829  MISS:          0
cpu0_ITLB RFO       ACCESS:          0  HIT:          0  MISS:          0
cpu0_ITLB PREFETCH  ACCESS:          0  HIT:          0  MISS:          0
cpu0_ITLB WRITEBACK ACCESS:          0  HIT:          0  MISS:          0
cpu0_L1I TOTAL     ACCESS:         10  HIT:          4  MISS:          6
cpu0_L1I LOAD      ACCESS:         10  HIT:          4  MISS:          6
cpu0_L1I RFO       ACCESS:          0  HIT:          0  MISS:          0
cpu0_L1I PREFETCH  ACCESS:          0  HIT:          0  MISS:          0
cpu0_L1I WRITEBACK ACCESS:          0  HIT:          0  MISS:          0
cpu0_STLB TOTAL     ACCESS:      13838  HIT:          0  MISS:      13838
cpu0_STLB LOAD      ACCESS:       8973  HIT:          0  MISS:       8973
cpu0_STLB RFO       ACCESS:       4865  HIT:          0  MISS:       4865
cpu0_STLB PREFETCH  ACCESS:          0  HIT:          0  MISS:          0
cpu0_STLB WRITEBACK ACCESS:          0  HIT:          0  MISS:          0
cpu0_L1D TOTAL     ACCESS:    4481749  HIT:    3596339  MISS:     885410
cpu0_L1D LOAD      ACCESS:    3042115  HIT:    2156721  MISS:     885394
cpu0_L1D RFO       ACCESS:    1425796  HIT:    1425788  MISS:          8
cpu0_L1D PREFETCH  ACCESS:          0  HIT:          0  MISS:          0
cpu0_L1D WRITEBACK ACCESS:          0  HIT:          0  MISS:          0
cpu0_L2C TOTAL     ACCESS:    1328433  HIT:     443017  MISS:     885416
cpu0_L2C LOAD      ACCESS:     885400  HIT:          0  MISS:     885400
cpu0_L2C RFO       ACCESS:          8  HIT:          0  MISS:          8
cpu0_L2C PREFETCH  ACCESS:          0  HIT:          0  MISS:          0
cpu0_L2C WRITEBACK ACCESS:     443017  HIT:     443017  MISS:          0
LLC TOTAL     ACCESS:    1334952  HIT:     396548  MISS:     938404
LLC LOAD      ACCESS:     885400  HIT:          0  MISS:     885400
LLC RFO       ACCESS:          8  HIT:          0  MISS:          8
LLC PREFETCH  ACCESS:          0  HIT:          0  MISS:          0
LLC WRITEBACK ACCESS:     449536  HIT:     396548  MISS:      52988
Heartbeat CPU 0 instructions: 86000001 cycles: 89014909 heartbeat IPC: 0.711185 cumulative IPC: 0.488909 (Simulation time: 1 hr 31 min 33 sec) 

Region of Interest Statistics
cpu0_DTLB TOTAL     ACCESS:    5831054  HIT:    5816510  MISS:      14544
cpu0_DTLB LOAD      ACCESS:    5115466  HIT:    5105787  MISS:       9679
cpu0_DTLB RFO       ACCESS:     715588  HIT:     710723  MISS:       4865
cpu0_DTLB PREFETCH  ACCESS:          0  HIT:          0  MISS:          0
cpu0_DTLB WRITEBACK ACCESS:          0  HIT:          0  MISS:          0
cpu0_ITLB TOTAL     ACCESS:    2138700  HIT:    2138700  MISS:          0
cpu0_ITLB LOAD      ACCESS:    2138700  HIT:    2138700  MISS:          0
cpu0_ITLB RFO       ACCESS:          0  HIT:          0  MISS:          0
cpu0_ITLB PREFETCH  ACCESS:          0  HIT:          0  MISS:          0
cpu0_ITLB WRITEBACK ACCESS:          0  HIT:          0  MISS:          0
cpu0_L1I TOTAL     ACCESS:         10  HIT:          4  MISS:          6
cpu0_L1I LOAD      ACCESS:         10  HIT:          4  MISS:          6
cpu0_L1I RFO       ACCESS:          0  HIT:          0  MISS:          0
cpu0_L1I PREFETCH  ACCESS:          0  HIT:          0  MISS:          0
cpu0_L1I WRITEBACK ACCESS:          0  HIT:          0  MISS:          0
cpu0_STLB TOTAL     ACCESS:      14544  HIT:          0  MISS:      14544
cpu0_STLB LOAD      ACCESS:       9679  HIT:          0  MISS:       9679
cpu0_STLB RFO       ACCESS:       4865  HIT:          0  MISS:       4865
cpu0_STLB PREFETCH  ACCESS:          0  HIT:          0  MISS:          0
cpu0_STLB WRITEBACK ACCESS:          0  HIT:          0  MISS:          0
cpu0_L1D TOTAL     ACCESS:    4646869  HIT:    3716238  MISS:     930631
cpu0_L1D LOAD      ACCESS:    3201368  HIT:    2270753  MISS:     930615
cpu0_L1D RFO       ACCESS:    1430957  HIT:    1430949  MISS:          8
cpu0_L1D PREFETCH  ACCESS:          0  HIT:          0  MISS:          0
cpu0_L1D WRITEBACK ACCESS:          0  HIT:          0  MISS:          0
cpu0_L2C TOTAL     ACCESS:    1378802  HIT:     448165  MISS:     930637
cpu0_L2C LOAD      ACCESS:     930621  HIT:          0  MISS:     930621
cpu0_L2C RFO       ACCESS:          8  HIT:          0  MISS:          8
cpu0_L2C PREFETCH  ACCESS:          0  HIT:          0  MISS:          0
cpu0_L2C WRITEBACK ACCESS:     448165  HIT:     448165  MISS:          0
LLC TOTAL     ACCESS:    1385379  HIT:     401754  MISS:     983625
LLC LOAD      ACCESS:     930621  HIT:          0  MISS:     930621
LLC RFO       ACCESS:          8  HIT:          0  MISS:          8
LLC PREFETCH  ACCESS:          0  HIT:          0  MISS:          0
LLC WRITEBACK ACCESS:     454742  HIT:     401754  MISS:      52988
Heartbeat CPU 0 instructions: 88000002 cycles: 91790134 heartbeat IPC: 0.720663 cumulative IPC: 0.497326 (Simulation time: 1 hr 33 min 34 sec) 

Region of Interest Statistics
cpu0_DTLB TOTAL     ACCESS:    6140017  HIT:    6124766  MISS:      15251
cpu0_DTLB LOAD      ACCESS:    5419244  HIT:    5408858  MISS:      10386
cpu0_DTLB RFO       ACCESS:     720773  HIT:     715908  MISS:       4865
cpu0_DTLB PREFETCH  ACCESS:          0  HIT:          0  MISS:          0
cpu0_DTLB WRITEBACK ACCESS:          0  HIT:          0  MISS:          0
cpu0_ITLB TOTAL     ACCESS:    2290248  HIT:    2290248  MISS:          0
cpu0_ITLB LOAD      ACCESS:    2290248  HIT:    2290248  MISS:          0
cpu0_ITLB RFO       ACCESS:          0  HIT:          0  MISS:          0
cpu0_ITLB PREFETCH  ACCESS:          0  HIT:          0  MISS:          0
cpu0_ITLB WRITEBACK ACCESS:          0  HIT:          0  MISS:          0
cpu0_L1I TOTAL     ACCESS:         10  HIT:          4  MISS:          6
cpu0_L1I LOAD      ACCESS:         10  HIT:          4  MISS:          6
cpu0_L1I RFO       ACCESS:          0  HIT:          0  MISS:          0
cpu0_L1I PREFETCH  ACCESS:          0  HIT:          0  MISS:          0
cpu0_L1I WRITEBACK ACCESS:          0  HIT:          0  MISS:          0
cpu0_STLB TOTAL     ACCESS:      15251  HIT:          0  MISS:      15251
cpu0_STLB LOAD      ACCESS:      10386  HIT:          0  MISS:      10386
cpu0_STLB RFO       ACCESS:       4865  HIT:          0  MISS:       4865
cpu0_STLB PREFETCH  ACCESS:          0  HIT:          0  MISS:          0
cpu0_STLB WRITEBACK ACCESS:          0  HIT:          0  MISS:          0
cpu0_L1D TOTAL     ACCESS:    4811999  HIT:    3836149  MISS:     975850
cpu0_L1D LOAD      ACCESS:    3360606  HIT:    2384772  MISS:     975834
cpu0_L1D RFO       ACCESS:    1436142  HIT:    1436134  MISS:          8
cpu0_L1D PREFETCH  ACCESS:          0  HIT:          0  MISS:          0
cpu0_L1D WRITEBACK ACCESS:          0  HIT:          0  MISS:          0
cpu0_L2C TOTAL     ACCESS:    1429169  HIT:     453313  MISS:     975856
cpu0_L2C LOAD      ACCESS:     975840  HIT:          0  MISS:     975840
cpu0_L2C RFO       ACCESS:          8  HIT:          0  MISS:          8
cpu0_L2C PREFETCH  ACCESS:          0  HIT:          0  MISS:          0
cpu0_L2C WRITEBACK ACCESS:     453313  HIT:     453313  MISS:          0
LLC TOTAL     ACCESS:    1435782  HIT:     406937  MISS:    1028845
LLC LOAD      ACCESS:     975841  HIT:          0  MISS:     975841
LLC RFO       ACCESS:          8  HIT:          0  MISS:          8
LLC PREFETCH  ACCESS:          0  HIT:          0  MISS:          0
LLC WRITEBACK ACCESS:     459925  HIT:     406937  MISS:      52988
Heartbeat CPU 0 instructions: 90000003 cycles: 94495349 heartbeat IPC: 0.739313 cumulative IPC: 0.505601 (Simulation time: 1 hr 35 min 35 sec) 

Region of Interest Statistics
cpu0_DTLB TOTAL     ACCESS:    6449391  HIT:    6433433  MISS:      15958
cpu0_DTLB LOAD      ACCESS:    5723433  HIT:    5712340  MISS:      11093
cpu0_DTLB RFO       ACCESS:     725958  HIT:     721093  MISS:       4865
cpu0_DTLB PREFETCH  ACCESS:          0  HIT:          0  MISS:          0
cpu0_DTLB WRITEBACK ACCESS:          0  HIT:          0  MISS:          0
cpu0_ITLB TOTAL     ACCESS:    2440336  HIT:    2440336  MISS:          0
cpu0_ITLB LOAD      ACCESS:    2440336  HIT:    2440336  MISS:          0
cpu0_ITLB RFO       ACCESS:          0  HIT:          0  MISS:          0
cpu0_ITLB PREFETCH  ACCESS:          0  HIT:          0  MISS:          0
cpu0_ITLB WRITEBACK ACCESS:          0  HIT:          0  MISS:          0
cpu0_L1I TOTAL     ACCESS:         10  HIT:          4  MISS:          6
cpu0_L1I LOAD      ACCESS:         10  HIT:          4  MISS:          6
cpu0_L1I RFO       ACCESS:          0  HIT:          0  MISS:          0
cpu0_L1I PREFETCH  ACCESS:          0  HIT:          0  MISS:          0
cpu0_L1I WRITEBACK ACCESS:          0  HIT:          0  MISS:          0
cpu0_STLB TOTAL     ACCESS:      15958  HIT:          0  MISS:      15958
cpu0_STLB LOAD      ACCESS:      11093  HIT:          0  MISS:      11093
cpu0_STLB RFO       ACCESS:       4865  HIT:          0  MISS:       4865
cpu0_STLB PREFETCH  ACCESS:          0  HIT:          0  MISS:          0
cpu0_STLB WRITEBACK ACCESS:          0  HIT:          0  MISS:          0
cpu0_L1D TOTAL     ACCESS:    4977153  HIT:    3956085  MISS:    1021068
cpu0_L1D LOAD      ACCESS:    3519868  HIT:    2498816  MISS:    1021052
cpu0_L1D RFO       ACCESS:    1441327  HIT:    1441319  MISS:          8
cpu0_L1D PREFETCH  ACCESS:          0  HIT:          0  MISS:          0
cpu0_L1D WRITEBACK ACCESS:          0  HIT:          0  MISS:          0
cpu0_L2C TOTAL     ACCESS:    1479535  HIT:     458461  MISS:    1021074
cpu0_L2C LOAD      ACCESS:    1021058  HIT:          0  MISS:    1021058
cpu0_L2C RFO       ACCESS:          8  HIT:          0  MISS:          8
cpu0_L2C PREFETCH  ACCESS:          0  HIT:          0  MISS:          0
cpu0_L2C WRITEBACK ACCESS:     458461  HIT:     458461  MISS:          0
LLC TOTAL     ACCESS:    1486081  HIT:     412019  MISS:    1074062
LLC LOAD      ACCESS:    1021058  HIT:          0  MISS:    1021058
LLC RFO       ACCESS:          8  HIT:          0  MISS:          8
LLC PREFETCH  ACCESS:          0  HIT:          0  MISS:          0
LLC WRITEBACK ACCESS:     465007  HIT:     412019  MISS:      52988
Heartbeat CPU 0 instructions: 92000002 cycles: 97111792 heartbeat IPC: 0.764396 cumulative IPC: 0.513886 (Simulation time: 1 hr 37 min 30 sec) 

Region of Interest Statistics
cpu0_DTLB TOTAL     ACCESS:    6759643  HIT:    6742979  MISS:      16664
cpu0_DTLB LOAD      ACCESS:    6028500  HIT:    6016701  MISS:      11799
cpu0_DTLB RFO       ACCESS:     731143  HIT:     726278  MISS:       4865
cpu0_DTLB PREFETCH  ACCESS:          0  HIT:          0  MISS:          0
cpu0_DTLB WRITEBACK ACCESS:          0  HIT:          0  MISS:          0
cpu0_ITLB TOTAL     ACCESS:    2588567  HIT:    2588567  MISS:          0
cpu0_ITLB LOAD      ACCESS:    2588567  HIT:    2588567  MISS:          0
cpu0_ITLB RFO       ACCESS:          0  HIT:          0  MISS:          0
cpu0_ITLB PREFETCH  ACCESS:          0  HIT:          0  MISS:          0
cpu0_ITLB WRITEBACK ACCESS:          0  HIT:          0  MISS:          0
cpu0_L1I TOTAL     ACCESS:         10  HIT:          4  MISS:          6
cpu0_L1I LOAD      ACCESS:         10  HIT:          4  MISS:          6
cpu0_L1I RFO       ACCESS:          0  HIT:          0  MISS:          0
cpu0_L1I PREFETCH  ACCESS:          0  HIT:          0  MISS:          0
cpu0_L1I WRITEBACK ACCESS:          0  HIT:          0  MISS:          0
cpu0_STLB TOTAL     ACCESS:      16664  HIT:          0  MISS:      16664
cpu0_STLB LOAD      ACCESS:      11799  HIT:          0  MISS:      11799
cpu0_STLB RFO       ACCESS:       4865  HIT:          0  MISS:       4865
cpu0_STLB PREFETCH  ACCESS:          0  HIT:          0  MISS:          0
cpu0_STLB WRITEBACK ACCESS:          0  HIT:          0  MISS:          0
cpu0_L1D TOTAL     ACCESS:    5142152  HIT:    4075865  MISS:    1066287
cpu0_L1D LOAD      ACCESS:    3678976  HIT:    2612705  MISS:    1066271
cpu0_L1D RFO       ACCESS:    1446512  HIT:    1446504  MISS:          8
cpu0_L1D PREFETCH  ACCESS:          0  HIT:          0  MISS:          0
cpu0_L1D WRITEBACK ACCESS:          0  HIT:          0  MISS:          0
cpu0_L2C TOTAL     ACCESS:    1529902  HIT:     463609  MISS:    1066293
cpu0_L2C LOAD      ACCESS:    1066277  HIT:          0  MISS:    1066277
cpu0_L2C RFO       ACCESS:          8  HIT:          0  MISS:          8
cpu0_L2C PREFETCH  ACCESS:          0  HIT:          0  MISS:          0
cpu0_L2C WRITEBACK ACCESS:     463609  HIT:     463609  MISS:          0
LLC TOTAL     ACCESS:    1536518  HIT:     417237  MISS:    1119281
LLC LOAD      ACCESS:    1066277  HIT:          0  MISS:    1066277
LLC RFO       ACCESS:          8  HIT:          0  MISS:          8
LLC PREFETCH  ACCESS:          0  HIT:          0  MISS:          0
LLC WRITEBACK ACCESS:     470225  HIT:     417237  MISS:      52988
Heartbeat CPU 0 instructions: 94000001 cycles: 99713448 heartbeat IPC: 0.768741 cumulative IPC: 0.521748 (Simulation time: 1 hr 39 min 26 sec) 

Region of Interest Statistics
cpu0_DTLB TOTAL     ACCESS:    7069869  HIT:    7052498  MISS:      17371
cpu0_DTLB LOAD      ACCESS:    6333540  HIT:    6321034  MISS:      12506
cpu0_DTLB RFO       ACCESS:     736329  HIT:     731464  MISS:       4865
cpu0_DTLB PREFETCH  ACCESS:          0  HIT:          0  MISS:          0
cpu0_DTLB WRITEBACK ACCESS:          0  HIT:          0  MISS:          0
cpu0_ITLB TOTAL     ACCESS:    2736357  HIT:    2736357  MISS:          0
cpu0_ITLB LOAD      ACCESS:    2736357  HIT:    2736357  MISS:          0
cpu0_ITLB RFO       ACCESS:          0  HIT:          0  MISS:          0
cpu0_ITLB PREFETCH  ACCESS:          0  HIT:          0  MISS:          0
cpu0_ITLB WRITEBACK ACCESS:          0  HIT:          0  MISS:          0
cpu0_L1I TOTAL     ACCESS:         10  HIT:          4  MISS:          6
cpu0_L1I LOAD      ACCESS:         10  HIT:          4  MISS:          6
cpu0_L1I RFO       ACCESS:          0  HIT:          0  MISS:          0
cpu0_L1I PREFETCH  ACCESS:          0  HIT:          0  MISS:          0
cpu0_L1I WRITEBACK ACCESS:          0  HIT:          0  MISS:          0
cpu0_STLB TOTAL     ACCESS:      17371  HIT:          0  MISS:      17371
cpu0_STLB LOAD      ACCESS:      12506  HIT:          0  MISS:      12506
cpu0_STLB RFO       ACCESS:       4865  HIT:          0  MISS:       4865
cpu0_STLB PREFETCH  ACCESS:          0  HIT:          0  MISS:          0
cpu0_STLB WRITEBACK ACCESS:          0  HIT:          0  MISS:          0
cpu0_L1D TOTAL     ACCESS:    5307105  HIT:    4195599  MISS:    1111506
cpu0_L1D LOAD      ACCESS:    3838036  HIT:    2726547  MISS:    1111489
cpu0_L1D RFO       ACCESS:    1451698  HIT:    1451690  MISS:          8
cpu0_L1D PREFETCH  ACCESS:          0  HIT:          0  MISS:          0
cpu0_L1D WRITEBACK ACCESS:          0  HIT:          0  MISS:          0
cpu0_L2C TOTAL     ACCESS:    1580269  HIT:     468757  MISS:    1111512
cpu0_L2C LOAD      ACCESS:    1111495  HIT:          0  MISS:    1111495
cpu0_L2C RFO       ACCESS:          8  HIT:          0  MISS:          8
cpu0_L2C PREFETCH  ACCESS:          0  HIT:          0  MISS:          0
cpu0_L2C WRITEBACK ACCESS:     468757  HIT:     468757  MISS:          0
LLC TOTAL     ACCESS:    1586850  HIT:     422350  MISS:    1164500
LLC LOAD      ACCESS:    1111495  HIT:          0  MISS:    1111495
LLC RFO       ACCESS:          8  HIT:          0  MISS:          8
LLC PREFETCH  ACCESS:          0  HIT:          0  MISS:          0
LLC WRITEBACK ACCESS:     475338  HIT:     422350  MISS:      52988
Heartbeat CPU 0 instructions: 96000001 cycles: 102323657 heartbeat IPC: 0.766222 cumulative IPC: 0.529088 (Simulation time: 1 hr 41 min 25 sec) 

Region of Interest Statistics
cpu0_DTLB TOTAL     ACCESS:    7379787  HIT:    7361710  MISS:      18077
cpu0_DTLB LOAD      ACCESS:    6638273  HIT:    6625061  MISS:      13212
cpu0_DTLB RFO       ACCESS:     741514  HIT:     736649  MISS:       4865
cpu0_DTLB PREFETCH  ACCESS:          0  HIT:          0  MISS:          0
cpu0_DTLB WRITEBACK ACCESS:          0  HIT:          0  MISS:          0
cpu0_ITLB TOTAL     ACCESS:    2884475  HIT:    2884475  MISS:          0
cpu0_ITLB LOAD      ACCESS:    2884475  HIT:    2884475  MISS:          0
cpu0_ITLB RFO       ACCESS:          0  HIT:          0  MISS:          0
cpu0_ITLB PREFETCH  ACCESS:          0  HIT:          0  MISS:          0
cpu0_ITLB WRITEBACK ACCESS:          0  HIT:          0  MISS:          0
cpu0_L1I TOTAL     ACCESS:         10  HIT:          4  MISS:          6
cpu0_L1I LOAD      ACCESS:         10  HIT:          4  MISS:          6
cpu0_L1I RFO       ACCESS:          0  HIT:          0  MISS:          0
cpu0_L1I PREFETCH  ACCESS:          0  HIT:          0  MISS:          0
cpu0_L1I WRITEBACK ACCESS:          0  HIT:          0  MISS:          0
cpu0_STLB TOTAL     ACCESS:      18077  HIT:          0  MISS:      18077
cpu0_STLB LOAD      ACCESS:      13212  HIT:          0  MISS:      13212
cpu0_STLB RFO       ACCESS:       4865  HIT:          0  MISS:       4865
cpu0_STLB PREFETCH  ACCESS:          0  HIT:          0  MISS:          0
cpu0_STLB WRITEBACK ACCESS:          0  HIT:          0  MISS:          0
cpu0_L1D TOTAL     ACCESS:    5471986  HIT:    4315261  MISS:    1156725
cpu0_L1D LOAD      ACCESS:    3997026  HIT:    2840318  MISS:    1156708
cpu0_L1D RFO       ACCESS:    1456883  HIT:    1456875  MISS:          8
cpu0_L1D PREFETCH  ACCESS:          0  HIT:          0  MISS:          0
cpu0_L1D WRITEBACK ACCESS:          0  HIT:          0  MISS:          0
cpu0_L2C TOTAL     ACCESS:    1630659  HIT:     473928  MISS:    1156731
cpu0_L2C LOAD      ACCESS:    1156714  HIT:          0  MISS:    1156714
cpu0_L2C RFO       ACCESS:          8  HIT:          0  MISS:          8
cpu0_L2C PREFETCH  ACCESS:          0  HIT:          0  MISS:          0
cpu0_L2C WRITEBACK ACCESS:     473928  HIT:     473928  MISS:          0
LLC TOTAL     ACCESS:    1637283  HIT:     427564  MISS:    1209719
LLC LOAD      ACCESS:    1156714  HIT:          0  MISS:    1156714
LLC RFO       ACCESS:          8  HIT:          0  MISS:          8
LLC PREFETCH  ACCESS:          0  HIT:          0  MISS:          0
LLC WRITEBACK ACCESS:     480552  HIT:     427564  MISS:      52988
Heartbeat CPU 0 instructions: 98000001 cycles: 104946571 heartbeat IPC: 0.762511 cumulative IPC: 0.535923 (Simulation time: 1 hr 43 min 18 sec) 

Region of Interest Statistics
cpu0_DTLB TOTAL     ACCESS:    7689885  HIT:    7671101  MISS:      18784
cpu0_DTLB LOAD      ACCESS:    6943188  HIT:    6929269  MISS:      13919
cpu0_DTLB RFO       ACCESS:     746697  HIT:     741832  MISS:       4865
cpu0_DTLB PREFETCH  ACCESS:          0  HIT:          0  MISS:          0
cpu0_DTLB WRITEBACK ACCESS:          0  HIT:          0  MISS:          0
cpu0_ITLB TOTAL     ACCESS:    3032423  HIT:    3032423  MISS:          0
cpu0_ITLB LOAD      ACCESS:    3032423  HIT:    3032423  MISS:          0
cpu0_ITLB RFO       ACCESS:          0  HIT:          0  MISS:          0
cpu0_ITLB PREFETCH  ACCESS:          0  HIT:          0  MISS:          0
cpu0_ITLB WRITEBACK ACCESS:          0  HIT:          0  MISS:          0
cpu0_L1I TOTAL     ACCESS:         10  HIT:          4  MISS:          6
cpu0_L1I LOAD      ACCESS:         10  HIT:          4  MISS:          6
cpu0_L1I RFO       ACCESS:          0  HIT:          0  MISS:          0
cpu0_L1I PREFETCH  ACCESS:          0  HIT:          0  MISS:          0
cpu0_L1I WRITEBACK ACCESS:          0  HIT:          0  MISS:          0
cpu0_STLB TOTAL     ACCESS:      18784  HIT:          0  MISS:      18784
cpu0_STLB LOAD      ACCESS:      13919  HIT:          0  MISS:      13919
cpu0_STLB RFO       ACCESS:       4865  HIT:          0  MISS:       4865
cpu0_STLB PREFETCH  ACCESS:          0  HIT:          0  MISS:          0
cpu0_STLB WRITEBACK ACCESS:          0  HIT:          0  MISS:          0
cpu0_L1D TOTAL     ACCESS:    5636891  HIT:    4434947  MISS:    1201944
cpu0_L1D LOAD      ACCESS:    4156041  HIT:    2954114  MISS:    1201927
cpu0_L1D RFO       ACCESS:    1462066  HIT:    1462058  MISS:          8
cpu0_L1D PREFETCH  ACCESS:          0  HIT:          0  MISS:          0
cpu0_L1D WRITEBACK ACCESS:          0  HIT:          0  MISS:          0
cpu0_L2C TOTAL     ACCESS:    1681064  HIT:     479114  MISS:    1201950
cpu0_L2C LOAD      ACCESS:    1201933  HIT:          0  MISS:    1201933
cpu0_L2C RFO       ACCESS:          8  HIT:          0  MISS:          8
cpu0_L2C PREFETCH  ACCESS:          0  HIT:          0  MISS:          0
cpu0_L2C WRITEBACK ACCESS:     479114  HIT:     479114  MISS:          0
LLC TOTAL     ACCESS:    1687665  HIT:     432727  MISS:    1254938
LLC LOAD      ACCESS:    1201933  HIT:          0  MISS:    1201933
LLC RFO       ACCESS:          8  HIT:          0  MISS:          8
LLC PREFETCH  ACCESS:          0  HIT:          0  MISS:          0
LLC WRITEBACK ACCESS:     485715  HIT:     432727  MISS:      52988
Heartbeat CPU 0 instructions: 100000001 cycles: 107545199 heartbeat IPC: 0.769637 cumulative IPC: 0.542513 (Simulation time: 1 hr 45 min 17 sec) 

Region of Interest Statistics
cpu0_DTLB TOTAL     ACCESS:    8000135  HIT:    7980645  MISS:      19490
cpu0_DTLB LOAD      ACCESS:    7248290  HIT:    7233665  MISS:      14625
cpu0_DTLB RFO       ACCESS:     751845  HIT:     746980  MISS:       4865
cpu0_DTLB PREFETCH  ACCESS:          0  HIT:          0  MISS:          0
cpu0_DTLB WRITEBACK ACCESS:          0  HIT:          0  MISS:          0
cpu0_ITLB TOTAL     ACCESS:    3179200  HIT:    3179200  MISS:          0
cpu0_ITLB LOAD      ACCESS:    3179200  HIT:    3179200  MISS:          0
cpu0_ITLB RFO       ACCESS:          0  HIT:          0  MISS:          0
cpu0_ITLB PREFETCH  ACCESS:          0  HIT:          0  MISS:          0
cpu0_ITLB WRITEBACK ACCESS:          0  HIT:          0  MISS:          0
cpu0_L1I TOTAL     ACCESS:         10  HIT:          4  MISS:          6
cpu0_L1I LOAD      ACCESS:         10  HIT:          4  MISS:          6
cpu0_L1I RFO       ACCESS:          0  HIT:          0  MISS:          0
cpu0_L1I PREFETCH  ACCESS:          0  HIT:          0  MISS:          0
cpu0_L1I WRITEBACK ACCESS:          0  HIT:          0  MISS:          0
cpu0_STLB TOTAL     ACCESS:      19490  HIT:          0  MISS:      19490
cpu0_STLB LOAD      ACCESS:      14625  HIT:          0  MISS:      14625
cpu0_STLB RFO       ACCESS:       4865  HIT:          0  MISS:       4865
cpu0_STLB PREFETCH  ACCESS:          0  HIT:          0  MISS:          0
cpu0_STLB WRITEBACK ACCESS:          0  HIT:          0  MISS:          0
cpu0_L1D TOTAL     ACCESS:    5801814  HIT:    4554649  MISS:    1247165
cpu0_L1D LOAD      ACCESS:    4315110  HIT:    3067962  MISS:    1247148
cpu0_L1D RFO       ACCESS:    1467214  HIT:    1467206  MISS:          8
cpu0_L1D PREFETCH  ACCESS:          0  HIT:          0  MISS:          0
cpu0_L1D WRITEBACK ACCESS:          0  HIT:          0  MISS:          0
cpu0_L2C TOTAL     ACCESS:    1731470  HIT:     484299  MISS:    1247171
cpu0_L2C LOAD      ACCESS:    1247154  HIT:          0  MISS:    1247154
cpu0_L2C RFO       ACCESS:          8  HIT:          0  MISS:          8
cpu0_L2C PREFETCH  ACCESS:          0  HIT:          0  MISS:          0
cpu0_L2C WRITEBACK ACCESS:     484299  HIT:     484299  MISS:          0
LLC TOTAL     ACCESS:    1738039  HIT:     437880  MISS:    1300159
LLC LOAD      ACCESS:    1247154  HIT:          0  MISS:    1247154
LLC RFO       ACCESS:          8  HIT:          0  MISS:          8
LLC PREFETCH  ACCESS:          0  HIT:          0  MISS:          0
LLC WRITEBACK ACCESS:     490868  HIT:     437880  MISS:      52988
Heartbeat CPU 0 instructions: 102000002 cycles: 110142262 heartbeat IPC: 0.770101 cumulative IPC: 0.548751 (Simulation time: 1 hr 47 min 13 sec) 

Region of Interest Statistics
cpu0_DTLB TOTAL     ACCESS:    8310352  HIT:    8290155  MISS:      20197
cpu0_DTLB LOAD      ACCESS:    7553359  HIT:    7538027  MISS:      15332
cpu0_DTLB RFO       ACCESS:     756993  HIT:     752128  MISS:       4865
cpu0_DTLB PREFETCH  ACCESS:          0  HIT:          0  MISS:          0
cpu0_DTLB WRITEBACK ACCESS:          0  HIT:          0  MISS:          0
cpu0_ITLB TOTAL     ACCESS:    3326259  HIT:    3326259  MISS:          0
cpu0_ITLB LOAD      ACCESS:    3326259  HIT:    3326259  MISS:          0
cpu0_ITLB RFO       ACCESS:          0  HIT:          0  MISS:          0
cpu0_ITLB PREFETCH  ACCESS:          0  HIT:          0  MISS:          0
cpu0_ITLB WRITEBACK ACCESS:          0  HIT:          0  MISS:          0
cpu0_L1I TOTAL     ACCESS:         10  HIT:          4  MISS:          6
cpu0_L1I LOAD      ACCESS:         10  HIT:          4  MISS:          6
cpu0_L1I RFO       ACCESS:          0  HIT:          0  MISS:          0
cpu0_L1I PREFETCH  ACCESS:          0  HIT:          0  MISS:          0
cpu0_L1I WRITEBACK ACCESS:          0  HIT:          0  MISS:          0
cpu0_STLB TOTAL     ACCESS:      20197  HIT:          0  MISS:      20197
cpu0_STLB LOAD      ACCESS:      15332  HIT:          0  MISS:      15332
cpu0_STLB RFO       ACCESS:       4865  HIT:          0  MISS:       4865
cpu0_STLB PREFETCH  ACCESS:          0  HIT:          0  MISS:          0
cpu0_STLB WRITEBACK ACCESS:          0  HIT:          0  MISS:          0
cpu0_L1D TOTAL     ACCESS:    5966608  HIT:    4674223  MISS:    1292385
cpu0_L1D LOAD      ACCESS:    4474049  HIT:    3181681  MISS:    1292368
cpu0_L1D RFO       ACCESS:    1472362  HIT:    1472354  MISS:          8
cpu0_L1D PREFETCH  ACCESS:          0  HIT:          0  MISS:          0
cpu0_L1D WRITEBACK ACCESS:          0  HIT:          0  MISS:          0
cpu0_L2C TOTAL     ACCESS:    1781876  HIT:     489485  MISS:    1292391
cpu0_L2C LOAD      ACCESS:    1292374  HIT:          0  MISS:    1292374
cpu0_L2C RFO       ACCESS:          8  HIT:          0  MISS:          8
cpu0_L2C PREFETCH  ACCESS:          0  HIT:          0  MISS:          0
cpu0_L2C WRITEBACK ACCESS:     489485  HIT:     489485  MISS:          0
LLC TOTAL     ACCESS:    1788377  HIT:     442998  MISS:    1345379
LLC LOAD      ACCESS:    1292374  HIT:          0  MISS:    1292374
LLC RFO       ACCESS:          8  HIT:          0  MISS:          8
LLC PREFETCH  ACCESS:          0  HIT:          0  MISS:          0
LLC WRITEBACK ACCESS:     495986  HIT:     442998  MISS:      52988
Heartbeat CPU 0 instructions: 104000002 cycles: 112759010 heartbeat IPC: 0.764307 cumulative IPC: 0.554543 (Simulation time: 1 hr 49 min 7 sec) 

Region of Interest Statistics
cpu0_DTLB TOTAL     ACCESS:    8620536  HIT:    8599633  MISS:      20903
cpu0_DTLB LOAD      ACCESS:    7858395  HIT:    7842357  MISS:      16038
cpu0_DTLB RFO       ACCESS:     762141  HIT:     757276  MISS:       4865
cpu0_DTLB PREFETCH  ACCESS:          0  HIT:          0  MISS:          0
cpu0_DTLB WRITEBACK ACCESS:          0  HIT:          0  MISS:          0
cpu0_ITLB TOTAL     ACCESS:    3473737  HIT:    3473737  MISS:          0
cpu0_ITLB LOAD      ACCESS:    3473737  HIT:    3473737  MISS:          0
cpu0_ITLB RFO       ACCESS:          0  HIT:          0  MISS:          0
cpu0_ITLB PREFETCH  ACCESS:          0  HIT:          0  MISS:          0
cpu0_ITLB WRITEBACK ACCESS:          0  HIT:          0  MISS:          0
cpu0_L1I TOTAL     ACCESS:         10  HIT:          4  MISS:          6
cpu0_L1I LOAD      ACCESS:         10  HIT:          4  MISS:          6
cpu0_L1I RFO       ACCESS:          0  HIT:          0  MISS:          0
cpu0_L1I PREFETCH  ACCESS:          0  HIT:          0  MISS:          0
cpu0_L1I WRITEBACK ACCESS:          0  HIT:          0  MISS:          0
cpu0_STLB TOTAL     ACCESS:      20903  HIT:          0  MISS:      20903
cpu0_STLB LOAD      ACCESS:      16038  HIT:          0  MISS:      16038
cpu0_STLB RFO       ACCESS:       4865  HIT:          0  MISS:       4865
cpu0_STLB PREFETCH  ACCESS:          0  HIT:          0  MISS:          0
cpu0_STLB WRITEBACK ACCESS:          0  HIT:          0  MISS:          0
cpu0_L1D TOTAL     ACCESS:    6131538  HIT:    4793932  MISS:    1337606
cpu0_L1D LOAD      ACCESS:    4633125  HIT:    3295536  MISS:    1337589
cpu0_L1D RFO       ACCESS:    1477510  HIT:    1477502  MISS:          8
cpu0_L1D PREFETCH  ACCESS:          0  HIT:          0  MISS:          0
cpu0_L1D WRITEBACK ACCESS:          0  HIT:          0  MISS:          0
cpu0_L2C TOTAL     ACCESS:    1832282  HIT:     494670  MISS:    1337612
cpu0_L2C LOAD      ACCESS:    1337595  HIT:          0  MISS:    1337595
cpu0_L2C RFO       ACCESS:          8  HIT:          0  MISS:          8
cpu0_L2C PREFETCH  ACCESS:          0  HIT:          0  MISS:          0
cpu0_L2C WRITEBACK ACCESS:     494670  HIT:     494670  MISS:          0
LLC TOTAL     ACCESS:    1838832  HIT:     448232  MISS:    1390600
LLC LOAD      ACCESS:    1337595  HIT:          0  MISS:    1337595
LLC RFO       ACCESS:          8  HIT:          0  MISS:          8
LLC PREFETCH  ACCESS:          0  HIT:          0  MISS:          0
LLC WRITEBACK ACCESS:     501220  HIT:     448232  MISS:      52988
Heartbeat CPU 0 instructions: 106000003 cycles: 115548650 heartbeat IPC: 0.716939 cumulative IPC: 0.559066 (Simulation time: 1 hr 51 min 2 sec) 

Region of Interest Statistics
cpu0_DTLB TOTAL     ACCESS:    8932489  HIT:    8910878  MISS:      21611
cpu0_DTLB LOAD      ACCESS:    8164247  HIT:    8147501  MISS:      16746
cpu0_DTLB RFO       ACCESS:     768242  HIT:     763377  MISS:       4865
cpu0_DTLB PREFETCH  ACCESS:          0  HIT:          0  MISS:          0
cpu0_DTLB WRITEBACK ACCESS:          0  HIT:          0  MISS:          0
cpu0_ITLB TOTAL     ACCESS:    3621216  HIT:    3621216  MISS:          0
cpu0_ITLB LOAD      ACCESS:    3621216  HIT:    3621216  MISS:          0
cpu0_ITLB RFO       ACCESS:          0  HIT:          0  MISS:          0
cpu0_ITLB PREFETCH  ACCESS:          0  HIT:          0  MISS:          0
cpu0_ITLB WRITEBACK ACCESS:          0  HIT:          0  MISS:          0
cpu0_L1I TOTAL     ACCESS:         11  HIT:          4  MISS:          7
cpu0_L1I LOAD      ACCESS:         11  HIT:          4  MISS:          7
cpu0_L1I RFO       ACCESS:          0  HIT:          0  MISS:          0
cpu0_L1I PREFETCH  ACCESS:          0  HIT:          0  MISS:          0
cpu0_L1I WRITEBACK ACCESS:          0  HIT:          0  MISS:          0
cpu0_STLB TOTAL     ACCESS:      21611  HIT:          0  MISS:      21611
cpu0_STLB LOAD      ACCESS:      16746  HIT:          0  MISS:      16746
cpu0_STLB RFO       ACCESS:       4865  HIT:          0  MISS:       4865
cpu0_STLB PREFETCH  ACCESS:          0  HIT:          0  MISS:          0
cpu0_STLB WRITEBACK ACCESS:          0  HIT:          0  MISS:          0
cpu0_L1D TOTAL     ACCESS:    6299289  HIT:    4916496  MISS:    1382793
cpu0_L1D LOAD      ACCESS:    4794061  HIT:    3411292  MISS:    1382769
cpu0_L1D RFO       ACCESS:    1483617  HIT:    1483605  MISS:         12
cpu0_L1D PREFETCH  ACCESS:          0  HIT:          0  MISS:          0
cpu0_L1D WRITEBACK ACCESS:          0  HIT:          0  MISS:          0
cpu0_L2C TOTAL     ACCESS:    1883451  HIT:     500651  MISS:    1382800
cpu0_L2C LOAD      ACCESS:    1382776  HIT:          0  MISS:    1382776
cpu0_L2C RFO       ACCESS:         12  HIT:          0  MISS:         12
cpu0_L2C PREFETCH  ACCESS:          0  HIT:          0  MISS:          0
cpu0_L2C WRITEBACK ACCESS:     500651  HIT:     500651  MISS:          0
LLC TOTAL     ACCESS:    1889190  HIT:     453402  MISS:    1435788
LLC LOAD      ACCESS:    1382776  HIT:          0  MISS:    1382776
LLC RFO       ACCESS:         12  HIT:          0  MISS:         12
LLC PREFETCH  ACCESS:          0  HIT:          0  MISS:          0
LLC WRITEBACK ACCESS:     506390  HIT:     453402  MISS:      52988
Heartbeat CPU 0 instructions: 108000002 cycles: 119117969 heartbeat IPC: 0.560331 cumulative IPC: 0.559109 (Simulation time: 1 hr 52 min 58 sec) 

Region of Interest Statistics
cpu0_DTLB TOTAL     ACCESS:    9252573  HIT:    9230259  MISS:      22314
cpu0_DTLB LOAD      ACCESS:    8473991  HIT:    8456542  MISS:      17449
cpu0_DTLB RFO       ACCESS:     778582  HIT:     773717  MISS:       4865
cpu0_DTLB PREFETCH  ACCESS:          0  HIT:          0  MISS:          0
cpu0_DTLB WRITEBACK ACCESS:          0  HIT:          0  MISS:          0
cpu0_ITLB TOTAL     ACCESS:    3770167  HIT:    3770167  MISS:          0
cpu0_ITLB LOAD      ACCESS:    3770167  HIT:    3770167  MISS:          0
cpu0_ITLB RFO       ACCESS:          0  HIT:          0  MISS:          0
cpu0_ITLB PREFETCH  ACCESS:          0  HIT:          0  MISS:          0
cpu0_ITLB WRITEBACK ACCESS:          0  HIT:          0  MISS:          0
cpu0_L1I TOTAL     ACCESS:         11  HIT:          4  MISS:          7
cpu0_L1I LOAD      ACCESS:         11  HIT:          4  MISS:          7
[...]
cpu0_L1I RFO       ACCESS:          0  HIT:          0  MISS:          0
cpu0_L1I PREFETCH  ACCESS:          0  HIT:          0  MISS:          0
cpu0_L1I WRITEBACK ACCESS:          0  HIT:          0  MISS:          0
cpu0_STLB TOTAL     ACCESS:     566727  HIT:          0  MISS:     566727
cpu0_STLB LOAD      ACCESS:     506842  HIT:          0  MISS:     506842
cpu0_STLB RFO       ACCESS:      59885  HIT:          0  MISS:      59885
cpu0_STLB PREFETCH  ACCESS:          0  HIT:          0  MISS:          0
cpu0_STLB WRITEBACK ACCESS:          0  HIT:          0  MISS:          0
cpu0_L1D TOTAL     ACCESS:  160345281  HIT:  124082741  MISS:   36262540
cpu0_L1D LOAD      ACCESS:  133331364  HIT:   97069364  MISS:   36262000
cpu0_L1D RFO       ACCESS:   26447190  HIT:   26446927  MISS:        263
cpu0_L1D PREFETCH  ACCESS:          0  HIT:          0  MISS:          0
cpu0_L1D WRITEBACK ACCESS:          0  HIT:          0  MISS:          0
cpu0_L2C TOTAL     ACCESS:   47579538  HIT:   11316965  MISS:   36262573
cpu0_L2C LOAD      ACCESS:   36262033  HIT:          0  MISS:   36262033
cpu0_L2C RFO       ACCESS:        263  HIT:          0  MISS:        263
cpu0_L2C PREFETCH  ACCESS:          0  HIT:          0  MISS:          0
cpu0_L2C WRITEBACK ACCESS:   11316965  HIT:   11316965  MISS:          0
LLC TOTAL     ACCESS:   47585891  HIT:   10717068  MISS:   36868823
LLC LOAD      ACCESS:   36262033  HIT:          0  MISS:   36262033
LLC RFO       ACCESS:        263  HIT:          0  MISS:        263
LLC PREFETCH  ACCESS:          0  HIT:          0  MISS:          0
LLC WRITEBACK ACCESS:   11323318  HIT:   10717068  MISS:     606250
Heartbeat CPU 0 instructions: 1550000002 cycles: 3246272430 heartbeat IPC: 0.742133 cumulative IPC: 0.464268 (Simulation time: 21 hr 22 min 56 sec) 

Region of Interest Statistics
cpu0_DTLB TOTAL     ACCESS:  244554200  HIT:  243986767  MISS:     567433
cpu0_DTLB LOAD      ACCESS:  227824618  HIT:  227317070  MISS:     507548
cpu0_DTLB RFO       ACCESS:   16729582  HIT:   16669697  MISS:      59885
cpu0_DTLB PREFETCH  ACCESS:          0  HIT:          0  MISS:          0
cpu0_DTLB WRITEBACK ACCESS:          0  HIT:          0  MISS:          0
cpu0_ITLB TOTAL     ACCESS:  100662944  HIT:  100662944  MISS:          0
cpu0_ITLB LOAD      ACCESS:  100662944  HIT:  100662944  MISS:          0
cpu0_ITLB RFO       ACCESS:          0  HIT:          0  MISS:          0
cpu0_ITLB PREFETCH  ACCESS:          0  HIT:          0  MISS:          0
cpu0_ITLB WRITEBACK ACCESS:          0  HIT:          0  MISS:          0
cpu0_L1I TOTAL     ACCESS:         75  HIT:         42  MISS:         33
cpu0_L1I LOAD      ACCESS:         75  HIT:         42  MISS:         33
cpu0_L1I RFO       ACCESS:          0  HIT:          0  MISS:          0
cpu0_L1I PREFETCH  ACCESS:          0  HIT:          0  MISS:          0
cpu0_L1I WRITEBACK ACCESS:          0  HIT:          0  MISS:          0
cpu0_STLB TOTAL     ACCESS:     567433  HIT:          0  MISS:     567433
cpu0_STLB LOAD      ACCESS:     507548  HIT:          0  MISS:     507548
cpu0_STLB RFO       ACCESS:      59885  HIT:          0  MISS:      59885
cpu0_STLB PREFETCH  ACCESS:          0  HIT:          0  MISS:          0
cpu0_STLB WRITEBACK ACCESS:          0  HIT:          0  MISS:          0
cpu0_L1D TOTAL     ACCESS:  160514556  HIT:  124206854  MISS:   36307702
cpu0_L1D LOAD      ACCESS:  133493487  HIT:   97186325  MISS:   36307162
cpu0_L1D RFO       ACCESS:   26453636  HIT:   26453373  MISS:        263
cpu0_L1D PREFETCH  ACCESS:          0  HIT:          0  MISS:          0
cpu0_L1D WRITEBACK ACCESS:          0  HIT:          0  MISS:          0
cpu0_L2C TOTAL     ACCESS:   47631178  HIT:   11323443  MISS:   36307735
cpu0_L2C LOAD      ACCESS:   36307195  HIT:          0  MISS:   36307195
cpu0_L2C RFO       ACCESS:        263  HIT:          0  MISS:        263
cpu0_L2C PREFETCH  ACCESS:          0  HIT:          0  MISS:          0
cpu0_L2C WRITEBACK ACCESS:   11323443  HIT:   11323443  MISS:          0
LLC TOTAL     ACCESS:   47637519  HIT:   10723534  MISS:   36913985
LLC LOAD      ACCESS:   36307195  HIT:          0  MISS:   36307195
LLC RFO       ACCESS:        263  HIT:          0  MISS:        263
LLC PREFETCH  ACCESS:          0  HIT:          0  MISS:          0
LLC WRITEBACK ACCESS:   11329784  HIT:   10723534  MISS:     606250
Finished CPU 0 instructions: 1500000001 cycles: 3230890894 cumulative IPC: 0.464268 (Simulation time: 21 hr 22 min 56 sec) 

ChampSim completed all CPUs

Region of Interest Statistics

CPU 0 cumulative IPC: 0.464268 instructions: 1500000001 cycles: 3230890894
cpu0_DTLB TOTAL     ACCESS:  244554200  HIT:  243986767  MISS:     567433
cpu0_DTLB LOAD      ACCESS:  227824618  HIT:  227317070  MISS:     507548
cpu0_DTLB RFO       ACCESS:   16729582  HIT:   16669697  MISS:      59885
cpu0_DTLB PREFETCH  ACCESS:          0  HIT:          0  MISS:          0
cpu0_DTLB WRITEBACK ACCESS:          0  HIT:          0  MISS:          0
cpu0_DTLB TRANSLATION ACCESS:          0  HIT:          0  MISS:          0
cpu0_DTLB PREFETCH  REQUESTED:          0  ISSUED:          0  USEFUL:          0  USELESS:          0
cpu0_DTLB AVERAGE MISS LATENCY: 17.1551 cycles
cpu0_ITLB TOTAL     ACCESS:  100662944  HIT:  100662944  MISS:          0
cpu0_ITLB LOAD      ACCESS:  100662944  HIT:  100662944  MISS:          0
cpu0_ITLB RFO       ACCESS:          0  HIT:          0  MISS:          0
cpu0_ITLB PREFETCH  ACCESS:          0  HIT:          0  MISS:          0
cpu0_ITLB WRITEBACK ACCESS:          0  HIT:          0  MISS:          0
cpu0_ITLB TRANSLATION ACCESS:          0  HIT:          0  MISS:          0
cpu0_ITLB PREFETCH  REQUESTED:          0  ISSUED:          0  USEFUL:          0  USELESS:          0
cpu0_ITLB AVERAGE MISS LATENCY: -nan cycles
cpu0_L1I TOTAL     ACCESS:         75  HIT:         42  MISS:         33
cpu0_L1I LOAD      ACCESS:         75  HIT:         42  MISS:         33
cpu0_L1I RFO       ACCESS:          0  HIT:          0  MISS:          0
cpu0_L1I PREFETCH  ACCESS:          0  HIT:          0  MISS:          0
cpu0_L1I WRITEBACK ACCESS:          0  HIT:          0  MISS:          0
cpu0_L1I TRANSLATION ACCESS:          0  HIT:          0  MISS:          0
cpu0_L1I PREFETCH  REQUESTED:          0  ISSUED:          0  USEFUL:          0  USELESS:          0
cpu0_L1I AVERAGE MISS LATENCY: 280.424 cycles
cpu0_STLB TOTAL     ACCESS:     567433  HIT:          0  MISS:     567433
cpu0_STLB LOAD      ACCESS:     507548  HIT:          0  MISS:     507548
cpu0_STLB RFO       ACCESS:      59885  HIT:          0  MISS:      59885
cpu0_STLB PREFETCH  ACCESS:          0  HIT:          0  MISS:          0
cpu0_STLB WRITEBACK ACCESS:          0  HIT:          0  MISS:          0
cpu0_STLB TRANSLATION ACCESS:          0  HIT:          0  MISS:          0
cpu0_STLB PREFETCH  REQUESTED:          0  ISSUED:          0  USEFUL:          0  USELESS:          0
cpu0_STLB AVERAGE MISS LATENCY: 8.15511 cycles
cpu0_L1D TOTAL     ACCESS:  160514556  HIT:  124206854  MISS:   36307702
cpu0_L1D LOAD      ACCESS:  133493487  HIT:   97186325  MISS:   36307162
cpu0_L1D RFO       ACCESS:   26453636  HIT:   26453373  MISS:        263
cpu0_L1D PREFETCH  ACCESS:          0  HIT:          0  MISS:          0
cpu0_L1D WRITEBACK ACCESS:          0  HIT:          0  MISS:          0
cpu0_L1D TRANSLATION ACCESS:     567433  HIT:     567156  MISS:        277
cpu0_L1D PREFETCH  REQUESTED:          0  ISSUED:          0  USEFUL:          0  USELESS:          0
cpu0_L1D AVERAGE MISS LATENCY: 279.4 cycles
cpu0_L2C TOTAL     ACCESS:   47631178  HIT:   11323443  MISS:   36307735
cpu0_L2C LOAD      ACCESS:   36307195  HIT:          0  MISS:   36307195
cpu0_L2C RFO       ACCESS:        263  HIT:          0  MISS:        263
cpu0_L2C PREFETCH  ACCESS:          0  HIT:          0  MISS:          0
cpu0_L2C WRITEBACK ACCESS:   11323443  HIT:   11323443  MISS:          0
cpu0_L2C TRANSLATION ACCESS:        277  HIT:          0  MISS:        277
cpu0_L2C PREFETCH  REQUESTED:          0  ISSUED:          0  USEFUL:          0  USELESS:          0
cpu0_L2C AVERAGE MISS LATENCY: 268.399 cycles
LLC TOTAL     ACCESS:   47637519  HIT:   10723534  MISS:   36913985
LLC LOAD      ACCESS:   36307195  HIT:          0  MISS:   36307195
LLC RFO       ACCESS:        263  HIT:          0  MISS:        263
LLC PREFETCH  ACCESS:          0  HIT:          0  MISS:          0
LLC WRITEBACK ACCESS:   11329784  HIT:   10723534  MISS:     606250
LLC TRANSLATION ACCESS:        277  HIT:          0  MISS:        277
LLC PREFETCH  REQUESTED:          0  ISSUED:          0  USEFUL:          0  USELESS:          0
LLC AVERAGE MISS LATENCY: 243.336 cycles
~~~~~~~~~~Reuse Distance Profiler output~~~~~~~~~~
0	62024016	51279664
1	44154192	31012928
2	17149568	15150512
3	2941344	2521728
4	2401728	2254832
5	1349104	1291664
6	694992	538784
7	530080	373936
8	272416	232016
9	142560	119552
10	48032	43424
11	62704	20112
12	60704	13360
13	53840	6192
14	27888	7488
15	35904	21856
16	27824	1216
17	33760	2032
18	27920	160
19	107952	80
20	27312	272
21	10624	32
22	15040	80
23	29536	96
24	17664	16
25	27696	0
26	48016	64
27	10784	32
28	12752	48
29	11584	384
30	12336	32
31	10448	16
32	11168	64
33	22464	32
34	6672	48
35	7600	48
36	10240	480
37	7616	48
38	8128	128
39	8848	16
40	6096	16
41	5168	0
42	7200	0
43	5472	0
44	8656	0
45	6784	0
46	8000	0
47	8704	0
48	7088	0
49	7104	0
50	7472	0
51	7184	0
52	7120	0
53	6672	0
54	4464	0
55	4256	0
56	8160	0
57	3584	0
58	3120	0
59	3600	0
60	4752	0
61	2496	0
62	1360	0
63	1360	0
64	3376	0
66	1440	0
68	1056	0
70	192	16
72	32	0
74	16	0
76	0	0
78	0	0
80	0	0
82	0	0
84	0	0
86	0	0
88	0	0
90	0	0
92	0	0
94	0	0
96	0	0
98	0	0
100	0	0
102	0	0
104	0	0
106	0	0
108	0	0
110	0	0
112	0	0
114	0	0
116	0	0
118	0	0
120	0	0
122	0	0
124	0	0
126	0	0
128	0	0
132	0	0
136	0	0
140	0	0
144	0	0
148	0	0
152	0	0
156	0	0
160	0	0
164	0	0
168	0	0
172	0	0
176	0	0
180	0	0
184	0	0
188	0	0
192	0	0
196	0	0
200	0	0
204	0	0
208	0	0
212	0	0
216	0	0
220	0	0
224	0	0
228	0	0
232	0	0
236	0	0
240	0	0
244	0	0
248	0	0
252	0	0
256	0	0
264	0	0
272	0	0
280	0	0
288	0	0
296	0	0
304	0	0
312	0	0
320	0	0
328	0	0
336	0	0
344	0	0
352	0	0
360	0	0
368	0	0
376	0	0
384	0	0
392	0	0
400	0	0
408	0	0
416	0	0
424	0	0
432	0	0
440	0	0
448	0	0
456	0	0
464	0	0
472	0	0
480	0	0
488	0	0
496	0	0
504	0	0
512	0	0
528	0	0
544	0	0
560	0	0
576	0	0
592	0	0
608	0	0
624	0	0
640	0	0
656	0	0
672	0	0
688	0	0
704	0	0
720	0	0
736	0	0
752	0	0
768	0	0
784	0	0
800	0	0
816	0	0
832	0	0
848	0	0
864	0	0
880	0	0
896	0	0
912	0	0
928	0	0
944	0	0
960	0	0
976	0	0
992	0	0
1008	0	0
1024	0	0
1056	0	0
1088	0	0
1120	0	0
1152	0	0
1184	0	0
1216	0	0
1248	0	0
1280	0	0
1312	0	0
1344	0	0
1376	0	0
1408	0	0
1440	0	0
1472	0	0
1504	0	0
1536	0	0
1568	0	0
1600	0	0
1632	0	0
1664	0	0
1696	0	0
1728	0	0
1760	0	0
1792	0	0
1824	0	0
1856	0	0
1888	0	0
1920	0	0
1952	0	0
1984	0	0
2016	0	0
2048	0	0
2112	0	0
2176	0	0
2240	0	0
2304	0	0
2368	0	0
2432	0	0
2496	0	0
2560	0	0
2624	0	0
2688	0	0
2752	0	0
2816	0	0
2880	0	0
2944	0	0
3008	0	0
3072	0	0
3136	0	0
3200	0	0
3264	0	0
3328	0	0
3392	0	0
3456	0	0
3520	0	0
3584	0	0
3648	0	0
3712	0	0
3776	0	0
3840	0	0
3904	0	0
3968	0	0
4032	0	0
4096	0	0
4224	0	0
4352	0	0
4480	0	0
4608	0	0
4736	0	0
4864	0	0
4992	0	0
5120	0	0
5248	0	0
5376	0	0
5504	0	0
5632	0	0
5760	0	0
5888	0	0
6016	0	0
6144	0	0
6272	0	0
6400	0	0
6528	0	0
6656	0	0
6784	0	0
6912	0	0
7040	0	0
7168	0	0
7296	0	0
7424	0	0
7552	0	0
7680	0	0
7808	0	0
7936	0	0
8064	0	0
8192	0	0
8448	0	0
8704	0	0
8960	0	0
9216	0	0
9472	0	0
9728	0	0
9984	0	0
10240	0	0
10496	0	0
10752	0	0
11008	0	0
11264	0	0
11520	0	0
11776	0	0
12032	0	0
12288	0	0
12544	0	0
12800	0	0
13056	0	0
13312	0	0
13568	0	0
13824	0	0
14080	0	0
14336	0	0
14592	0	0
14848	0	0
15104	0	0
15360	0	0
15616	0	0
15872	0	0
16128	0	0
16384	0	0
16896	0	0
17408	0	0
17920	0	0
18432	0	0
18944	0	0
19456	0	0
19968	0	0
20480	0	0
20992	0	0
21504	0	0
22016	0	0
22528	0	0
23040	0	0
23552	0	0
24064	0	0
24576	0	0
25088	0	0
25600	0	0
26112	0	0
26624	0	0
27136	0	0
27648	0	0
28160	0	0
28672	0	0
29184	0	0
29696	0	0
30208	0	0
30720	0	0
31232	0	0
31744	0	0
32256	0	0
32768	0	0
33792	0	0
34816	0	0
35840	0	0
36864	0	0
37888	0	0
38912	0	0
39936	0	0
40960	0	0
41984	0	0
43008	0	0
44032	0	0
45056	0	0
46080	0	0
47104	0	0
48128	0	0
49152	0	0
50176	0	0
51200	0	0
52224	0	0
53248	0	0
54272	0	0
55296	0	0
56320	0	0
57344	0	0
58368	0	0
59392	0	0
60416	0	0
61440	0	0
62464	0	0
63488	0	0
64512	0	0
65536	0	0
67584	0	0
69632	0	0
71680	0	0
73728	0	0
75776	0	0
77824	0	0
79872	0	0
81920	0	0
83968	0	0
86016	0	0
88064	0	0
90112	0	0
92160	0	0
94208	0	0
96256	0	0
98304	0	0
100352	0	0
102400	0	0
104448	0	0
106496	0	0
108544	0	0
110592	0	0
112640	0	0
114688	0	0
116736	0	0
118784	0	0
120832	0	0
122880	0	0
124928	0	0
126976	0	0
129024	0	0
131072	0	0
135168	0	0
139264	0	0
143360	0	0
147456	0	0
151552	0	0
155648	0	0
159744	0	0
163840	0	0
167936	0	0
172032	0	0
176128	0	0
180224	0	0
184320	0	0
188416	0	0
192512	0	0
196608	0	0
200704	0	0
204800	0	0
208896	0	0
212992	0	0
217088	0	0
221184	0	0
225280	0	0
229376	0	0
233472	0	0
237568	0	0
241664	0	0
245760	0	0
249856	0	0
253952	0	0
258048	0	0
262144	0	0
270336	0	0
278528	0	0
286720	0	0
294912	0	0
303104	0	0
311296	0	0
319488	0	0
327680	0	0
335872	0	0
344064	0	0
352256	0	0
360448	0	0
368640	0	0
376832	0	0
385024	0	0
393216	0	0
401408	0	0
409600	0	0
417792	0	0
425984	0	0
434176	0	0
442368	0	0
450560	0	0
458752	0	0
466944	0	0
475136	0	0
483328	0	0
491520	0	0
499712	0	0
507904	0	0
516096	0	0
524288	0	0
540672	0	0
557056	0	0
573440	0	0
589824	0	0
606208	0	0
622592	0	0
638976	0	0
655360	0	0
671744	0	0
688128	0	0
704512	0	0
720896	0	0
737280	0	0
753664	0	0
770048	0	0
786432	0	0
802816	0	0
819200	0	0
835584	0	0
851968	0	0
868352	0	0
884736	0	0
901120	0	0
917504	0	0
933888	0	0
950272	0	0
966656	0	0
983040	0	0
999424	0	0
1015808	0	0
1032192	0	0
1048576	0	0
1081344	0	0
1114112	0	0
1146880	0	0
1179648	0	0
1212416	0	0
1245184	0	0
1277952	0	0
1310720	0	0
1343488	0	0
1376256	0	0
1409024	0	0
1441792	0	0
1474560	0	0
1507328	0	0
1540096	0	0
1572864	0	0
1605632	0	0
1638400	0	0
1671168	0	0
1703936	0	0
1736704	0	0
1769472	0	0
1802240	0	0
1835008	0	0
1867776	227840	227824
1900544	746896	746864
1933312	1107568	1107568
1966080	1750560	1750560
1998848	2365856	2365856
2031616	2794384	2794384
2064384	5092608	5092528
2097152	6405760	6405728
2162688	3214000	3213984
2228224	1362336	1362320
2293760	1095104	1095104
2359296	1056656	1056656
2424832	1008064	1008064
2490368	894144	894144
2555904	625232	625232
2621440	546928	546912
2686976	480608	480608
2752512	400832	400832
2818048	394016	394016
2883584	399984	399984
2949120	396592	396592
3014656	391152	391152
3080192	380592	380592
3145728	382032	382032
3211264	386352	386352
3276800	379312	379312
3342336	382896	382896
3407872	383248	383248
3473408	382976	382976
3538944	382672	382672
3604480	60928	60928
3670016	9440	9440
3735552	9296	9296
3801088	33584	33568
3866624	518816	518816
3932160	53664	53648
3997696	28352	28352
4063232	28304	28288
4128768	27984	27984
4194304	56176	56176
4325376	93888	93872
4456448	251024	251008
4587520	83120	83120
4718592	0	0
4849664	0	0
4980736	0	0
5111808	0	0
5242880	0	0
5373952	0	0
5505024	0	0
5636096	0	0
5767168	0	0
5898240	0	0
6029312	0	0
6160384	0	0
6291456	0	0
6422528	0	0
6553600	0	0
6684672	0	0
6815744	0	0
6946816	0	0
7077888	0	0
7208960	0	0
7340032	0	0
7471104	0	0
7602176	0	0
7733248	0	0
7864320	0	0
7995392	0	0
8126464	0	0
8257536	0	0
8388608	0	0
8650752	0	0
8912896	0	0
9175040	0	0
9437184	0	0
9699328	0	0
9961472	0	0
10223616	0	0
10485760	0	0
10747904	0	0
11010048	0	0
11272192	0	0
11534336	0	0
11796480	0	0
12058624	0	0
12320768	0	0
12582912	0	0
12845056	0	0
13107200	0	0
13369344	0	0
13631488	0	0
13893632	0	0
14155776	0	0
14417920	0	0
14680064	0	0
14942208	0	0
15204352	0	0
15466496	0	0
15728640	0	0
15990784	0	0
16252928	0	0
16515072	0	0
16777216	0	0
17301504	0	0
17825792	0	0
18350080	16	16
18874368	0	0
19398656	0	0
19922944	0	0
20447232	0	0
20971520	0	0
21495808	0	0
22020096	0	0
22544384	0	0
23068672	0	0
23592960	0	0
24117248	0	0
24641536	0	0
25165824	0	0
25690112	0	0
26214400	0	0
26738688	0	0
27262976	0	0
27787264	0	0
28311552	0	0
28835840	0	0
29360128	0	0
29884416	0	0
30408704	0	0
30932992	0	0
31457280	0	0
31981568	0	0
32505856	0	0
33030144	0	0
33554432	0	0
34603008	0	0
35651584	0	0
36700160	0	0
37748736	0	0
38797312	0	0
39845888	0	0
40894464	0	0
41943040	0	0
42991616	0	0
44040192	0	0
45088768	0	0
46137344	0	0
47185920	0	0
48234496	0	0
49283072	0	0
50331648	0	0
51380224	0	0
52428800	0	0
53477376	0	0
54525952	0	0
55574528	0	0
56623104	0	0
57671680	0	0
58720256	0	0
59768832	0	0
60817408	0	0
61865984	0	0
62914560	0	0
63963136	0	0
65011712	0	0
66060288	0	0
67108864	0	0
69206016	0	0
71303168	0	0
73400320	0	0
75497472	0	0
77594624	0	0
79691776	0	0
81788928	0	0
83886080	0	0
85983232	0	0
88080384	0	0
90177536	0	0
92274688	0	0
94371840	0	0
96468992	0	0
98566144	0	0
100663296	0	0
102760448	0	0
104857600	0	0
106954752	0	0
109051904	0	0
111149056	0	0
113246208	0	0
115343360	0	0
117440512	0	0
119537664	0	0
121634816	0	0
123731968	0	0
125829120	0	0
127926272	0	0
130023424	0	0
132120576	0	0
134217728	0	0
138412032	0	0
142606336	0	0
146800640	0	0
150994944	0	0
155189248	0	0
159383552	0	0
163577856	0	0
167772160	0	0
171966464	0	0
176160768	0	0
180355072	0	0
184549376	0	0
188743680	0	0
192937984	0	0
197132288	0	0
201326592	0	0
205520896	0	0
209715200	0	0
213909504	0	0
218103808	0	0
222298112	0	0
226492416	0	0
230686720	0	0
234881024	0	0
239075328	0	0
243269632	0	0
247463936	0	0
251658240	0	0
255852544	0	0
260046848	0	0
264241152	0	0
268435456	0	0
276824064	0	0
285212672	0	0
293601280	0	0
301989888	0	0
310378496	0	0
318767104	0	0
327155712	0	0
335544320	0	0
343932928	0	0
352321536	0	0
360710144	0	0
369098752	0	0
377487360	0	0
385875968	0	0
394264576	0	0
402653184	0	0
411041792	0	0
419430400	0	0
427819008	0	0
436207616	0	0
444596224	0	0
452984832	0	0
461373440	0	0
469762048	0	0
478150656	0	0
486539264	0	0
494927872	0	0
503316480	0	0
511705088	0	0
520093696	0	0
528482304	0	0
536870912	0	0
553648128	0	0
570425344	0	0
587202560	0	0
603979776	0	0
620756992	0	0
637534208	0	0
654311424	0	0
671088640	0	0
687865856	0	0
704643072	0	0
721420288	0	0
738197504	0	0
754974720	0	0
771751936	0	0
788529152	0	0
805306368	0	0
822083584	0	0
838860800	0	0
855638016	0	0
872415232	0	0
889192448	0	0
905969664	0	0
922746880	0	0
939524096	0	0
956301312	0	0
973078528	0	0
989855744	0	0
1006632960	0	0
1023410176	0	0
1040187392	0	0
1056964608	0	0
1073741824	0	0
1107296256	0	0
1140850688	0	0
1174405120	0	0
1207959552	0	0
1241513984	0	0
1275068416	0	0
1308622848	0	0
1342177280	0	0
1375731712	0	0
1409286144	0	0
1442840576	0	0
1476395008	0	0
1509949440	0	0
1543503872	0	0
1577058304	0	0
1610612736	0	0
1644167168	0	0
1677721600	0	0
1711276032	0	0
1744830464	0	0
1778384896	0	0
1811939328	0	0
1845493760	0	0
1879048192	0	0
1912602624	0	0
1946157056	0	0
1979711488	0	0
2013265920	0	0
2046820352	0	0
2080374784	0	0
2113929216	0	0
2147483648	0	0
2214592512	0	0
2281701376	0	0
2348810240	0	0
2415919104	0	0
2483027968	0	0
2550136832	0	0
2617245696	0	0
2684354560	0	0
2751463424	0	0
2818572288	0	0
2885681152	0	0
2952790016	0	0
3019898880	0	0
3087007744	0	0
3154116608	0	0
3221225472	0	0
3288334336	0	0
3355443200	0	0
3422552064	0	0
3489660928	0	0
3556769792	0	0
3623878656	0	0
3690987520	0	0
3758096384	0	0
3825205248	0	0
3892314112	0	0
3959422976	0	0
4026531840	0	0
4093640704	0	0
4160749568	0	0
4227858432	0	0
~~~~~~~~~~Reuse Distance Profiler output end~~~~~~~~~~

Sampler size:32787

DRAM Statistics
 CHANNEL 0
 RQ ROW_BUFFER_HIT:   13676679  ROW_BUFFER_MISS:   22631056
 DBUS AVG_CONGESTED_CYCLE:    3.92563
 WQ ROW_BUFFER_HIT:     360198  ROW_BUFFER_MISS:   11006869  FULL:          0


CPU 0 Branch Prediction Accuracy: 94.1732% MPKI: 10.6621 Average ROB Occupancy at Mispredict: 27.1693
Branch type MPKI
BRANCH_DIRECT_JUMP: 6e-06
BRANCH_INDIRECT: 5.33333e-06
BRANCH_CONDITIONAL: 10.6621
BRANCH_DIRECT_CALL: 2.4e-05
BRANCH_INDIRECT_CALL: 0
BRANCH_RETURN: 2.33333e-05

