
*** ChampSim Multicore Out-of-Order Simulator ***

Warmup Instructions: 50000000
Simulation Instructions: 1500000000
Number of CPUs: 1
Off-chip DRAM Size: 4 GiB Channels: 1 Width: 64-bit Data Rate: 3200 MT/s

VirtualMemory physical capacity: 8588881920 num_ppages: 2096895
VirtualMemory page size: 4096 log2_page_size: 12

CPU 0 runs /s/traces/champsim_traces/462.libquantum-1343B.champsimtrace.xz
CPU 0 Bimodal branch predictor
Basic BTB sets: 1024 ways: 8 indirect buffer size: 4096 RAS size: 64
Initializing LRU.
Initializing LRU.
Initializing LRU.
Initializing LRU.
Initializing rdLRU.
Initializing LRU.
Heartbeat CPU 0 instructions: 2000000 cycles: 540024 heartbeat IPC: 3.70354 cumulative IPC: 3.70354 (Simulation time: 0 hr 1 min 14 sec) 
Heartbeat CPU 0 instructions: 4000000 cycles: 1082656 heartbeat IPC: 3.68574 cumulative IPC: 3.69462 (Simulation time: 0 hr 2 min 24 sec) 
Heartbeat CPU 0 instructions: 6000002 cycles: 1625292 heartbeat IPC: 3.68572 cumulative IPC: 3.69165 (Simulation time: 0 hr 3 min 33 sec) 
Heartbeat CPU 0 instructions: 8000002 cycles: 2167933 heartbeat IPC: 3.68568 cumulative IPC: 3.69015 (Simulation time: 0 hr 4 min 49 sec) 
Heartbeat CPU 0 instructions: 10000004 cycles: 2710549 heartbeat IPC: 3.68585 cumulative IPC: 3.68929 (Simulation time: 0 hr 6 min 0 sec) 
Heartbeat CPU 0 instructions: 12000000 cycles: 3253163 heartbeat IPC: 3.68585 cumulative IPC: 3.68872 (Simulation time: 0 hr 7 min 14 sec) 
Heartbeat CPU 0 instructions: 14000001 cycles: 3795781 heartbeat IPC: 3.68584 cumulative IPC: 3.68831 (Simulation time: 0 hr 8 min 32 sec) 
Heartbeat CPU 0 instructions: 16000002 cycles: 4338393 heartbeat IPC: 3.68588 cumulative IPC: 3.688 (Simulation time: 0 hr 9 min 49 sec) 
Heartbeat CPU 0 instructions: 18000003 cycles: 4881008 heartbeat IPC: 3.68586 cumulative IPC: 3.68776 (Simulation time: 0 hr 11 min 3 sec) 
Heartbeat CPU 0 instructions: 20000000 cycles: 5423619 heartbeat IPC: 3.68588 cumulative IPC: 3.68757 (Simulation time: 0 hr 12 min 10 sec) 
Heartbeat CPU 0 instructions: 22000000 cycles: 5966242 heartbeat IPC: 3.6858 cumulative IPC: 3.68741 (Simulation time: 0 hr 13 min 19 sec) 
Heartbeat CPU 0 instructions: 24000001 cycles: 6508875 heartbeat IPC: 3.68573 cumulative IPC: 3.68727 (Simulation time: 0 hr 14 min 32 sec) 
Heartbeat CPU 0 instructions: 26000002 cycles: 7113217 heartbeat IPC: 3.30939 cumulative IPC: 3.65517 (Simulation time: 0 hr 15 min 51 sec) 
Heartbeat CPU 0 instructions: 28000000 cycles: 7751506 heartbeat IPC: 3.13337 cumulative IPC: 3.6122 (Simulation time: 0 hr 17 min 16 sec) 
Heartbeat CPU 0 instructions: 30000001 cycles: 8389786 heartbeat IPC: 3.13342 cumulative IPC: 3.57578 (Simulation time: 0 hr 18 min 41 sec) 
Heartbeat CPU 0 instructions: 32000004 cycles: 9028070 heartbeat IPC: 3.13341 cumulative IPC: 3.5445 (Simulation time: 0 hr 20 min 8 sec) 
Heartbeat CPU 0 instructions: 34000000 cycles: 9666351 heartbeat IPC: 3.13341 cumulative IPC: 3.51736 (Simulation time: 0 hr 21 min 36 sec) 
Heartbeat CPU 0 instructions: 36000002 cycles: 10304638 heartbeat IPC: 3.13339 cumulative IPC: 3.49357 (Simulation time: 0 hr 22 min 59 sec) 
Heartbeat CPU 0 instructions: 38000000 cycles: 10942921 heartbeat IPC: 3.1334 cumulative IPC: 3.47256 (Simulation time: 0 hr 24 min 26 sec) 
Heartbeat CPU 0 instructions: 40000000 cycles: 11581199 heartbeat IPC: 3.13343 cumulative IPC: 3.45387 (Simulation time: 0 hr 25 min 51 sec) 
Heartbeat CPU 0 instructions: 42000003 cycles: 12219427 heartbeat IPC: 3.13368 cumulative IPC: 3.43715 (Simulation time: 0 hr 27 min 15 sec) 
Heartbeat CPU 0 instructions: 44000000 cycles: 12857648 heartbeat IPC: 3.13371 cumulative IPC: 3.42209 (Simulation time: 0 hr 28 min 41 sec) 
Heartbeat CPU 0 instructions: 46000000 cycles: 13667251 heartbeat IPC: 2.47035 cumulative IPC: 3.36571 (Simulation time: 0 hr 30 min 35 sec) 
Heartbeat CPU 0 instructions: 48000002 cycles: 14524392 heartbeat IPC: 2.33334 cumulative IPC: 3.30479 (Simulation time: 0 hr 32 min 37 sec) 
Heartbeat CPU 0 instructions: 50000001 cycles: 15381536 heartbeat IPC: 2.33333 cumulative IPC: 3.25065 (Simulation time: 0 hr 34 min 32 sec) 

Warmup complete CPU 0 instructions: 50000001 cycles: 15381536 (Simulation time: 0 hr 34 min 32 sec) 

Heartbeat CPU 0 instructions: 52000003 cycles: 20396998 heartbeat IPC: 0.398767 cumulative IPC: 0.398767 (Simulation time: 0 hr 40 min 21 sec) 

Region of Interest Statistics
cpu0_DTLB TOTAL     ACCESS:     348199  HIT:     347083  MISS:       1116
cpu0_DTLB LOAD      ACCESS:     219638  HIT:     219587  MISS:         51
cpu0_DTLB RFO       ACCESS:     128561  HIT:     127496  MISS:       1065
cpu0_DTLB PREFETCH  ACCESS:          0  HIT:          0  MISS:          0
cpu0_DTLB WRITEBACK ACCESS:          0  HIT:          0  MISS:          0
cpu0_ITLB TOTAL     ACCESS:      10235  HIT:      10235  MISS:          0
cpu0_ITLB LOAD      ACCESS:      10235  HIT:      10235  MISS:          0
cpu0_ITLB RFO       ACCESS:          0  HIT:          0  MISS:          0
cpu0_ITLB PREFETCH  ACCESS:          0  HIT:          0  MISS:          0
cpu0_ITLB WRITEBACK ACCESS:          0  HIT:          0  MISS:          0
cpu0_STLB TOTAL     ACCESS:       1116  HIT:          0  MISS:       1116
cpu0_STLB LOAD      ACCESS:         51  HIT:          0  MISS:         51
cpu0_STLB RFO       ACCESS:       1065  HIT:          0  MISS:       1065
cpu0_STLB PREFETCH  ACCESS:          0  HIT:          0  MISS:          0
cpu0_STLB WRITEBACK ACCESS:          0  HIT:          0  MISS:          0
cpu0_L1D TOTAL     ACCESS:     492612  HIT:     421180  MISS:      71432
cpu0_L1D LOAD      ACCESS:     205782  HIT:     134351  MISS:      71431
cpu0_L1D RFO       ACCESS:     285714  HIT:     285714  MISS:          0
cpu0_L1D PREFETCH  ACCESS:          0  HIT:          0  MISS:          0
cpu0_L1D WRITEBACK ACCESS:          0  HIT:          0  MISS:          0
cpu0_L2C TOTAL     ACCESS:     142862  HIT:      71430  MISS:      71432
cpu0_L2C LOAD      ACCESS:      71431  HIT:          0  MISS:      71431
cpu0_L2C RFO       ACCESS:          0  HIT:          0  MISS:          0
cpu0_L2C PREFETCH  ACCESS:          0  HIT:          0  MISS:          0
cpu0_L2C WRITEBACK ACCESS:      71430  HIT:      71430  MISS:          0
LLC TOTAL     ACCESS:     142861  HIT:      46533  MISS:      96328
LLC LOAD      ACCESS:      71431  HIT:          0  MISS:      71431
LLC RFO       ACCESS:          0  HIT:          0  MISS:          0
LLC PREFETCH  ACCESS:          0  HIT:          0  MISS:          0
LLC WRITEBACK ACCESS:      71429  HIT:      46533  MISS:      24896
Heartbeat CPU 0 instructions: 54000004 cycles: 25421357 heartbeat IPC: 0.398061 cumulative IPC: 0.398414 (Simulation time: 0 hr 46 min 11 sec) 

Region of Interest Statistics
cpu0_DTLB TOTAL     ACCESS:     697153  HIT:     694921  MISS:       2232
cpu0_DTLB LOAD      ACCESS:     439898  HIT:     439795  MISS:        103
cpu0_DTLB RFO       ACCESS:     257255  HIT:     255126  MISS:       2129
cpu0_DTLB PREFETCH  ACCESS:          0  HIT:          0  MISS:          0
cpu0_DTLB WRITEBACK ACCESS:          0  HIT:          0  MISS:          0
cpu0_ITLB TOTAL     ACCESS:      20190  HIT:      20190  MISS:          0
cpu0_ITLB LOAD      ACCESS:      20190  HIT:      20190  MISS:          0
cpu0_ITLB RFO       ACCESS:          0  HIT:          0  MISS:          0
cpu0_ITLB PREFETCH  ACCESS:          0  HIT:          0  MISS:          0
cpu0_ITLB WRITEBACK ACCESS:          0  HIT:          0  MISS:          0
cpu0_STLB TOTAL     ACCESS:       2232  HIT:          0  MISS:       2232
cpu0_STLB LOAD      ACCESS:        103  HIT:          0  MISS:        103
cpu0_STLB RFO       ACCESS:       2129  HIT:          0  MISS:       2129
cpu0_STLB PREFETCH  ACCESS:          0  HIT:          0  MISS:          0
cpu0_STLB WRITEBACK ACCESS:          0  HIT:          0  MISS:          0
cpu0_L1D TOTAL     ACCESS:     985340  HIT:     842481  MISS:     142859
cpu0_L1D LOAD      ACCESS:     411681  HIT:     268823  MISS:     142858
cpu0_L1D RFO       ACCESS:     571427  HIT:     571427  MISS:          0
cpu0_L1D PREFETCH  ACCESS:          0  HIT:          0  MISS:          0
cpu0_L1D WRITEBACK ACCESS:          0  HIT:          0  MISS:          0
cpu0_L2C TOTAL     ACCESS:     285716  HIT:     142857  MISS:     142859
cpu0_L2C LOAD      ACCESS:     142858  HIT:          0  MISS:     142858
cpu0_L2C RFO       ACCESS:          0  HIT:          0  MISS:          0
cpu0_L2C PREFETCH  ACCESS:          0  HIT:          0  MISS:          0
cpu0_L2C WRITEBACK ACCESS:     142857  HIT:     142857  MISS:          0
LLC TOTAL     ACCESS:     285715  HIT:      93356  MISS:     192359
LLC LOAD      ACCESS:     142858  HIT:          0  MISS:     142858
LLC RFO       ACCESS:          0  HIT:          0  MISS:          0
LLC PREFETCH  ACCESS:          0  HIT:          0  MISS:          0
LLC WRITEBACK ACCESS:     142856  HIT:      93356  MISS:      49500
Heartbeat CPU 0 instructions: 56000004 cycles: 30399820 heartbeat IPC: 0.40173 cumulative IPC: 0.399513 (Simulation time: 0 hr 51 min 57 sec) 

Region of Interest Statistics
cpu0_DTLB TOTAL     ACCESS:    1046585  HIT:    1043237  MISS:       3348
cpu0_DTLB LOAD      ACCESS:     660459  HIT:     660307  MISS:        152
cpu0_DTLB RFO       ACCESS:     386126  HIT:     382930  MISS:       3196
cpu0_DTLB PREFETCH  ACCESS:          0  HIT:          0  MISS:          0
cpu0_DTLB WRITEBACK ACCESS:          0  HIT:          0  MISS:          0
cpu0_ITLB TOTAL     ACCESS:      29503  HIT:      29503  MISS:          0
cpu0_ITLB LOAD      ACCESS:      29503  HIT:      29503  MISS:          0
cpu0_ITLB RFO       ACCESS:          0  HIT:          0  MISS:          0
cpu0_ITLB PREFETCH  ACCESS:          0  HIT:          0  MISS:          0
cpu0_ITLB WRITEBACK ACCESS:          0  HIT:          0  MISS:          0
cpu0_STLB TOTAL     ACCESS:       3348  HIT:          0  MISS:       3348
cpu0_STLB LOAD      ACCESS:        152  HIT:          0  MISS:        152
cpu0_STLB RFO       ACCESS:       3196  HIT:          0  MISS:       3196
cpu0_STLB PREFETCH  ACCESS:          0  HIT:          0  MISS:          0
cpu0_STLB WRITEBACK ACCESS:          0  HIT:          0  MISS:          0
cpu0_L1D TOTAL     ACCESS:    1478138  HIT:    1263849  MISS:     214289
cpu0_L1D LOAD      ACCESS:     617648  HIT:     403360  MISS:     214288
cpu0_L1D RFO       ACCESS:     857142  HIT:     857142  MISS:          0
cpu0_L1D PREFETCH  ACCESS:          0  HIT:          0  MISS:          0
cpu0_L1D WRITEBACK ACCESS:          0  HIT:          0  MISS:          0
cpu0_L2C TOTAL     ACCESS:     428576  HIT:     214287  MISS:     214289
cpu0_L2C LOAD      ACCESS:     214288  HIT:          0  MISS:     214288
cpu0_L2C RFO       ACCESS:          0  HIT:          0  MISS:          0
cpu0_L2C PREFETCH  ACCESS:          0  HIT:          0  MISS:          0
cpu0_L2C WRITEBACK ACCESS:     214287  HIT:     214287  MISS:          0
LLC TOTAL     ACCESS:     428575  HIT:     140279  MISS:     288296
LLC LOAD      ACCESS:     214288  HIT:          0  MISS:     214288
LLC RFO       ACCESS:          0  HIT:          0  MISS:          0
LLC PREFETCH  ACCESS:          0  HIT:          0  MISS:          0
LLC WRITEBACK ACCESS:     214286  HIT:     140279  MISS:      74007
Heartbeat CPU 0 instructions: 58000003 cycles: 35378552 heartbeat IPC: 0.401709 cumulative IPC: 0.40006 (Simulation time: 0 hr 57 min 42 sec) 

Region of Interest Statistics
cpu0_DTLB TOTAL     ACCESS:    1395204  HIT:    1390740  MISS:       4464
cpu0_DTLB LOAD      ACCESS:     880464  HIT:     880270  MISS:        194
cpu0_DTLB RFO       ACCESS:     514740  HIT:     510470  MISS:       4270
cpu0_DTLB PREFETCH  ACCESS:          0  HIT:          0  MISS:          0
cpu0_DTLB WRITEBACK ACCESS:          0  HIT:          0  MISS:          0
cpu0_ITLB TOTAL     ACCESS:      39287  HIT:      39287  MISS:          0
cpu0_ITLB LOAD      ACCESS:      39287  HIT:      39287  MISS:          0
cpu0_ITLB RFO       ACCESS:          0  HIT:          0  MISS:          0
cpu0_ITLB PREFETCH  ACCESS:          0  HIT:          0  MISS:          0
cpu0_ITLB WRITEBACK ACCESS:          0  HIT:          0  MISS:          0
cpu0_STLB TOTAL     ACCESS:       4464  HIT:          0  MISS:       4464
cpu0_STLB LOAD      ACCESS:        194  HIT:          0  MISS:        194
cpu0_STLB RFO       ACCESS:       4270  HIT:          0  MISS:       4270
cpu0_STLB PREFETCH  ACCESS:          0  HIT:          0  MISS:          0
cpu0_STLB WRITEBACK ACCESS:          0  HIT:          0  MISS:          0
cpu0_L1D TOTAL     ACCESS:    1970673  HIT:    1684958  MISS:     285715
cpu0_L1D LOAD      ACCESS:     823354  HIT:     537640  MISS:     285714
cpu0_L1D RFO       ACCESS:    1142855  HIT:    1142855  MISS:          0
cpu0_L1D PREFETCH  ACCESS:          0  HIT:          0  MISS:          0
cpu0_L1D WRITEBACK ACCESS:          0  HIT:          0  MISS:          0
cpu0_L2C TOTAL     ACCESS:     571428  HIT:     285713  MISS:     285715
cpu0_L2C LOAD      ACCESS:     285714  HIT:          0  MISS:     285714
cpu0_L2C RFO       ACCESS:          0  HIT:          0  MISS:          0
cpu0_L2C PREFETCH  ACCESS:          0  HIT:          0  MISS:          0
cpu0_L2C WRITEBACK ACCESS:     285713  HIT:     285713  MISS:          0
LLC TOTAL     ACCESS:     571427  HIT:     187546  MISS:     383881
LLC LOAD      ACCESS:     285714  HIT:          0  MISS:     285714
LLC RFO       ACCESS:          0  HIT:          0  MISS:          0
LLC PREFETCH  ACCESS:          0  HIT:          0  MISS:          0
LLC WRITEBACK ACCESS:     285712  HIT:     187546  MISS:      98166
Heartbeat CPU 0 instructions: 60000004 cycles: 40401369 heartbeat IPC: 0.398183 cumulative IPC: 0.399683 (Simulation time: 1 hr 2 min 10 sec) 

Region of Interest Statistics
cpu0_DTLB TOTAL     ACCESS:    1726951  HIT:    1721553  MISS:       5398
cpu0_DTLB LOAD      ACCESS:    1136215  HIT:    1135677  MISS:        538
cpu0_DTLB RFO       ACCESS:     590736  HIT:     585876  MISS:       4860
cpu0_DTLB PREFETCH  ACCESS:          0  HIT:          0  MISS:          0
cpu0_DTLB WRITEBACK ACCESS:          0  HIT:          0  MISS:          0
cpu0_ITLB TOTAL     ACCESS:     118623  HIT:     118623  MISS:          0
cpu0_ITLB LOAD      ACCESS:     118623  HIT:     118623  MISS:          0
cpu0_ITLB RFO       ACCESS:          0  HIT:          0  MISS:          0
cpu0_ITLB PREFETCH  ACCESS:          0  HIT:          0  MISS:          0
cpu0_ITLB WRITEBACK ACCESS:          0  HIT:          0  MISS:          0
cpu0_L1I TOTAL     ACCESS:          9  HIT:          3  MISS:          6
cpu0_L1I LOAD      ACCESS:          9  HIT:          3  MISS:          6
cpu0_L1I RFO       ACCESS:          0  HIT:          0  MISS:          0
cpu0_L1I PREFETCH  ACCESS:          0  HIT:          0  MISS:          0
cpu0_L1I WRITEBACK ACCESS:          0  HIT:          0  MISS:          0
cpu0_STLB TOTAL     ACCESS:       5398  HIT:          0  MISS:       5398
cpu0_STLB LOAD      ACCESS:        538  HIT:          0  MISS:        538
cpu0_STLB RFO       ACCESS:       4860  HIT:          0  MISS:       4860
cpu0_STLB PREFETCH  ACCESS:          0  HIT:          0  MISS:          0
cpu0_STLB WRITEBACK ACCESS:          0  HIT:          0  MISS:          0
cpu0_L1D TOTAL     ACCESS:    2324332  HIT:    1978940  MISS:     345392
cpu0_L1D LOAD      ACCESS:    1012965  HIT:     667581  MISS:     345384
cpu0_L1D RFO       ACCESS:    1305969  HIT:    1305965  MISS:          4
cpu0_L1D PREFETCH  ACCESS:          0  HIT:          0  MISS:          0
cpu0_L1D WRITEBACK ACCESS:          0  HIT:          0  MISS:          0
cpu0_L2C TOTAL     ACCESS:     675505  HIT:     330106  MISS:     345399
cpu0_L2C LOAD      ACCESS:     345391  HIT:          0  MISS:     345391
cpu0_L2C RFO       ACCESS:          4  HIT:          0  MISS:          4
cpu0_L2C PREFETCH  ACCESS:          0  HIT:          0  MISS:          0
cpu0_L2C WRITEBACK ACCESS:     330106  HIT:     330106  MISS:          0
LLC TOTAL     ACCESS:     681332  HIT:     221539  MISS:     459793
LLC LOAD      ACCESS:     345391  HIT:          0  MISS:     345391
LLC RFO       ACCESS:          4  HIT:          0  MISS:          4
LLC PREFETCH  ACCESS:          0  HIT:          0  MISS:          0
LLC WRITEBACK ACCESS:     335933  HIT:     221539  MISS:     114394
Heartbeat CPU 0 instructions: 62000001 cycles: 44522179 heartbeat IPC: 0.485341 cumulative IPC: 0.411796 (Simulation time: 1 hr 4 min 30 sec) 

Region of Interest Statistics
cpu0_DTLB TOTAL     ACCESS:    2043412  HIT:    2037311  MISS:       6101
cpu0_DTLB LOAD      ACCESS:    1442368  HIT:    1441127  MISS:       1241
cpu0_DTLB RFO       ACCESS:     601044  HIT:     596184  MISS:       4860
cpu0_DTLB PREFETCH  ACCESS:          0  HIT:          0  MISS:          0
cpu0_DTLB WRITEBACK ACCESS:          0  HIT:          0  MISS:          0
cpu0_ITLB TOTAL     ACCESS:     277054  HIT:     277054  MISS:          0
cpu0_ITLB LOAD      ACCESS:     277054  HIT:     277054  MISS:          0
cpu0_ITLB RFO       ACCESS:          0  HIT:          0  MISS:          0
cpu0_ITLB PREFETCH  ACCESS:          0  HIT:          0  MISS:          0
cpu0_ITLB WRITEBACK ACCESS:          0  HIT:          0  MISS:          0
cpu0_L1I TOTAL     ACCESS:          9  HIT:          3  MISS:          6
cpu0_L1I LOAD      ACCESS:          9  HIT:          3  MISS:          6
cpu0_L1I RFO       ACCESS:          0  HIT:          0  MISS:          0
cpu0_L1I PREFETCH  ACCESS:          0  HIT:          0  MISS:          0
cpu0_L1I WRITEBACK ACCESS:          0  HIT:          0  MISS:          0
cpu0_STLB TOTAL     ACCESS:       6101  HIT:          0  MISS:       6101
cpu0_STLB LOAD      ACCESS:       1241  HIT:          0  MISS:       1241
cpu0_STLB RFO       ACCESS:       4860  HIT:          0  MISS:       4860
cpu0_STLB PREFETCH  ACCESS:          0  HIT:          0  MISS:          0
cpu0_STLB WRITEBACK ACCESS:          0  HIT:          0  MISS:          0
cpu0_L1D TOTAL     ACCESS:    2504987  HIT:    2114608  MISS:     390379
cpu0_L1D LOAD      ACCESS:    1182609  HIT:     792238  MISS:     390371
cpu0_L1D RFO       ACCESS:    1316277  HIT:    1316273  MISS:          4
cpu0_L1D PREFETCH  ACCESS:          0  HIT:          0  MISS:          0
cpu0_L1D WRITEBACK ACCESS:          0  HIT:          0  MISS:          0
cpu0_L2C TOTAL     ACCESS:     730193  HIT:     339808  MISS:     390385
cpu0_L2C LOAD      ACCESS:     390377  HIT:          0  MISS:     390377
cpu0_L2C RFO       ACCESS:          4  HIT:          0  MISS:          4
cpu0_L2C PREFETCH  ACCESS:          0  HIT:          0  MISS:          0
cpu0_L2C WRITEBACK ACCESS:     339808  HIT:     339808  MISS:          0
LLC TOTAL     ACCESS:     735954  HIT:     230980  MISS:     504974
LLC LOAD      ACCESS:     390377  HIT:          0  MISS:     390377
LLC RFO       ACCESS:          4  HIT:          0  MISS:          4
LLC PREFETCH  ACCESS:          0  HIT:          0  MISS:          0
LLC WRITEBACK ACCESS:     345569  HIT:     230980  MISS:     114589
Heartbeat CPU 0 instructions: 64000004 cycles: 48323620 heartbeat IPC: 0.526117 cumulative IPC: 0.424988 (Simulation time: 1 hr 6 min 38 sec) 

Region of Interest Statistics
cpu0_DTLB TOTAL     ACCESS:    2361640  HIT:    2354836  MISS:       6804
cpu0_DTLB LOAD      ACCESS:    1750288  HIT:    1748344  MISS:       1944
cpu0_DTLB RFO       ACCESS:     611352  HIT:     606492  MISS:       4860
cpu0_DTLB PREFETCH  ACCESS:          0  HIT:          0  MISS:          0
cpu0_DTLB WRITEBACK ACCESS:          0  HIT:          0  MISS:          0
cpu0_ITLB TOTAL     ACCESS:     430622  HIT:     430622  MISS:          0
cpu0_ITLB LOAD      ACCESS:     430622  HIT:     430622  MISS:          0
cpu0_ITLB RFO       ACCESS:          0  HIT:          0  MISS:          0
cpu0_ITLB PREFETCH  ACCESS:          0  HIT:          0  MISS:          0
cpu0_ITLB WRITEBACK ACCESS:          0  HIT:          0  MISS:          0
cpu0_L1I TOTAL     ACCESS:          9  HIT:          3  MISS:          6
cpu0_L1I LOAD      ACCESS:          9  HIT:          3  MISS:          6
cpu0_L1I RFO       ACCESS:          0  HIT:          0  MISS:          0
cpu0_L1I PREFETCH  ACCESS:          0  HIT:          0  MISS:          0
cpu0_L1I WRITEBACK ACCESS:          0  HIT:          0  MISS:          0
cpu0_STLB TOTAL     ACCESS:       6804  HIT:          0  MISS:       6804
cpu0_STLB LOAD      ACCESS:       1944  HIT:          0  MISS:       1944
cpu0_STLB RFO       ACCESS:       4860  HIT:          0  MISS:       4860
cpu0_STLB PREFETCH  ACCESS:          0  HIT:          0  MISS:          0
cpu0_STLB WRITEBACK ACCESS:          0  HIT:          0  MISS:          0
cpu0_L1D TOTAL     ACCESS:    2685351  HIT:    2249986  MISS:     435365
cpu0_L1D LOAD      ACCESS:    1351962  HIT:     916605  MISS:     435357
cpu0_L1D RFO       ACCESS:    1326585  HIT:    1326581  MISS:          4
cpu0_L1D PREFETCH  ACCESS:          0  HIT:          0  MISS:          0
cpu0_L1D WRITEBACK ACCESS:          0  HIT:          0  MISS:          0
cpu0_L2C TOTAL     ACCESS:     784881  HIT:     349510  MISS:     435371
cpu0_L2C LOAD      ACCESS:     435363  HIT:          0  MISS:     435363
cpu0_L2C RFO       ACCESS:          4  HIT:          0  MISS:          4
cpu0_L2C PREFETCH  ACCESS:          0  HIT:          0  MISS:          0
cpu0_L2C WRITEBACK ACCESS:     349510  HIT:     349510  MISS:          0
LLC TOTAL     ACCESS:     790845  HIT:     240868  MISS:     549977
LLC LOAD      ACCESS:     435363  HIT:          0  MISS:     435363
LLC RFO       ACCESS:          4  HIT:          0  MISS:          4
LLC PREFETCH  ACCESS:          0  HIT:          0  MISS:          0
LLC WRITEBACK ACCESS:     355474  HIT:     240868  MISS:     114606
Heartbeat CPU 0 instructions: 66000004 cycles: 52140419 heartbeat IPC: 0.523999 cumulative IPC: 0.435269 (Simulation time: 1 hr 8 min 49 sec) 

Region of Interest Statistics
cpu0_DTLB TOTAL     ACCESS:    2679569  HIT:    2672062  MISS:       7507
cpu0_DTLB LOAD      ACCESS:    2057909  HIT:    2055262  MISS:       2647
cpu0_DTLB RFO       ACCESS:     621660  HIT:     616800  MISS:       4860
cpu0_DTLB PREFETCH  ACCESS:          0  HIT:          0  MISS:          0
cpu0_DTLB WRITEBACK ACCESS:          0  HIT:          0  MISS:          0
cpu0_ITLB TOTAL     ACCESS:     584848  HIT:     584848  MISS:          0
cpu0_ITLB LOAD      ACCESS:     584848  HIT:     584848  MISS:          0
cpu0_ITLB RFO       ACCESS:          0  HIT:          0  MISS:          0
cpu0_ITLB PREFETCH  ACCESS:          0  HIT:          0  MISS:          0
cpu0_ITLB WRITEBACK ACCESS:          0  HIT:          0  MISS:          0
cpu0_L1I TOTAL     ACCESS:          9  HIT:          3  MISS:          6
cpu0_L1I LOAD      ACCESS:          9  HIT:          3  MISS:          6
cpu0_L1I RFO       ACCESS:          0  HIT:          0  MISS:          0
cpu0_L1I PREFETCH  ACCESS:          0  HIT:          0  MISS:          0
cpu0_L1I WRITEBACK ACCESS:          0  HIT:          0  MISS:          0
cpu0_STLB TOTAL     ACCESS:       7507  HIT:          0  MISS:       7507
cpu0_STLB LOAD      ACCESS:       2647  HIT:          0  MISS:       2647
cpu0_STLB RFO       ACCESS:       4860  HIT:          0  MISS:       4860
cpu0_STLB PREFETCH  ACCESS:          0  HIT:          0  MISS:          0
cpu0_STLB WRITEBACK ACCESS:          0  HIT:          0  MISS:          0
cpu0_L1D TOTAL     ACCESS:    2865714  HIT:    2385364  MISS:     480350
cpu0_L1D LOAD      ACCESS:    1521314  HIT:    1040972  MISS:     480342
cpu0_L1D RFO       ACCESS:    1336893  HIT:    1336889  MISS:          4
cpu0_L1D PREFETCH  ACCESS:          0  HIT:          0  MISS:          0
cpu0_L1D WRITEBACK ACCESS:          0  HIT:          0  MISS:          0
cpu0_L2C TOTAL     ACCESS:     839569  HIT:     359212  MISS:     480357
cpu0_L2C LOAD      ACCESS:     480349  HIT:          0  MISS:     480349
cpu0_L2C RFO       ACCESS:          4  HIT:          0  MISS:          4
cpu0_L2C PREFETCH  ACCESS:          0  HIT:          0  MISS:          0
cpu0_L2C WRITEBACK ACCESS:     359212  HIT:     359212  MISS:          0
LLC TOTAL     ACCESS:     845432  HIT:     250434  MISS:     594998
LLC LOAD      ACCESS:     480349  HIT:          0  MISS:     480349
LLC RFO       ACCESS:          4  HIT:          0  MISS:          4
LLC PREFETCH  ACCESS:          0  HIT:          0  MISS:          0
LLC WRITEBACK ACCESS:     365075  HIT:     250434  MISS:     114641
Heartbeat CPU 0 instructions: 68000001 cycles: 55958314 heartbeat IPC: 0.523848 cumulative IPC: 0.443603 (Simulation time: 1 hr 10 min 53 sec) 

Region of Interest Statistics
cpu0_DTLB TOTAL     ACCESS:    2997574  HIT:    2989364  MISS:       8210
cpu0_DTLB LOAD      ACCESS:    2365606  HIT:    2362256  MISS:       3350
cpu0_DTLB RFO       ACCESS:     631968  HIT:     627108  MISS:       4860
cpu0_DTLB PREFETCH  ACCESS:          0  HIT:          0  MISS:          0
cpu0_DTLB WRITEBACK ACCESS:          0  HIT:          0  MISS:          0
cpu0_ITLB TOTAL     ACCESS:     739030  HIT:     739030  MISS:          0
cpu0_ITLB LOAD      ACCESS:     739030  HIT:     739030  MISS:          0
cpu0_ITLB RFO       ACCESS:          0  HIT:          0  MISS:          0
cpu0_ITLB PREFETCH  ACCESS:          0  HIT:          0  MISS:          0
cpu0_ITLB WRITEBACK ACCESS:          0  HIT:          0  MISS:          0
cpu0_L1I TOTAL     ACCESS:          9  HIT:          3  MISS:          6
cpu0_L1I LOAD      ACCESS:          9  HIT:          3  MISS:          6
cpu0_L1I RFO       ACCESS:          0  HIT:          0  MISS:          0
cpu0_L1I PREFETCH  ACCESS:          0  HIT:          0  MISS:          0
cpu0_L1I WRITEBACK ACCESS:          0  HIT:          0  MISS:          0
cpu0_STLB TOTAL     ACCESS:       8210  HIT:          0  MISS:       8210
cpu0_STLB LOAD      ACCESS:       3350  HIT:          0  MISS:       3350
cpu0_STLB RFO       ACCESS:       4860  HIT:          0  MISS:       4860
cpu0_STLB PREFETCH  ACCESS:          0  HIT:          0  MISS:          0
cpu0_STLB WRITEBACK ACCESS:          0  HIT:          0  MISS:          0
cpu0_L1D TOTAL     ACCESS:    3046059  HIT:    2520722  MISS:     525337
cpu0_L1D LOAD      ACCESS:    1690648  HIT:    1165319  MISS:     525329
cpu0_L1D RFO       ACCESS:    1347201  HIT:    1347197  MISS:          4
cpu0_L1D PREFETCH  ACCESS:          0  HIT:          0  MISS:          0
cpu0_L1D WRITEBACK ACCESS:          0  HIT:          0  MISS:          0
cpu0_L2C TOTAL     ACCESS:     894257  HIT:     368914  MISS:     525343
cpu0_L2C LOAD      ACCESS:     525335  HIT:          0  MISS:     525335
cpu0_L2C RFO       ACCESS:          4  HIT:          0  MISS:          4
cpu0_L2C PREFETCH  ACCESS:          0  HIT:          0  MISS:          0
cpu0_L2C WRITEBACK ACCESS:     368914  HIT:     368914  MISS:          0
LLC TOTAL     ACCESS:     900111  HIT:     260090  MISS:     640021
LLC LOAD      ACCESS:     525335  HIT:          0  MISS:     525335
LLC RFO       ACCESS:          4  HIT:          0  MISS:          4
LLC PREFETCH  ACCESS:          0  HIT:          0  MISS:          0
LLC WRITEBACK ACCESS:     374768  HIT:     260090  MISS:     114678
Heartbeat CPU 0 instructions: 70000004 cycles: 59806066 heartbeat IPC: 0.519785 cumulative IPC: 0.450202 (Simulation time: 1 hr 13 min 4 sec) 

Region of Interest Statistics
cpu0_DTLB TOTAL     ACCESS:    3315504  HIT:    3306591  MISS:       8913
cpu0_DTLB LOAD      ACCESS:    2673228  HIT:    2669175  MISS:       4053
cpu0_DTLB RFO       ACCESS:     642276  HIT:     637416  MISS:       4860
cpu0_DTLB PREFETCH  ACCESS:          0  HIT:          0  MISS:          0
cpu0_DTLB WRITEBACK ACCESS:          0  HIT:          0  MISS:          0
cpu0_ITLB TOTAL     ACCESS:     893485  HIT:     893485  MISS:          0
cpu0_ITLB LOAD      ACCESS:     893485  HIT:     893485  MISS:          0
cpu0_ITLB RFO       ACCESS:          0  HIT:          0  MISS:          0
cpu0_ITLB PREFETCH  ACCESS:          0  HIT:          0  MISS:          0
cpu0_ITLB WRITEBACK ACCESS:          0  HIT:          0  MISS:          0
cpu0_L1I TOTAL     ACCESS:          9  HIT:          3  MISS:          6
cpu0_L1I LOAD      ACCESS:          9  HIT:          3  MISS:          6
cpu0_L1I RFO       ACCESS:          0  HIT:          0  MISS:          0
cpu0_L1I PREFETCH  ACCESS:          0  HIT:          0  MISS:          0
cpu0_L1I WRITEBACK ACCESS:          0  HIT:          0  MISS:          0
cpu0_STLB TOTAL     ACCESS:       8913  HIT:          0  MISS:       8913
cpu0_STLB LOAD      ACCESS:       4053  HIT:          0  MISS:       4053
cpu0_STLB RFO       ACCESS:       4860  HIT:          0  MISS:       4860
cpu0_STLB PREFETCH  ACCESS:          0  HIT:          0  MISS:          0
cpu0_STLB WRITEBACK ACCESS:          0  HIT:          0  MISS:          0
cpu0_L1D TOTAL     ACCESS:    3226554  HIT:    2656231  MISS:     570323
cpu0_L1D LOAD      ACCESS:    1860132  HIT:    1289818  MISS:     570314
cpu0_L1D RFO       ACCESS:    1357509  HIT:    1357505  MISS:          4
cpu0_L1D PREFETCH  ACCESS:          0  HIT:          0  MISS:          0
cpu0_L1D WRITEBACK ACCESS:          0  HIT:          0  MISS:          0
cpu0_L2C TOTAL     ACCESS:     948945  HIT:     378616  MISS:     570329
cpu0_L2C LOAD      ACCESS:     570320  HIT:          0  MISS:     570320
cpu0_L2C RFO       ACCESS:          4  HIT:          0  MISS:          4
cpu0_L2C PREFETCH  ACCESS:          0  HIT:          0  MISS:          0
cpu0_L2C WRITEBACK ACCESS:     378616  HIT:     378616  MISS:          0
LLC TOTAL     ACCESS:     955005  HIT:     269975  MISS:     685030
LLC LOAD      ACCESS:     570320  HIT:          0  MISS:     570320
LLC RFO       ACCESS:          4  HIT:          0  MISS:          4
LLC PREFETCH  ACCESS:          0  HIT:          0  MISS:          0
LLC WRITEBACK ACCESS:     384676  HIT:     269975  MISS:     114701
Heartbeat CPU 0 instructions: 72000004 cycles: 63633469 heartbeat IPC: 0.522548 cumulative IPC: 0.45594 (Simulation time: 1 hr 15 min 12 sec) 

Region of Interest Statistics
cpu0_DTLB TOTAL     ACCESS:    3633017  HIT:    3623401  MISS:       9616
cpu0_DTLB LOAD      ACCESS:    2980433  HIT:    2975677  MISS:       4756
cpu0_DTLB RFO       ACCESS:     652584  HIT:     647724  MISS:       4860
cpu0_DTLB PREFETCH  ACCESS:          0  HIT:          0  MISS:          0
cpu0_DTLB WRITEBACK ACCESS:          0  HIT:          0  MISS:          0
cpu0_ITLB TOTAL     ACCESS:    1048304  HIT:    1048304  MISS:          0
cpu0_ITLB LOAD      ACCESS:    1048304  HIT:    1048304  MISS:          0
cpu0_ITLB RFO       ACCESS:          0  HIT:          0  MISS:          0
cpu0_ITLB PREFETCH  ACCESS:          0  HIT:          0  MISS:          0
cpu0_ITLB WRITEBACK ACCESS:          0  HIT:          0  MISS:          0
cpu0_L1I TOTAL     ACCESS:          9  HIT:          3  MISS:          6
cpu0_L1I LOAD      ACCESS:          9  HIT:          3  MISS:          6
cpu0_L1I RFO       ACCESS:          0  HIT:          0  MISS:          0
cpu0_L1I PREFETCH  ACCESS:          0  HIT:          0  MISS:          0
cpu0_L1I WRITEBACK ACCESS:          0  HIT:          0  MISS:          0
cpu0_STLB TOTAL     ACCESS:       9616  HIT:          0  MISS:       9616
cpu0_STLB LOAD      ACCESS:       4756  HIT:          0  MISS:       4756
cpu0_STLB RFO       ACCESS:       4860  HIT:          0  MISS:       4860
cpu0_STLB PREFETCH  ACCESS:          0  HIT:          0  MISS:          0
cpu0_STLB WRITEBACK ACCESS:          0  HIT:          0  MISS:          0
cpu0_L1D TOTAL     ACCESS:    3406902  HIT:    2791593  MISS:     615309
cpu0_L1D LOAD      ACCESS:    2029469  HIT:    1414169  MISS:     615300
cpu0_L1D RFO       ACCESS:    1367817  HIT:    1367813  MISS:          4
cpu0_L1D PREFETCH  ACCESS:          0  HIT:          0  MISS:          0
cpu0_L1D WRITEBACK ACCESS:          0  HIT:          0  MISS:          0
cpu0_L2C TOTAL     ACCESS:    1003633  HIT:     388318  MISS:     615315
cpu0_L2C LOAD      ACCESS:     615306  HIT:          0  MISS:     615306
cpu0_L2C RFO       ACCESS:          4  HIT:          0  MISS:          4
cpu0_L2C PREFETCH  ACCESS:          0  HIT:          0  MISS:          0
cpu0_L2C WRITEBACK ACCESS:     388318  HIT:     388318  MISS:          0
LLC TOTAL     ACCESS:    1009346  HIT:     279269  MISS:     730077
LLC LOAD      ACCESS:     615306  HIT:          0  MISS:     615306
LLC RFO       ACCESS:          4  HIT:          0  MISS:          4
LLC PREFETCH  ACCESS:          0  HIT:          0  MISS:          0
LLC WRITEBACK ACCESS:     394031  HIT:     279269  MISS:     114762
Heartbeat CPU 0 instructions: 74000004 cycles: 67463296 heartbeat IPC: 0.522217 cumulative IPC: 0.460814 (Simulation time: 1 hr 17 min 18 sec) 

Region of Interest Statistics
cpu0_DTLB TOTAL     ACCESS:    3950908  HIT:    3940589  MISS:      10319
cpu0_DTLB LOAD      ACCESS:    3288016  HIT:    3282557  MISS:       5459
cpu0_DTLB RFO       ACCESS:     662892  HIT:     658032  MISS:       4860
cpu0_DTLB PREFETCH  ACCESS:          0  HIT:          0  MISS:          0
cpu0_DTLB WRITEBACK ACCESS:          0  HIT:          0  MISS:          0
cpu0_ITLB TOTAL     ACCESS:    1202528  HIT:    1202528  MISS:          0
cpu0_ITLB LOAD      ACCESS:    1202528  HIT:    1202528  MISS:          0
cpu0_ITLB RFO       ACCESS:          0  HIT:          0  MISS:          0
cpu0_ITLB PREFETCH  ACCESS:          0  HIT:          0  MISS:          0
cpu0_ITLB WRITEBACK ACCESS:          0  HIT:          0  MISS:          0
cpu0_L1I TOTAL     ACCESS:          9  HIT:          3  MISS:          6
cpu0_L1I LOAD      ACCESS:          9  HIT:          3  MISS:          6
cpu0_L1I RFO       ACCESS:          0  HIT:          0  MISS:          0
cpu0_L1I PREFETCH  ACCESS:          0  HIT:          0  MISS:          0
cpu0_L1I WRITEBACK ACCESS:          0  HIT:          0  MISS:          0
cpu0_STLB TOTAL     ACCESS:      10319  HIT:          0  MISS:      10319
cpu0_STLB LOAD      ACCESS:       5459  HIT:          0  MISS:       5459
cpu0_STLB RFO       ACCESS:       4860  HIT:          0  MISS:       4860
cpu0_STLB PREFETCH  ACCESS:          0  HIT:          0  MISS:          0
cpu0_STLB WRITEBACK ACCESS:          0  HIT:          0  MISS:          0
cpu0_L1D TOTAL     ACCESS:    3587358  HIT:    2927063  MISS:     660295
cpu0_L1D LOAD      ACCESS:    2198914  HIT:    1538628  MISS:     660286
cpu0_L1D RFO       ACCESS:    1378125  HIT:    1378121  MISS:          4
cpu0_L1D PREFETCH  ACCESS:          0  HIT:          0  MISS:          0
cpu0_L1D WRITEBACK ACCESS:          0  HIT:          0  MISS:          0
cpu0_L2C TOTAL     ACCESS:    1058322  HIT:     398020  MISS:     660302
cpu0_L2C LOAD      ACCESS:     660293  HIT:          0  MISS:     660293
cpu0_L2C RFO       ACCESS:          4  HIT:          0  MISS:          4
cpu0_L2C PREFETCH  ACCESS:          0  HIT:          0  MISS:          0
cpu0_L2C WRITEBACK ACCESS:     398020  HIT:     398020  MISS:          0
LLC TOTAL     ACCESS:    1064037  HIT:     288953  MISS:     775084
LLC LOAD      ACCESS:     660293  HIT:          0  MISS:     660293
LLC RFO       ACCESS:          4  HIT:          0  MISS:          4
LLC PREFETCH  ACCESS:          0  HIT:          0  MISS:          0
LLC WRITEBACK ACCESS:     403735  HIT:     288953  MISS:     114782
Heartbeat CPU 0 instructions: 76000004 cycles: 71291776 heartbeat IPC: 0.522401 cumulative IPC: 0.465031 (Simulation time: 1 hr 19 min 27 sec) 

Region of Interest Statistics
cpu0_DTLB TOTAL     ACCESS:    4268714  HIT:    4257692  MISS:      11022
cpu0_DTLB LOAD      ACCESS:    3595514  HIT:    3589352  MISS:       6162
cpu0_DTLB RFO       ACCESS:     673200  HIT:     668340  MISS:       4860
cpu0_DTLB PREFETCH  ACCESS:          0  HIT:          0  MISS:          0
cpu0_DTLB WRITEBACK ACCESS:          0  HIT:          0  MISS:          0
cpu0_ITLB TOTAL     ACCESS:    1357187  HIT:    1357187  MISS:          0
cpu0_ITLB LOAD      ACCESS:    1357187  HIT:    1357187  MISS:          0
cpu0_ITLB RFO       ACCESS:          0  HIT:          0  MISS:          0
cpu0_ITLB PREFETCH  ACCESS:          0  HIT:          0  MISS:          0
cpu0_ITLB WRITEBACK ACCESS:          0  HIT:          0  MISS:          0
cpu0_L1I TOTAL     ACCESS:          9  HIT:          3  MISS:          6
cpu0_L1I LOAD      ACCESS:          9  HIT:          3  MISS:          6
cpu0_L1I RFO       ACCESS:          0  HIT:          0  MISS:          0
cpu0_L1I PREFETCH  ACCESS:          0  HIT:          0  MISS:          0
cpu0_L1I WRITEBACK ACCESS:          0  HIT:          0  MISS:          0
cpu0_STLB TOTAL     ACCESS:      11022  HIT:          0  MISS:      11022
cpu0_STLB LOAD      ACCESS:       6162  HIT:          0  MISS:       6162
cpu0_STLB RFO       ACCESS:       4860  HIT:          0  MISS:       4860
cpu0_STLB PREFETCH  ACCESS:          0  HIT:          0  MISS:          0
cpu0_STLB WRITEBACK ACCESS:          0  HIT:          0  MISS:          0
cpu0_L1D TOTAL     ACCESS:    3767759  HIT:    3062478  MISS:     705281
cpu0_L1D LOAD      ACCESS:    2368304  HIT:    1663032  MISS:     705272
cpu0_L1D RFO       ACCESS:    1388433  HIT:    1388429  MISS:          4
cpu0_L1D PREFETCH  ACCESS:          0  HIT:          0  MISS:          0
cpu0_L1D WRITEBACK ACCESS:          0  HIT:          0  MISS:          0
cpu0_L2C TOTAL     ACCESS:    1113009  HIT:     407722  MISS:     705287
cpu0_L2C LOAD      ACCESS:     705278  HIT:          0  MISS:     705278
cpu0_L2C RFO       ACCESS:          4  HIT:          0  MISS:          4
cpu0_L2C PREFETCH  ACCESS:          0  HIT:          0  MISS:          0
cpu0_L2C WRITEBACK ACCESS:     407722  HIT:     407722  MISS:          0
LLC TOTAL     ACCESS:    1118860  HIT:     298749  MISS:     820111
LLC LOAD      ACCESS:     705278  HIT:          0  MISS:     705278
LLC RFO       ACCESS:          4  HIT:          0  MISS:          4
LLC PREFETCH  ACCESS:          0  HIT:          0  MISS:          0
LLC WRITEBACK ACCESS:     413573  HIT:     298749  MISS:     114824
Heartbeat CPU 0 instructions: 78000000 cycles: 75144418 heartbeat IPC: 0.519123 cumulative IPC: 0.468518 (Simulation time: 1 hr 21 min 32 sec) 

Region of Interest Statistics
cpu0_DTLB TOTAL     ACCESS:    4586601  HIT:    4574877  MISS:      11724
cpu0_DTLB LOAD      ACCESS:    3903061  HIT:    3896197  MISS:       6864
cpu0_DTLB RFO       ACCESS:     683540  HIT:     678680  MISS:       4860
cpu0_DTLB PREFETCH  ACCESS:          0  HIT:          0  MISS:          0
cpu0_DTLB WRITEBACK ACCESS:          0  HIT:          0  MISS:          0
cpu0_ITLB TOTAL     ACCESS:    1511644  HIT:    1511644  MISS:          0
cpu0_ITLB LOAD      ACCESS:    1511644  HIT:    1511644  MISS:          0
cpu0_ITLB RFO       ACCESS:          0  HIT:          0  MISS:          0
cpu0_ITLB PREFETCH  ACCESS:          0  HIT:          0  MISS:          0
cpu0_ITLB WRITEBACK ACCESS:          0  HIT:          0  MISS:          0
cpu0_L1I TOTAL     ACCESS:          9  HIT:          3  MISS:          6
cpu0_L1I LOAD      ACCESS:          9  HIT:          3  MISS:          6
cpu0_L1I RFO       ACCESS:          0  HIT:          0  MISS:          0
cpu0_L1I PREFETCH  ACCESS:          0  HIT:          0  MISS:          0
cpu0_L1I WRITEBACK ACCESS:          0  HIT:          0  MISS:          0
cpu0_STLB TOTAL     ACCESS:      11724  HIT:          0  MISS:      11724
cpu0_STLB LOAD      ACCESS:       6864  HIT:          0  MISS:       6864
cpu0_STLB RFO       ACCESS:       4860  HIT:          0  MISS:       4860
cpu0_STLB PREFETCH  ACCESS:          0  HIT:          0  MISS:          0
cpu0_STLB WRITEBACK ACCESS:          0  HIT:          0  MISS:          0
cpu0_L1D TOTAL     ACCESS:    3948276  HIT:    3198011  MISS:     750265
cpu0_L1D LOAD      ACCESS:    2537779  HIT:    1787523  MISS:     750256
cpu0_L1D RFO       ACCESS:    1398773  HIT:    1398769  MISS:          4
cpu0_L1D PREFETCH  ACCESS:          0  HIT:          0  MISS:          0
cpu0_L1D WRITEBACK ACCESS:          0  HIT:          0  MISS:          0
cpu0_L2C TOTAL     ACCESS:    1167695  HIT:     417424  MISS:     750271
cpu0_L2C LOAD      ACCESS:     750262  HIT:          0  MISS:     750262
cpu0_L2C RFO       ACCESS:          4  HIT:          0  MISS:          4
cpu0_L2C PREFETCH  ACCESS:          0  HIT:          0  MISS:          0
cpu0_L2C WRITEBACK ACCESS:     417424  HIT:     417424  MISS:          0
LLC TOTAL     ACCESS:    1173384  HIT:     308252  MISS:     865132
LLC LOAD      ACCESS:     750263  HIT:          0  MISS:     750263
LLC RFO       ACCESS:          4  HIT:          0  MISS:          4
LLC PREFETCH  ACCESS:          0  HIT:          0  MISS:          0
LLC WRITEBACK ACCESS:     423112  HIT:     308252  MISS:     114860
Heartbeat CPU 0 instructions: 80000000 cycles: 78971316 heartbeat IPC: 0.522617 cumulative IPC: 0.471774 (Simulation time: 1 hr 23 min 42 sec) 

Region of Interest Statistics
cpu0_DTLB TOTAL     ACCESS:    4904342  HIT:    4891915  MISS:      12427
cpu0_DTLB LOAD      ACCESS:    4210462  HIT:    4202895  MISS:       7567
cpu0_DTLB RFO       ACCESS:     693880  HIT:     689020  MISS:       4860
cpu0_DTLB PREFETCH  ACCESS:          0  HIT:          0  MISS:          0
cpu0_DTLB WRITEBACK ACCESS:          0  HIT:          0  MISS:          0
cpu0_ITLB TOTAL     ACCESS:    1666434  HIT:    1666434  MISS:          0
cpu0_ITLB LOAD      ACCESS:    1666434  HIT:    1666434  MISS:          0
cpu0_ITLB RFO       ACCESS:          0  HIT:          0  MISS:          0
cpu0_ITLB PREFETCH  ACCESS:          0  HIT:          0  MISS:          0
cpu0_ITLB WRITEBACK ACCESS:          0  HIT:          0  MISS:          0
cpu0_L1I TOTAL     ACCESS:          9  HIT:          3  MISS:          6
cpu0_L1I LOAD      ACCESS:          9  HIT:          3  MISS:          6
cpu0_L1I RFO       ACCESS:          0  HIT:          0  MISS:          0
cpu0_L1I PREFETCH  ACCESS:          0  HIT:          0  MISS:          0
cpu0_L1I WRITEBACK ACCESS:          0  HIT:          0  MISS:          0
cpu0_STLB TOTAL     ACCESS:      12427  HIT:          0  MISS:      12427
cpu0_STLB LOAD      ACCESS:       7567  HIT:          0  MISS:       7567
cpu0_STLB RFO       ACCESS:       4860  HIT:          0  MISS:       4860
cpu0_STLB PREFETCH  ACCESS:          0  HIT:          0  MISS:          0
cpu0_STLB WRITEBACK ACCESS:          0  HIT:          0  MISS:          0
cpu0_L1D TOTAL     ACCESS:    4128682  HIT:    3333432  MISS:     795250
cpu0_L1D LOAD      ACCESS:    2707142  HIT:    1911901  MISS:     795241
cpu0_L1D RFO       ACCESS:    1409113  HIT:    1409109  MISS:          4
cpu0_L1D PREFETCH  ACCESS:          0  HIT:          0  MISS:          0
cpu0_L1D WRITEBACK ACCESS:          0  HIT:          0  MISS:          0
cpu0_L2C TOTAL     ACCESS:    1222382  HIT:     427126  MISS:     795256
cpu0_L2C LOAD      ACCESS:     795247  HIT:          0  MISS:     795247
cpu0_L2C RFO       ACCESS:          4  HIT:          0  MISS:          4
cpu0_L2C PREFETCH  ACCESS:          0  HIT:          0  MISS:          0
cpu0_L2C WRITEBACK ACCESS:     427126  HIT:     427126  MISS:          0
LLC TOTAL     ACCESS:    1228119  HIT:     317968  MISS:     910151
LLC LOAD      ACCESS:     795247  HIT:          0  MISS:     795247
LLC RFO       ACCESS:          4  HIT:          0  MISS:          4
LLC PREFETCH  ACCESS:          0  HIT:          0  MISS:          0
LLC WRITEBACK ACCESS:     432863  HIT:     317968  MISS:     114895
Heartbeat CPU 0 instructions: 82000000 cycles: 82816234 heartbeat IPC: 0.520167 cumulative IPC: 0.474533 (Simulation time: 1 hr 25 min 50 sec) 

Region of Interest Statistics
cpu0_DTLB TOTAL     ACCESS:    5222442  HIT:    5209312  MISS:      13130
cpu0_DTLB LOAD      ACCESS:    4518222  HIT:    4509952  MISS:       8270
cpu0_DTLB RFO       ACCESS:     704220  HIT:     699360  MISS:       4860
cpu0_DTLB PREFETCH  ACCESS:          0  HIT:          0  MISS:          0
cpu0_DTLB WRITEBACK ACCESS:          0  HIT:          0  MISS:          0
cpu0_ITLB TOTAL     ACCESS:    1820956  HIT:    1820956  MISS:          0
cpu0_ITLB LOAD      ACCESS:    1820956  HIT:    1820956  MISS:          0
cpu0_ITLB RFO       ACCESS:          0  HIT:          0  MISS:          0
cpu0_ITLB PREFETCH  ACCESS:          0  HIT:          0  MISS:          0
cpu0_ITLB WRITEBACK ACCESS:          0  HIT:          0  MISS:          0
cpu0_L1I TOTAL     ACCESS:          9  HIT:          3  MISS:          6
cpu0_L1I LOAD      ACCESS:          9  HIT:          3  MISS:          6
cpu0_L1I RFO       ACCESS:          0  HIT:          0  MISS:          0
cpu0_L1I PREFETCH  ACCESS:          0  HIT:          0  MISS:          0
cpu0_L1I WRITEBACK ACCESS:          0  HIT:          0  MISS:          0
cpu0_STLB TOTAL     ACCESS:      13130  HIT:          0  MISS:      13130
cpu0_STLB LOAD      ACCESS:       8270  HIT:          0  MISS:       8270
cpu0_STLB RFO       ACCESS:       4860  HIT:          0  MISS:       4860
cpu0_STLB PREFETCH  ACCESS:          0  HIT:          0  MISS:          0
cpu0_STLB WRITEBACK ACCESS:          0  HIT:          0  MISS:          0
cpu0_L1D TOTAL     ACCESS:    4309213  HIT:    3468977  MISS:     840236
cpu0_L1D LOAD      ACCESS:    2876630  HIT:    2036404  MISS:     840226
cpu0_L1D RFO       ACCESS:    1419453  HIT:    1419449  MISS:          4
cpu0_L1D PREFETCH  ACCESS:          0  HIT:          0  MISS:          0
cpu0_L1D WRITEBACK ACCESS:          0  HIT:          0  MISS:          0
cpu0_L2C TOTAL     ACCESS:    1277070  HIT:     436828  MISS:     840242
cpu0_L2C LOAD      ACCESS:     840232  HIT:          0  MISS:     840232
cpu0_L2C RFO       ACCESS:          4  HIT:          0  MISS:          4
cpu0_L2C PREFETCH  ACCESS:          0  HIT:          0  MISS:          0
cpu0_L2C WRITEBACK ACCESS:     436828  HIT:     436828  MISS:          0
LLC TOTAL     ACCESS:    1282593  HIT:     327400  MISS:     955193
LLC LOAD      ACCESS:     840232  HIT:          0  MISS:     840232
LLC RFO       ACCESS:          4  HIT:          0  MISS:          4
LLC PREFETCH  ACCESS:          0  HIT:          0  MISS:          0
LLC WRITEBACK ACCESS:     442351  HIT:     327400  MISS:     114951
Heartbeat CPU 0 instructions: 84000004 cycles: 85877893 heartbeat IPC: 0.653242 cumulative IPC: 0.482294 (Simulation time: 1 hr 27 min 58 sec) 

Region of Interest Statistics
cpu0_DTLB TOTAL     ACCESS:    5533055  HIT:    5519217  MISS:      13838
cpu0_DTLB LOAD      ACCESS:    4822498  HIT:    4813520  MISS:       8978
cpu0_DTLB RFO       ACCESS:     710557  HIT:     705697  MISS:       4860
cpu0_DTLB PREFETCH  ACCESS:          0  HIT:          0  MISS:          0
cpu0_DTLB WRITEBACK ACCESS:          0  HIT:          0  MISS:          0
cpu0_ITLB TOTAL     ACCESS:    1973470  HIT:    1973470  MISS:          0
cpu0_ITLB LOAD      ACCESS:    1973470  HIT:    1973470  MISS:          0
cpu0_ITLB RFO       ACCESS:          0  HIT:          0  MISS:          0
cpu0_ITLB PREFETCH  ACCESS:          0  HIT:          0  MISS:          0
cpu0_ITLB WRITEBACK ACCESS:          0  HIT:          0  MISS:          0
cpu0_L1I TOTAL     ACCESS:         10  HIT:          4  MISS:          6
cpu0_L1I LOAD      ACCESS:         10  HIT:          4  MISS:          6
cpu0_L1I RFO       ACCESS:          0  HIT:          0  MISS:          0
cpu0_L1I PREFETCH  ACCESS:          0  HIT:          0  MISS:          0
cpu0_L1I WRITEBACK ACCESS:          0  HIT:          0  MISS:          0
cpu0_STLB TOTAL     ACCESS:      13838  HIT:          0  MISS:      13838
cpu0_STLB LOAD      ACCESS:       8978  HIT:          0  MISS:       8978
cpu0_STLB RFO       ACCESS:       4860  HIT:          0  MISS:       4860
cpu0_STLB PREFETCH  ACCESS:          0  HIT:          0  MISS:          0
cpu0_STLB WRITEBACK ACCESS:          0  HIT:          0  MISS:          0
cpu0_L1D TOTAL     ACCESS:    4477884  HIT:    3592473  MISS:     885411
cpu0_L1D LOAD      ACCESS:    3038250  HIT:    2152855  MISS:     885395
cpu0_L1D RFO       ACCESS:    1425796  HIT:    1425788  MISS:          8
cpu0_L1D PREFETCH  ACCESS:          0  HIT:          0  MISS:          0
cpu0_L1D WRITEBACK ACCESS:          0  HIT:          0  MISS:          0
cpu0_L2C TOTAL     ACCESS:    1328434  HIT:     443017  MISS:     885417
cpu0_L2C LOAD      ACCESS:     885401  HIT:          0  MISS:     885401
cpu0_L2C RFO       ACCESS:          8  HIT:          0  MISS:          8
cpu0_L2C PREFETCH  ACCESS:          0  HIT:          0  MISS:          0
cpu0_L2C WRITEBACK ACCESS:     443017  HIT:     443017  MISS:          0
LLC TOTAL     ACCESS:    1334953  HIT:     334570  MISS:    1000383
LLC LOAD      ACCESS:     885401  HIT:          0  MISS:     885401
LLC RFO       ACCESS:          8  HIT:          0  MISS:          8
LLC PREFETCH  ACCESS:          0  HIT:          0  MISS:          0
LLC WRITEBACK ACCESS:     449536  HIT:     334570  MISS:     114966
Heartbeat CPU 0 instructions: 86000001 cycles: 88621884 heartbeat IPC: 0.728864 cumulative IPC: 0.491532 (Simulation time: 1 hr 29 min 58 sec) 

Region of Interest Statistics
cpu0_DTLB TOTAL     ACCESS:    5842337  HIT:    5827793  MISS:      14544
cpu0_DTLB LOAD      ACCESS:    5126619  HIT:    5116935  MISS:       9684
cpu0_DTLB RFO       ACCESS:     715718  HIT:     710858  MISS:       4860
cpu0_DTLB PREFETCH  ACCESS:          0  HIT:          0  MISS:          0
cpu0_DTLB WRITEBACK ACCESS:          0  HIT:          0  MISS:          0
cpu0_ITLB TOTAL     ACCESS:    2123846  HIT:    2123846  MISS:          0
cpu0_ITLB LOAD      ACCESS:    2123846  HIT:    2123846  MISS:          0
cpu0_ITLB RFO       ACCESS:          0  HIT:          0  MISS:          0
cpu0_ITLB PREFETCH  ACCESS:          0  HIT:          0  MISS:          0
cpu0_ITLB WRITEBACK ACCESS:          0  HIT:          0  MISS:          0
cpu0_L1I TOTAL     ACCESS:         10  HIT:          4  MISS:          6
cpu0_L1I LOAD      ACCESS:         10  HIT:          4  MISS:          6
cpu0_L1I RFO       ACCESS:          0  HIT:          0  MISS:          0
cpu0_L1I PREFETCH  ACCESS:          0  HIT:          0  MISS:          0
cpu0_L1I WRITEBACK ACCESS:          0  HIT:          0  MISS:          0
cpu0_STLB TOTAL     ACCESS:      14544  HIT:          0  MISS:      14544
cpu0_STLB LOAD      ACCESS:       9684  HIT:          0  MISS:       9684
cpu0_STLB RFO       ACCESS:       4860  HIT:          0  MISS:       4860
cpu0_STLB PREFETCH  ACCESS:          0  HIT:          0  MISS:          0
cpu0_STLB WRITEBACK ACCESS:          0  HIT:          0  MISS:          0
cpu0_L1D TOTAL     ACCESS:    4642979  HIT:    3712348  MISS:     930631
cpu0_L1D LOAD      ACCESS:    3197478  HIT:    2266863  MISS:     930615
cpu0_L1D RFO       ACCESS:    1430957  HIT:    1430949  MISS:          8
cpu0_L1D PREFETCH  ACCESS:          0  HIT:          0  MISS:          0
cpu0_L1D WRITEBACK ACCESS:          0  HIT:          0  MISS:          0
cpu0_L2C TOTAL     ACCESS:    1378802  HIT:     448165  MISS:     930637
cpu0_L2C LOAD      ACCESS:     930621  HIT:          0  MISS:     930621
cpu0_L2C RFO       ACCESS:          8  HIT:          0  MISS:          8
cpu0_L2C PREFETCH  ACCESS:          0  HIT:          0  MISS:          0
cpu0_L2C WRITEBACK ACCESS:     448165  HIT:     448165  MISS:          0
LLC TOTAL     ACCESS:    1385379  HIT:     339776  MISS:    1045603
LLC LOAD      ACCESS:     930621  HIT:          0  MISS:     930621
LLC RFO       ACCESS:          8  HIT:          0  MISS:          8
LLC PREFETCH  ACCESS:          0  HIT:          0  MISS:          0
LLC WRITEBACK ACCESS:     454742  HIT:     339776  MISS:     114966
Heartbeat CPU 0 instructions: 88000003 cycles: 91249587 heartbeat IPC: 0.761122 cumulative IPC: 0.50087 (Simulation time: 1 hr 31 min 53 sec) 

Region of Interest Statistics
cpu0_DTLB TOTAL     ACCESS:    6152170  HIT:    6136919  MISS:      15251
cpu0_DTLB LOAD      ACCESS:    5431267  HIT:    5420876  MISS:      10391
cpu0_DTLB RFO       ACCESS:     720903  HIT:     716043  MISS:       4860
cpu0_DTLB PREFETCH  ACCESS:          0  HIT:          0  MISS:          0
cpu0_DTLB WRITEBACK ACCESS:          0  HIT:          0  MISS:          0
cpu0_ITLB TOTAL     ACCESS:    2272508  HIT:    2272508  MISS:          0
cpu0_ITLB LOAD      ACCESS:    2272508  HIT:    2272508  MISS:          0
cpu0_ITLB RFO       ACCESS:          0  HIT:          0  MISS:          0
cpu0_ITLB PREFETCH  ACCESS:          0  HIT:          0  MISS:          0
cpu0_ITLB WRITEBACK ACCESS:          0  HIT:          0  MISS:          0
cpu0_L1I TOTAL     ACCESS:         10  HIT:          4  MISS:          6
cpu0_L1I LOAD      ACCESS:         10  HIT:          4  MISS:          6
cpu0_L1I RFO       ACCESS:          0  HIT:          0  MISS:          0
cpu0_L1I PREFETCH  ACCESS:          0  HIT:          0  MISS:          0
cpu0_L1I WRITEBACK ACCESS:          0  HIT:          0  MISS:          0
cpu0_STLB TOTAL     ACCESS:      15251  HIT:          0  MISS:      15251
cpu0_STLB LOAD      ACCESS:      10391  HIT:          0  MISS:      10391
cpu0_STLB RFO       ACCESS:       4860  HIT:          0  MISS:       4860
cpu0_STLB PREFETCH  ACCESS:          0  HIT:          0  MISS:          0
cpu0_STLB WRITEBACK ACCESS:          0  HIT:          0  MISS:          0
cpu0_L1D TOTAL     ACCESS:    4807985  HIT:    3832135  MISS:     975850
cpu0_L1D LOAD      ACCESS:    3356592  HIT:    2380758  MISS:     975834
cpu0_L1D RFO       ACCESS:    1436142  HIT:    1436134  MISS:          8
cpu0_L1D PREFETCH  ACCESS:          0  HIT:          0  MISS:          0
cpu0_L1D WRITEBACK ACCESS:          0  HIT:          0  MISS:          0
cpu0_L2C TOTAL     ACCESS:    1429169  HIT:     453313  MISS:     975856
cpu0_L2C LOAD      ACCESS:     975840  HIT:          0  MISS:     975840
cpu0_L2C RFO       ACCESS:          8  HIT:          0  MISS:          8
cpu0_L2C PREFETCH  ACCESS:          0  HIT:          0  MISS:          0
cpu0_L2C WRITEBACK ACCESS:     453313  HIT:     453313  MISS:          0
LLC TOTAL     ACCESS:    1435781  HIT:     344959  MISS:    1090822
LLC LOAD      ACCESS:     975840  HIT:          0  MISS:     975840
LLC RFO       ACCESS:          8  HIT:          0  MISS:          8
LLC PREFETCH  ACCESS:          0  HIT:          0  MISS:          0
LLC WRITEBACK ACCESS:     459925  HIT:     344959  MISS:     114966
Heartbeat CPU 0 instructions: 90000004 cycles: 93865751 heartbeat IPC: 0.764478 cumulative IPC: 0.509657 (Simulation time: 1 hr 33 min 50 sec) 

Region of Interest Statistics
cpu0_DTLB TOTAL     ACCESS:    6462231  HIT:    6446273  MISS:      15958
cpu0_DTLB LOAD      ACCESS:    5736143  HIT:    5725045  MISS:      11098
cpu0_DTLB RFO       ACCESS:     726088  HIT:     721228  MISS:       4860
cpu0_DTLB PREFETCH  ACCESS:          0  HIT:          0  MISS:          0
cpu0_DTLB WRITEBACK ACCESS:          0  HIT:          0  MISS:          0
cpu0_ITLB TOTAL     ACCESS:    2420943  HIT:    2420943  MISS:          0
cpu0_ITLB LOAD      ACCESS:    2420943  HIT:    2420943  MISS:          0
cpu0_ITLB RFO       ACCESS:          0  HIT:          0  MISS:          0
cpu0_ITLB PREFETCH  ACCESS:          0  HIT:          0  MISS:          0
cpu0_ITLB WRITEBACK ACCESS:          0  HIT:          0  MISS:          0
cpu0_L1I TOTAL     ACCESS:         10  HIT:          4  MISS:          6
cpu0_L1I LOAD      ACCESS:         10  HIT:          4  MISS:          6
cpu0_L1I RFO       ACCESS:          0  HIT:          0  MISS:          0
cpu0_L1I PREFETCH  ACCESS:          0  HIT:          0  MISS:          0
cpu0_L1I WRITEBACK ACCESS:          0  HIT:          0  MISS:          0
cpu0_STLB TOTAL     ACCESS:      15958  HIT:          0  MISS:      15958
cpu0_STLB LOAD      ACCESS:      11098  HIT:          0  MISS:      11098
cpu0_STLB RFO       ACCESS:       4860  HIT:          0  MISS:       4860
cpu0_STLB PREFETCH  ACCESS:          0  HIT:          0  MISS:          0
cpu0_STLB WRITEBACK ACCESS:          0  HIT:          0  MISS:          0
cpu0_L1D TOTAL     ACCESS:    4972982  HIT:    3951914  MISS:    1021068
cpu0_L1D LOAD      ACCESS:    3515697  HIT:    2494645  MISS:    1021052
cpu0_L1D RFO       ACCESS:    1441327  HIT:    1441319  MISS:          8
cpu0_L1D PREFETCH  ACCESS:          0  HIT:          0  MISS:          0
cpu0_L1D WRITEBACK ACCESS:          0  HIT:          0  MISS:          0
cpu0_L2C TOTAL     ACCESS:    1479535  HIT:     458461  MISS:    1021074
cpu0_L2C LOAD      ACCESS:    1021058  HIT:          0  MISS:    1021058
cpu0_L2C RFO       ACCESS:          8  HIT:          0  MISS:          8
cpu0_L2C PREFETCH  ACCESS:          0  HIT:          0  MISS:          0
cpu0_L2C WRITEBACK ACCESS:     458461  HIT:     458461  MISS:          0
LLC TOTAL     ACCESS:    1486081  HIT:     350039  MISS:    1136042
LLC LOAD      ACCESS:    1021058  HIT:          0  MISS:    1021058
LLC RFO       ACCESS:          8  HIT:          0  MISS:          8
LLC PREFETCH  ACCESS:          0  HIT:          0  MISS:          0
LLC WRITEBACK ACCESS:     465007  HIT:     350039  MISS:     114968
Heartbeat CPU 0 instructions: 92000000 cycles: 96485100 heartbeat IPC: 0.763547 cumulative IPC: 0.517856 (Simulation time: 1 hr 35 min 45 sec) 

Region of Interest Statistics
cpu0_DTLB TOTAL     ACCESS:    6772571  HIT:    6755907  MISS:      16664
cpu0_DTLB LOAD      ACCESS:    6041298  HIT:    6029494  MISS:      11804
cpu0_DTLB RFO       ACCESS:     731273  HIT:     726413  MISS:       4860
cpu0_DTLB PREFETCH  ACCESS:          0  HIT:          0  MISS:          0
cpu0_DTLB WRITEBACK ACCESS:          0  HIT:          0  MISS:          0
cpu0_ITLB TOTAL     ACCESS:    2569165  HIT:    2569165  MISS:          0
cpu0_ITLB LOAD      ACCESS:    2569165  HIT:    2569165  MISS:          0
cpu0_ITLB RFO       ACCESS:          0  HIT:          0  MISS:          0
cpu0_ITLB PREFETCH  ACCESS:          0  HIT:          0  MISS:          0
cpu0_ITLB WRITEBACK ACCESS:          0  HIT:          0  MISS:          0
cpu0_L1I TOTAL     ACCESS:         10  HIT:          4  MISS:          6
cpu0_L1I LOAD      ACCESS:         10  HIT:          4  MISS:          6
cpu0_L1I RFO       ACCESS:          0  HIT:          0  MISS:          0
cpu0_L1I PREFETCH  ACCESS:          0  HIT:          0  MISS:          0
cpu0_L1I WRITEBACK ACCESS:          0  HIT:          0  MISS:          0
cpu0_STLB TOTAL     ACCESS:      16664  HIT:          0  MISS:      16664
cpu0_STLB LOAD      ACCESS:      11804  HIT:          0  MISS:      11804
cpu0_STLB RFO       ACCESS:       4860  HIT:          0  MISS:       4860
cpu0_STLB PREFETCH  ACCESS:          0  HIT:          0  MISS:          0
cpu0_STLB WRITEBACK ACCESS:          0  HIT:          0  MISS:          0
cpu0_L1D TOTAL     ACCESS:    5138068  HIT:    4071781  MISS:    1066287
cpu0_L1D LOAD      ACCESS:    3674892  HIT:    2608621  MISS:    1066271
cpu0_L1D RFO       ACCESS:    1446512  HIT:    1446504  MISS:          8
cpu0_L1D PREFETCH  ACCESS:          0  HIT:          0  MISS:          0
cpu0_L1D WRITEBACK ACCESS:          0  HIT:          0  MISS:          0
cpu0_L2C TOTAL     ACCESS:    1529902  HIT:     463609  MISS:    1066293
cpu0_L2C LOAD      ACCESS:    1066277  HIT:          0  MISS:    1066277
cpu0_L2C RFO       ACCESS:          8  HIT:          0  MISS:          8
cpu0_L2C PREFETCH  ACCESS:          0  HIT:          0  MISS:          0
cpu0_L2C WRITEBACK ACCESS:     463609  HIT:     463609  MISS:          0
LLC TOTAL     ACCESS:    1536518  HIT:     355257  MISS:    1181261
LLC LOAD      ACCESS:    1066277  HIT:          0  MISS:    1066277
LLC RFO       ACCESS:          8  HIT:          0  MISS:          8
LLC PREFETCH  ACCESS:          0  HIT:          0  MISS:          0
LLC WRITEBACK ACCESS:     470225  HIT:     355257  MISS:     114968
Heartbeat CPU 0 instructions: 94000001 cycles: 99108004 heartbeat IPC: 0.762514 cumulative IPC: 0.525521 (Simulation time: 1 hr 37 min 39 sec) 

Region of Interest Statistics
cpu0_DTLB TOTAL     ACCESS:    7082841  HIT:    7065470  MISS:      17371
cpu0_DTLB LOAD      ACCESS:    6346382  HIT:    6333871  MISS:      12511
cpu0_DTLB RFO       ACCESS:     736459  HIT:     731599  MISS:       4860
cpu0_DTLB PREFETCH  ACCESS:          0  HIT:          0  MISS:          0
cpu0_DTLB WRITEBACK ACCESS:          0  HIT:          0  MISS:          0
cpu0_ITLB TOTAL     ACCESS:    2716964  HIT:    2716964  MISS:          0
cpu0_ITLB LOAD      ACCESS:    2716964  HIT:    2716964  MISS:          0
cpu0_ITLB RFO       ACCESS:          0  HIT:          0  MISS:          0
cpu0_ITLB PREFETCH  ACCESS:          0  HIT:          0  MISS:          0
cpu0_ITLB WRITEBACK ACCESS:          0  HIT:          0  MISS:          0
cpu0_L1I TOTAL     ACCESS:         10  HIT:          4  MISS:          6
cpu0_L1I LOAD      ACCESS:         10  HIT:          4  MISS:          6
cpu0_L1I RFO       ACCESS:          0  HIT:          0  MISS:          0
cpu0_L1I PREFETCH  ACCESS:          0  HIT:          0  MISS:          0
cpu0_L1I WRITEBACK ACCESS:          0  HIT:          0  MISS:          0
cpu0_STLB TOTAL     ACCESS:      17371  HIT:          0  MISS:      17371
cpu0_STLB LOAD      ACCESS:      12511  HIT:          0  MISS:      12511
cpu0_STLB RFO       ACCESS:       4860  HIT:          0  MISS:       4860
cpu0_STLB PREFETCH  ACCESS:          0  HIT:          0  MISS:          0
cpu0_STLB WRITEBACK ACCESS:          0  HIT:          0  MISS:          0
cpu0_L1D TOTAL     ACCESS:    5303131  HIT:    4191625  MISS:    1111506
cpu0_L1D LOAD      ACCESS:    3834062  HIT:    2722573  MISS:    1111489
cpu0_L1D RFO       ACCESS:    1451698  HIT:    1451690  MISS:          8
cpu0_L1D PREFETCH  ACCESS:          0  HIT:          0  MISS:          0
cpu0_L1D WRITEBACK ACCESS:          0  HIT:          0  MISS:          0
cpu0_L2C TOTAL     ACCESS:    1580269  HIT:     468757  MISS:    1111512
cpu0_L2C LOAD      ACCESS:    1111495  HIT:          0  MISS:    1111495
cpu0_L2C RFO       ACCESS:          8  HIT:          0  MISS:          8
cpu0_L2C PREFETCH  ACCESS:          0  HIT:          0  MISS:          0
cpu0_L2C WRITEBACK ACCESS:     468757  HIT:     468757  MISS:          0
LLC TOTAL     ACCESS:    1586850  HIT:     360370  MISS:    1226480
LLC LOAD      ACCESS:    1111495  HIT:          0  MISS:    1111495
LLC RFO       ACCESS:          8  HIT:          0  MISS:          8
LLC PREFETCH  ACCESS:          0  HIT:          0  MISS:          0
LLC WRITEBACK ACCESS:     475338  HIT:     360370  MISS:     114968
Heartbeat CPU 0 instructions: 96000001 cycles: 101718596 heartbeat IPC: 0.76611 cumulative IPC: 0.532796 (Simulation time: 1 hr 39 min 34 sec) 

Region of Interest Statistics
cpu0_DTLB TOTAL     ACCESS:    7393293  HIT:    7375216  MISS:      18077
cpu0_DTLB LOAD      ACCESS:    6651649  HIT:    6638432  MISS:      13217
cpu0_DTLB RFO       ACCESS:     741644  HIT:     736784  MISS:       4860
cpu0_DTLB PREFETCH  ACCESS:          0  HIT:          0  MISS:          0
cpu0_DTLB WRITEBACK ACCESS:          0  HIT:          0  MISS:          0
cpu0_ITLB TOTAL     ACCESS:    2864765  HIT:    2864765  MISS:          0
cpu0_ITLB LOAD      ACCESS:    2864765  HIT:    2864765  MISS:          0
cpu0_ITLB RFO       ACCESS:          0  HIT:          0  MISS:          0
cpu0_ITLB PREFETCH  ACCESS:          0  HIT:          0  MISS:          0
cpu0_ITLB WRITEBACK ACCESS:          0  HIT:          0  MISS:          0
cpu0_L1I TOTAL     ACCESS:         10  HIT:          4  MISS:          6
cpu0_L1I LOAD      ACCESS:         10  HIT:          4  MISS:          6
cpu0_L1I RFO       ACCESS:          0  HIT:          0  MISS:          0
cpu0_L1I PREFETCH  ACCESS:          0  HIT:          0  MISS:          0
cpu0_L1I WRITEBACK ACCESS:          0  HIT:          0  MISS:          0
cpu0_STLB TOTAL     ACCESS:      18077  HIT:          0  MISS:      18077
cpu0_STLB LOAD      ACCESS:      13217  HIT:          0  MISS:      13217
cpu0_STLB RFO       ACCESS:       4860  HIT:          0  MISS:       4860
cpu0_STLB PREFETCH  ACCESS:          0  HIT:          0  MISS:          0
cpu0_STLB WRITEBACK ACCESS:          0  HIT:          0  MISS:          0
cpu0_L1D TOTAL     ACCESS:    5468193  HIT:    4311468  MISS:    1156725
cpu0_L1D LOAD      ACCESS:    3993233  HIT:    2836525  MISS:    1156708
cpu0_L1D RFO       ACCESS:    1456883  HIT:    1456875  MISS:          8
cpu0_L1D PREFETCH  ACCESS:          0  HIT:          0  MISS:          0
cpu0_L1D WRITEBACK ACCESS:          0  HIT:          0  MISS:          0
cpu0_L2C TOTAL     ACCESS:    1630659  HIT:     473928  MISS:    1156731
cpu0_L2C LOAD      ACCESS:    1156714  HIT:          0  MISS:    1156714
cpu0_L2C RFO       ACCESS:          8  HIT:          0  MISS:          8
cpu0_L2C PREFETCH  ACCESS:          0  HIT:          0  MISS:          0
cpu0_L2C WRITEBACK ACCESS:     473928  HIT:     473928  MISS:          0
LLC TOTAL     ACCESS:    1637283  HIT:     365584  MISS:    1271699
LLC LOAD      ACCESS:    1156714  HIT:          0  MISS:    1156714
LLC RFO       ACCESS:          8  HIT:          0  MISS:          8
LLC PREFETCH  ACCESS:          0  HIT:          0  MISS:          0
LLC WRITEBACK ACCESS:     480552  HIT:     365584  MISS:     114968
Heartbeat CPU 0 instructions: 98000001 cycles: 104339494 heartbeat IPC: 0.763097 cumulative IPC: 0.539581 (Simulation time: 1 hr 41 min 30 sec) 

Region of Interest Statistics
cpu0_DTLB TOTAL     ACCESS:    7703656  HIT:    7684872  MISS:      18784
cpu0_DTLB LOAD      ACCESS:    6956829  HIT:    6942905  MISS:      13924
cpu0_DTLB RFO       ACCESS:     746827  HIT:     741967  MISS:       4860
cpu0_DTLB PREFETCH  ACCESS:          0  HIT:          0  MISS:          0
cpu0_DTLB WRITEBACK ACCESS:          0  HIT:          0  MISS:          0
cpu0_ITLB TOTAL     ACCESS:    3013190  HIT:    3013190  MISS:          0
cpu0_ITLB LOAD      ACCESS:    3013190  HIT:    3013190  MISS:          0
cpu0_ITLB RFO       ACCESS:          0  HIT:          0  MISS:          0
cpu0_ITLB PREFETCH  ACCESS:          0  HIT:          0  MISS:          0
cpu0_ITLB WRITEBACK ACCESS:          0  HIT:          0  MISS:          0
cpu0_L1I TOTAL     ACCESS:         10  HIT:          4  MISS:          6
cpu0_L1I LOAD      ACCESS:         10  HIT:          4  MISS:          6
cpu0_L1I RFO       ACCESS:          0  HIT:          0  MISS:          0
cpu0_L1I PREFETCH  ACCESS:          0  HIT:          0  MISS:          0
cpu0_L1I WRITEBACK ACCESS:          0  HIT:          0  MISS:          0
cpu0_STLB TOTAL     ACCESS:      18784  HIT:          0  MISS:      18784
cpu0_STLB LOAD      ACCESS:      13924  HIT:          0  MISS:      13924
cpu0_STLB RFO       ACCESS:       4860  HIT:          0  MISS:       4860
cpu0_STLB PREFETCH  ACCESS:          0  HIT:          0  MISS:          0
cpu0_STLB WRITEBACK ACCESS:          0  HIT:          0  MISS:          0
cpu0_L1D TOTAL     ACCESS:    5633286  HIT:    4431342  MISS:    1201944
cpu0_L1D LOAD      ACCESS:    4152436  HIT:    2950509  MISS:    1201927
cpu0_L1D RFO       ACCESS:    1462066  HIT:    1462058  MISS:          8
cpu0_L1D PREFETCH  ACCESS:          0  HIT:          0  MISS:          0
cpu0_L1D WRITEBACK ACCESS:          0  HIT:          0  MISS:          0
cpu0_L2C TOTAL     ACCESS:    1681064  HIT:     479114  MISS:    1201950
cpu0_L2C LOAD      ACCESS:    1201933  HIT:          0  MISS:    1201933
cpu0_L2C RFO       ACCESS:          8  HIT:          0  MISS:          8
cpu0_L2C PREFETCH  ACCESS:          0  HIT:          0  MISS:          0
cpu0_L2C WRITEBACK ACCESS:     479114  HIT:     479114  MISS:          0
LLC TOTAL     ACCESS:    1687665  HIT:     370747  MISS:    1316918
LLC LOAD      ACCESS:    1201933  HIT:          0  MISS:    1201933
LLC RFO       ACCESS:          8  HIT:          0  MISS:          8
LLC PREFETCH  ACCESS:          0  HIT:          0  MISS:          0
LLC WRITEBACK ACCESS:     485715  HIT:     370747  MISS:     114968
Heartbeat CPU 0 instructions: 100000001 cycles: 106944049 heartbeat IPC: 0.767886 cumulative IPC: 0.546075 (Simulation time: 1 hr 43 min 27 sec) 

Region of Interest Statistics
cpu0_DTLB TOTAL     ACCESS:    8013984  HIT:    7994494  MISS:      19490
cpu0_DTLB LOAD      ACCESS:    7262009  HIT:    7247379  MISS:      14630
cpu0_DTLB RFO       ACCESS:     751975  HIT:     747115  MISS:       4860
cpu0_DTLB PREFETCH  ACCESS:          0  HIT:          0  MISS:          0
cpu0_DTLB WRITEBACK ACCESS:          0  HIT:          0  MISS:          0
cpu0_ITLB TOTAL     ACCESS:    3160085  HIT:    3160085  MISS:          0
cpu0_ITLB LOAD      ACCESS:    3160085  HIT:    3160085  MISS:          0
cpu0_ITLB RFO       ACCESS:          0  HIT:          0  MISS:          0
cpu0_ITLB PREFETCH  ACCESS:          0  HIT:          0  MISS:          0
cpu0_ITLB WRITEBACK ACCESS:          0  HIT:          0  MISS:          0
cpu0_L1I TOTAL     ACCESS:         10  HIT:          4  MISS:          6
cpu0_L1I LOAD      ACCESS:         10  HIT:          4  MISS:          6
cpu0_L1I RFO       ACCESS:          0  HIT:          0  MISS:          0
cpu0_L1I PREFETCH  ACCESS:          0  HIT:          0  MISS:          0
cpu0_L1I WRITEBACK ACCESS:          0  HIT:          0  MISS:          0
cpu0_STLB TOTAL     ACCESS:      19490  HIT:          0  MISS:      19490
cpu0_STLB LOAD      ACCESS:      14630  HIT:          0  MISS:      14630
cpu0_STLB RFO       ACCESS:       4860  HIT:          0  MISS:       4860
cpu0_STLB PREFETCH  ACCESS:          0  HIT:          0  MISS:          0
cpu0_STLB WRITEBACK ACCESS:          0  HIT:          0  MISS:          0
cpu0_L1D TOTAL     ACCESS:    5798272  HIT:    4551107  MISS:    1247165
cpu0_L1D LOAD      ACCESS:    4311568  HIT:    3064420  MISS:    1247148
cpu0_L1D RFO       ACCESS:    1467214  HIT:    1467206  MISS:          8
cpu0_L1D PREFETCH  ACCESS:          0  HIT:          0  MISS:          0
cpu0_L1D WRITEBACK ACCESS:          0  HIT:          0  MISS:          0
cpu0_L2C TOTAL     ACCESS:    1731470  HIT:     484299  MISS:    1247171
cpu0_L2C LOAD      ACCESS:    1247154  HIT:          0  MISS:    1247154
cpu0_L2C RFO       ACCESS:          8  HIT:          0  MISS:          8
cpu0_L2C PREFETCH  ACCESS:          0  HIT:          0  MISS:          0
cpu0_L2C WRITEBACK ACCESS:     484299  HIT:     484299  MISS:          0
LLC TOTAL     ACCESS:    1738039  HIT:     375900  MISS:    1362139
LLC LOAD      ACCESS:    1247154  HIT:          0  MISS:    1247154
LLC RFO       ACCESS:          8  HIT:          0  MISS:          8
LLC PREFETCH  ACCESS:          0  HIT:          0  MISS:          0
LLC WRITEBACK ACCESS:     490868  HIT:     375900  MISS:     114968
Heartbeat CPU 0 instructions: 102000002 cycles: 109554300 heartbeat IPC: 0.76621 cumulative IPC: 0.552177 (Simulation time: 1 hr 45 min 23 sec) 

Region of Interest Statistics
cpu0_DTLB TOTAL     ACCESS:    8324046  HIT:    8303849  MISS:      20197
cpu0_DTLB LOAD      ACCESS:    7566923  HIT:    7551586  MISS:      15337
cpu0_DTLB RFO       ACCESS:     757123  HIT:     752263  MISS:       4860
cpu0_DTLB PREFETCH  ACCESS:          0  HIT:          0  MISS:          0
cpu0_DTLB WRITEBACK ACCESS:          0  HIT:          0  MISS:          0
cpu0_ITLB TOTAL     ACCESS:    3307527  HIT:    3307527  MISS:          0
cpu0_ITLB LOAD      ACCESS:    3307527  HIT:    3307527  MISS:          0
cpu0_ITLB RFO       ACCESS:          0  HIT:          0  MISS:          0
cpu0_ITLB PREFETCH  ACCESS:          0  HIT:          0  MISS:          0
cpu0_ITLB WRITEBACK ACCESS:          0  HIT:          0  MISS:          0
cpu0_L1I TOTAL     ACCESS:         10  HIT:          4  MISS:          6
cpu0_L1I LOAD      ACCESS:         10  HIT:          4  MISS:          6
cpu0_L1I RFO       ACCESS:          0  HIT:          0  MISS:          0
cpu0_L1I PREFETCH  ACCESS:          0  HIT:          0  MISS:          0
cpu0_L1I WRITEBACK ACCESS:          0  HIT:          0  MISS:          0
cpu0_STLB TOTAL     ACCESS:      20197  HIT:          0  MISS:      20197
cpu0_STLB LOAD      ACCESS:      15337  HIT:          0  MISS:      15337
cpu0_STLB RFO       ACCESS:       4860  HIT:          0  MISS:       4860
cpu0_STLB PREFETCH  ACCESS:          0  HIT:          0  MISS:          0
cpu0_STLB WRITEBACK ACCESS:          0  HIT:          0  MISS:          0
cpu0_L1D TOTAL     ACCESS:    5963123  HIT:    4670737  MISS:    1292386
cpu0_L1D LOAD      ACCESS:    4470564  HIT:    3178195  MISS:    1292369
cpu0_L1D RFO       ACCESS:    1472362  HIT:    1472354  MISS:          8
cpu0_L1D PREFETCH  ACCESS:          0  HIT:          0  MISS:          0
cpu0_L1D WRITEBACK ACCESS:          0  HIT:          0  MISS:          0
cpu0_L2C TOTAL     ACCESS:    1781877  HIT:     489485  MISS:    1292392
cpu0_L2C LOAD      ACCESS:    1292375  HIT:          0  MISS:    1292375
cpu0_L2C RFO       ACCESS:          8  HIT:          0  MISS:          8
cpu0_L2C PREFETCH  ACCESS:          0  HIT:          0  MISS:          0
cpu0_L2C WRITEBACK ACCESS:     489485  HIT:     489485  MISS:          0
LLC TOTAL     ACCESS:    1788378  HIT:     381014  MISS:    1407364
LLC LOAD      ACCESS:    1292375  HIT:          0  MISS:    1292375
LLC RFO       ACCESS:          8  HIT:          0  MISS:          8
LLC PREFETCH  ACCESS:          0  HIT:          0  MISS:          0
LLC WRITEBACK ACCESS:     495986  HIT:     381014  MISS:     114972
Heartbeat CPU 0 instructions: 104000002 cycles: 112145360 heartbeat IPC: 0.771885 cumulative IPC: 0.55806 (Simulation time: 1 hr 47 min 14 sec) 

Region of Interest Statistics
cpu0_DTLB TOTAL     ACCESS:    8634304  HIT:    8613401  MISS:      20903
cpu0_DTLB LOAD      ACCESS:    7872033  HIT:    7855990  MISS:      16043
cpu0_DTLB RFO       ACCESS:     762271  HIT:     757411  MISS:       4860
cpu0_DTLB PREFETCH  ACCESS:          0  HIT:          0  MISS:          0
cpu0_DTLB WRITEBACK ACCESS:          0  HIT:          0  MISS:          0
cpu0_ITLB TOTAL     ACCESS:    3454419  HIT:    3454419  MISS:          0
cpu0_ITLB LOAD      ACCESS:    3454419  HIT:    3454419  MISS:          0
cpu0_ITLB RFO       ACCESS:          0  HIT:          0  MISS:          0
cpu0_ITLB PREFETCH  ACCESS:          0  HIT:          0  MISS:          0
cpu0_ITLB WRITEBACK ACCESS:          0  HIT:          0  MISS:          0
cpu0_L1I TOTAL     ACCESS:         10  HIT:          4  MISS:          6
cpu0_L1I LOAD      ACCESS:         10  HIT:          4  MISS:          6
cpu0_L1I RFO       ACCESS:          0  HIT:          0  MISS:          0
cpu0_L1I PREFETCH  ACCESS:          0  HIT:          0  MISS:          0
cpu0_L1I WRITEBACK ACCESS:          0  HIT:          0  MISS:          0
cpu0_STLB TOTAL     ACCESS:      20903  HIT:          0  MISS:      20903
cpu0_STLB LOAD      ACCESS:      16043  HIT:          0  MISS:      16043
cpu0_STLB RFO       ACCESS:       4860  HIT:          0  MISS:       4860
cpu0_STLB PREFETCH  ACCESS:          0  HIT:          0  MISS:          0
cpu0_STLB WRITEBACK ACCESS:          0  HIT:          0  MISS:          0
cpu0_L1D TOTAL     ACCESS:    6128108  HIT:    4790502  MISS:    1337606
cpu0_L1D LOAD      ACCESS:    4629695  HIT:    3292106  MISS:    1337589
cpu0_L1D RFO       ACCESS:    1477510  HIT:    1477502  MISS:          8
cpu0_L1D PREFETCH  ACCESS:          0  HIT:          0  MISS:          0
cpu0_L1D WRITEBACK ACCESS:          0  HIT:          0  MISS:          0
cpu0_L2C TOTAL     ACCESS:    1832282  HIT:     494670  MISS:    1337612
cpu0_L2C LOAD      ACCESS:    1337595  HIT:          0  MISS:    1337595
cpu0_L2C RFO       ACCESS:          8  HIT:          0  MISS:          8
cpu0_L2C PREFETCH  ACCESS:          0  HIT:          0  MISS:          0
cpu0_L2C WRITEBACK ACCESS:     494670  HIT:     494670  MISS:          0
LLC TOTAL     ACCESS:    1838832  HIT:     386248  MISS:    1452584
LLC LOAD      ACCESS:    1337595  HIT:          0  MISS:    1337595
LLC RFO       ACCESS:          8  HIT:          0  MISS:          8
LLC PREFETCH  ACCESS:          0  HIT:          0  MISS:          0
LLC WRITEBACK ACCESS:     501220  HIT:     386248  MISS:     114972
Heartbeat CPU 0 instructions: 106000003 cycles: 114931137 heartbeat IPC: 0.717933 cumulative IPC: 0.562534 (Simulation time: 1 hr 49 min 12 sec) 

Region of Interest Statistics
cpu0_DTLB TOTAL     ACCESS:    8946244  HIT:    8924633  MISS:      21611
cpu0_DTLB LOAD      ACCESS:    8177872  HIT:    8161121  MISS:      16751
cpu0_DTLB RFO       ACCESS:     768372  HIT:     763512  MISS:       4860
cpu0_DTLB PREFETCH  ACCESS:          0  HIT:          0  MISS:          0
cpu0_DTLB WRITEBACK ACCESS:          0  HIT:          0  MISS:          0
cpu0_ITLB TOTAL     ACCESS:    3602351  HIT:    3602351  MISS:          0
cpu0_ITLB LOAD      ACCESS:    3602351  HIT:    3602351  MISS:          0
cpu0_ITLB RFO       ACCESS:          0  HIT:          0  MISS:          0
cpu0_ITLB PREFETCH  ACCESS:          0  HIT:          0  MISS:          0
cpu0_ITLB WRITEBACK ACCESS:          0  HIT:          0  MISS:          0
cpu0_L1I TOTAL     ACCESS:         11  HIT:          4  MISS:          7
cpu0_L1I LOAD      ACCESS:         11  HIT:          4  MISS:          7
cpu0_L1I RFO       ACCESS:          0  HIT:          0  MISS:          0
cpu0_L1I PREFETCH  ACCESS:          0  HIT:          0  MISS:          0
cpu0_L1I WRITEBACK ACCESS:          0  HIT:          0  MISS:          0
cpu0_STLB TOTAL     ACCESS:      21611  HIT:          0  MISS:      21611
cpu0_STLB LOAD      ACCESS:      16751  HIT:          0  MISS:      16751
cpu0_STLB RFO       ACCESS:       4860  HIT:          0  MISS:       4860
cpu0_STLB PREFETCH  ACCESS:          0  HIT:          0  MISS:          0
cpu0_STLB WRITEBACK ACCESS:          0  HIT:          0  MISS:          0
cpu0_L1D TOTAL     ACCESS:    6295908  HIT:    4913116  MISS:    1382792
cpu0_L1D LOAD      ACCESS:    4790680  HIT:    3407912  MISS:    1382768
cpu0_L1D RFO       ACCESS:    1483617  HIT:    1483605  MISS:         12
cpu0_L1D PREFETCH  ACCESS:          0  HIT:          0  MISS:          0
cpu0_L1D WRITEBACK ACCESS:          0  HIT:          0  MISS:          0
cpu0_L2C TOTAL     ACCESS:    1883450  HIT:     500651  MISS:    1382799
cpu0_L2C LOAD      ACCESS:    1382775  HIT:          0  MISS:    1382775
cpu0_L2C RFO       ACCESS:         12  HIT:          0  MISS:         12
cpu0_L2C PREFETCH  ACCESS:          0  HIT:          0  MISS:          0
cpu0_L2C WRITEBACK ACCESS:     500651  HIT:     500651  MISS:          0
LLC TOTAL     ACCESS:    1889189  HIT:     391418  MISS:    1497771
LLC LOAD      ACCESS:    1382775  HIT:          0  MISS:    1382775
LLC RFO       ACCESS:         12  HIT:          0  MISS:         12
LLC PREFETCH  ACCESS:          0  HIT:          0  MISS:          0
LLC WRITEBACK ACCESS:     506390  HIT:     391418  MISS:     114972
Heartbeat CPU 0 instructions: 108000003 cycles: 118518003 heartbeat IPC: 0.55759 cumulative IPC: 0.562362 (Simulation time: 1 hr 51 min 12 sec) 

Region of Interest Statistics
cpu0_DTLB TOTAL     ACCESS:    9266358  HIT:    9244044  MISS:      22314
cpu0_DTLB LOAD      ACCESS:    8487646  HIT:    8470192  MISS:      17454
cpu0_DTLB RFO       ACCESS:     778712  HIT:     773852  MISS:       4860
cpu0_DTLB PREFETCH  ACCESS:          0  HIT:          0  MISS:          0
cpu0_DTLB WRITEBACK ACCESS:          0  HIT:          0  MISS:          0
cpu0_ITLB TOTAL     ACCESS:    3751452  HIT:    3751452  MISS:          0
cpu0_ITLB LOAD      ACCESS:    3751452  HIT:    3751452  MISS:          0
cpu0_ITLB RFO       ACCESS:          0  HIT:          0  MISS:          0
cpu0_ITLB PREFETCH  ACCESS:          0  HIT:          0  MISS:          0
cpu0_ITLB WRITEBACK ACCESS:          0  HIT:          0  MISS:          0
cpu0_L1I TOTAL     ACCESS:         11  HIT:          4  MISS:          7
cpu0_L1I LOAD      ACCESS:         11  HIT:          4  MISS:          7
[...]
cpu0_L1I RFO       ACCESS:          0  HIT:          0  MISS:          0
cpu0_L1I PREFETCH  ACCESS:          0  HIT:          0  MISS:          0
cpu0_L1I WRITEBACK ACCESS:          0  HIT:          0  MISS:          0
cpu0_STLB TOTAL     ACCESS:     566727  HIT:          0  MISS:     566727
cpu0_STLB LOAD      ACCESS:     506969  HIT:          0  MISS:     506969
cpu0_STLB RFO       ACCESS:      59758  HIT:          0  MISS:      59758
cpu0_STLB PREFETCH  ACCESS:          0  HIT:          0  MISS:          0
cpu0_STLB WRITEBACK ACCESS:          0  HIT:          0  MISS:          0
cpu0_L1D TOTAL     ACCESS:  160301141  HIT:  124038600  MISS:   36262541
cpu0_L1D LOAD      ACCESS:  133287223  HIT:   97025223  MISS:   36262000
cpu0_L1D RFO       ACCESS:   26447191  HIT:   26446927  MISS:        264
cpu0_L1D PREFETCH  ACCESS:          0  HIT:          0  MISS:          0
cpu0_L1D WRITEBACK ACCESS:          0  HIT:          0  MISS:          0
cpu0_L2C TOTAL     ACCESS:   47579540  HIT:   11316966  MISS:   36262574
cpu0_L2C LOAD      ACCESS:   36262033  HIT:          0  MISS:   36262033
cpu0_L2C RFO       ACCESS:        264  HIT:          0  MISS:        264
cpu0_L2C PREFETCH  ACCESS:          0  HIT:          0  MISS:          0
cpu0_L2C WRITEBACK ACCESS:   11316966  HIT:   11316966  MISS:          0
LLC TOTAL     ACCESS:   47585892  HIT:    9781588  MISS:   37804304
LLC LOAD      ACCESS:   36262033  HIT:          0  MISS:   36262033
LLC RFO       ACCESS:        264  HIT:          0  MISS:        264
LLC PREFETCH  ACCESS:          0  HIT:          0  MISS:          0
LLC WRITEBACK ACCESS:   11323318  HIT:    9781588  MISS:    1541730
Heartbeat CPU 0 instructions: 1550000001 cycles: 3253798628 heartbeat IPC: 0.741557 cumulative IPC: 0.463189 (Simulation time: 21 hr 48 min 22 sec) 

Region of Interest Statistics
cpu0_DTLB TOTAL     ACCESS:  244632545  HIT:  244065112  MISS:     567433
cpu0_DTLB LOAD      ACCESS:  227909837  HIT:  227402162  MISS:     507675
cpu0_DTLB RFO       ACCESS:   16722708  HIT:   16662950  MISS:      59758
cpu0_DTLB PREFETCH  ACCESS:          0  HIT:          0  MISS:          0
cpu0_DTLB WRITEBACK ACCESS:          0  HIT:          0  MISS:          0
cpu0_ITLB TOTAL     ACCESS:  100543233  HIT:  100543233  MISS:          0
cpu0_ITLB LOAD      ACCESS:  100543233  HIT:  100543233  MISS:          0
cpu0_ITLB RFO       ACCESS:          0  HIT:          0  MISS:          0
cpu0_ITLB PREFETCH  ACCESS:          0  HIT:          0  MISS:          0
cpu0_ITLB WRITEBACK ACCESS:          0  HIT:          0  MISS:          0
cpu0_L1I TOTAL     ACCESS:         75  HIT:         42  MISS:         33
cpu0_L1I LOAD      ACCESS:         75  HIT:         42  MISS:         33
cpu0_L1I RFO       ACCESS:          0  HIT:          0  MISS:          0
cpu0_L1I PREFETCH  ACCESS:          0  HIT:          0  MISS:          0
cpu0_L1I WRITEBACK ACCESS:          0  HIT:          0  MISS:          0
cpu0_STLB TOTAL     ACCESS:     567433  HIT:          0  MISS:     567433
cpu0_STLB LOAD      ACCESS:     507675  HIT:          0  MISS:     507675
cpu0_STLB RFO       ACCESS:      59758  HIT:          0  MISS:      59758
cpu0_STLB PREFETCH  ACCESS:          0  HIT:          0  MISS:          0
cpu0_STLB WRITEBACK ACCESS:          0  HIT:          0  MISS:          0
cpu0_L1D TOTAL     ACCESS:  160470457  HIT:  124162756  MISS:   36307701
cpu0_L1D LOAD      ACCESS:  133449387  HIT:   97142227  MISS:   36307160
cpu0_L1D RFO       ACCESS:   26453637  HIT:   26453373  MISS:        264
cpu0_L1D PREFETCH  ACCESS:          0  HIT:          0  MISS:          0
cpu0_L1D WRITEBACK ACCESS:          0  HIT:          0  MISS:          0
cpu0_L2C TOTAL     ACCESS:   47631177  HIT:   11323443  MISS:   36307734
cpu0_L2C LOAD      ACCESS:   36307193  HIT:          0  MISS:   36307193
cpu0_L2C RFO       ACCESS:        264  HIT:          0  MISS:        264
cpu0_L2C PREFETCH  ACCESS:          0  HIT:          0  MISS:          0
cpu0_L2C WRITEBACK ACCESS:   11323443  HIT:   11323443  MISS:          0
LLC TOTAL     ACCESS:   47637518  HIT:    9788052  MISS:   37849466
LLC LOAD      ACCESS:   36307193  HIT:          0  MISS:   36307193
LLC RFO       ACCESS:        264  HIT:          0  MISS:        264
LLC PREFETCH  ACCESS:          0  HIT:          0  MISS:          0
LLC WRITEBACK ACCESS:   11329784  HIT:    9788052  MISS:    1541732
Finished CPU 0 instructions: 1500000000 cycles: 3238417092 cumulative IPC: 0.463189 (Simulation time: 21 hr 48 min 22 sec) 

ChampSim completed all CPUs

Region of Interest Statistics

CPU 0 cumulative IPC: 0.463189 instructions: 1500000000 cycles: 3238417092
cpu0_DTLB TOTAL     ACCESS:  244632545  HIT:  244065112  MISS:     567433
cpu0_DTLB LOAD      ACCESS:  227909837  HIT:  227402162  MISS:     507675
cpu0_DTLB RFO       ACCESS:   16722708  HIT:   16662950  MISS:      59758
cpu0_DTLB PREFETCH  ACCESS:          0  HIT:          0  MISS:          0
cpu0_DTLB WRITEBACK ACCESS:          0  HIT:          0  MISS:          0
cpu0_DTLB TRANSLATION ACCESS:          0  HIT:          0  MISS:          0
cpu0_DTLB PREFETCH  REQUESTED:          0  ISSUED:          0  USEFUL:          0  USELESS:          0
cpu0_DTLB AVERAGE MISS LATENCY: 17.1561 cycles
cpu0_ITLB TOTAL     ACCESS:  100543233  HIT:  100543233  MISS:          0
cpu0_ITLB LOAD      ACCESS:  100543233  HIT:  100543233  MISS:          0
cpu0_ITLB RFO       ACCESS:          0  HIT:          0  MISS:          0
cpu0_ITLB PREFETCH  ACCESS:          0  HIT:          0  MISS:          0
cpu0_ITLB WRITEBACK ACCESS:          0  HIT:          0  MISS:          0
cpu0_ITLB TRANSLATION ACCESS:          0  HIT:          0  MISS:          0
cpu0_ITLB PREFETCH  REQUESTED:          0  ISSUED:          0  USEFUL:          0  USELESS:          0
cpu0_ITLB AVERAGE MISS LATENCY: -nan cycles
cpu0_L1I TOTAL     ACCESS:         75  HIT:         42  MISS:         33
cpu0_L1I LOAD      ACCESS:         75  HIT:         42  MISS:         33
cpu0_L1I RFO       ACCESS:          0  HIT:          0  MISS:          0
cpu0_L1I PREFETCH  ACCESS:          0  HIT:          0  MISS:          0
cpu0_L1I WRITEBACK ACCESS:          0  HIT:          0  MISS:          0
cpu0_L1I TRANSLATION ACCESS:          0  HIT:          0  MISS:          0
cpu0_L1I PREFETCH  REQUESTED:          0  ISSUED:          0  USEFUL:          0  USELESS:          0
cpu0_L1I AVERAGE MISS LATENCY: 283.515 cycles
cpu0_STLB TOTAL     ACCESS:     567433  HIT:          0  MISS:     567433
cpu0_STLB LOAD      ACCESS:     507675  HIT:          0  MISS:     507675
cpu0_STLB RFO       ACCESS:      59758  HIT:          0  MISS:      59758
cpu0_STLB PREFETCH  ACCESS:          0  HIT:          0  MISS:          0
cpu0_STLB WRITEBACK ACCESS:          0  HIT:          0  MISS:          0
cpu0_STLB TRANSLATION ACCESS:          0  HIT:          0  MISS:          0
cpu0_STLB PREFETCH  REQUESTED:          0  ISSUED:          0  USEFUL:          0  USELESS:          0
cpu0_STLB AVERAGE MISS LATENCY: 8.15614 cycles
cpu0_L1D TOTAL     ACCESS:  160470457  HIT:  124162756  MISS:   36307701
cpu0_L1D LOAD      ACCESS:  133449387  HIT:   97142227  MISS:   36307160
cpu0_L1D RFO       ACCESS:   26453637  HIT:   26453373  MISS:        264
cpu0_L1D PREFETCH  ACCESS:          0  HIT:          0  MISS:          0
cpu0_L1D WRITEBACK ACCESS:          0  HIT:          0  MISS:          0
cpu0_L1D TRANSLATION ACCESS:     567433  HIT:     567156  MISS:        277
cpu0_L1D PREFETCH  REQUESTED:          0  ISSUED:          0  USEFUL:          0  USELESS:          0
cpu0_L1D AVERAGE MISS LATENCY: 283.203 cycles
cpu0_L2C TOTAL     ACCESS:   47631177  HIT:   11323443  MISS:   36307734
cpu0_L2C LOAD      ACCESS:   36307193  HIT:          0  MISS:   36307193
cpu0_L2C RFO       ACCESS:        264  HIT:          0  MISS:        264
cpu0_L2C PREFETCH  ACCESS:          0  HIT:          0  MISS:          0
cpu0_L2C WRITEBACK ACCESS:   11323443  HIT:   11323443  MISS:          0
cpu0_L2C TRANSLATION ACCESS:        277  HIT:          0  MISS:        277
cpu0_L2C PREFETCH  REQUESTED:          0  ISSUED:          0  USEFUL:          0  USELESS:          0
cpu0_L2C AVERAGE MISS LATENCY: 272.202 cycles
LLC TOTAL     ACCESS:   47637518  HIT:    9788052  MISS:   37849466
LLC LOAD      ACCESS:   36307193  HIT:          0  MISS:   36307193
LLC RFO       ACCESS:        264  HIT:          0  MISS:        264
LLC PREFETCH  ACCESS:          0  HIT:          0  MISS:          0
LLC WRITEBACK ACCESS:   11329784  HIT:    9788052  MISS:    1541732
LLC TRANSLATION ACCESS:        277  HIT:          0  MISS:        277
LLC PREFETCH  REQUESTED:          0  ISSUED:          0  USEFUL:          0  USELESS:          0
LLC AVERAGE MISS LATENCY: 240.969 cycles
~~~~~~~~~~Reuse Distance Profiler output~~~~~~~~~~
0	61870848	51210288
1	44229600	30960176
2	17259712	15224224
3	2881680	2518352
4	2439744	2295840
5	1284064	1224464
6	726288	557952
7	496128	362416
8	270448	233440
9	149824	125936
10	52976	47488
11	65760	23584
12	63232	14192
13	55488	6176
14	26592	5584
15	32512	17360
16	26048	1120
17	32576	1456
18	27264	224
19	80656	48
20	24960	160
21	11152	48
22	14608	80
23	24240	80
24	15552	48
25	24688	32
26	50832	64
27	10480	32
28	11424	112
29	12704	400
30	11904	160
31	11872	64
32	11136	32
33	26656	48
34	7696	64
35	7696	16
36	9632	432
37	8608	80
38	8544	96
39	10336	32
40	7232	0
41	5472	32
42	6896	0
43	7024	0
44	9136	0
45	8352	0
46	8864	0
47	8640	0
48	6464	0
49	6032	0
50	6960	0
51	6368	0
52	5904	0
53	5648	0
54	4624	0
55	4448	0
56	5952	0
57	3744	0
58	3216	0
59	2992	0
60	2560	0
61	1744	0
62	1328	0
63	1456	0
64	2144	0
66	928	0
68	576	0
70	144	0
72	0	0
74	0	0
76	0	0
78	0	0
80	0	0
82	0	0
84	0	0
86	0	0
88	0	0
90	0	0
92	0	0
94	0	0
96	0	0
98	0	0
100	0	0
102	0	0
104	0	0
106	0	0
108	0	0
110	0	0
112	0	0
114	0	0
116	0	0
118	0	0
120	0	0
122	0	0
124	0	0
126	0	0
128	0	0
132	0	0
136	0	0
140	0	0
144	0	0
148	0	0
152	0	0
156	0	0
160	0	0
164	0	0
168	0	0
172	0	0
176	0	0
180	0	0
184	0	0
188	0	0
192	0	0
196	0	0
200	0	0
204	0	0
208	0	0
212	0	0
216	0	0
220	0	0
224	0	0
228	0	0
232	0	0
236	0	0
240	0	0
244	0	0
248	0	0
252	0	0
256	0	0
264	0	0
272	0	0
280	0	0
288	0	0
296	0	0
304	0	0
312	0	0
320	0	0
328	0	0
336	0	0
344	0	0
352	0	0
360	0	0
368	0	0
376	0	0
384	0	0
392	0	0
400	0	0
408	0	0
416	0	0
424	0	0
432	0	0
440	0	0
448	0	0
456	0	0
464	0	0
472	0	0
480	0	0
488	0	0
496	0	0
504	0	0
512	0	0
528	0	0
544	0	0
560	0	0
576	0	0
592	0	0
608	0	0
624	0	0
640	0	0
656	0	0
672	0	0
688	0	0
704	0	0
720	0	0
736	0	0
752	0	0
768	0	0
784	0	0
800	0	0
816	0	0
832	0	0
848	0	0
864	0	0
880	0	0
896	0	0
912	0	0
928	0	0
944	0	0
960	0	0
976	0	0
992	0	0
1008	0	0
1024	0	0
1056	0	0
1088	0	0
1120	0	0
1152	0	0
1184	0	0
1216	0	0
1248	0	0
1280	0	0
1312	0	0
1344	0	0
1376	0	0
1408	0	0
1440	0	0
1472	0	0
1504	0	0
1536	0	0
1568	0	0
1600	0	0
1632	0	0
1664	0	0
1696	0	0
1728	0	0
1760	0	0
1792	0	0
1824	0	0
1856	0	0
1888	0	0
1920	0	0
1952	0	0
1984	0	0
2016	0	0
2048	0	0
2112	0	0
2176	0	0
2240	0	0
2304	0	0
2368	0	0
2432	0	0
2496	0	0
2560	0	0
2624	0	0
2688	0	0
2752	0	0
2816	0	0
2880	0	0
2944	0	0
3008	0	0
3072	0	0
3136	0	0
3200	0	0
3264	0	0
3328	0	0
3392	0	0
3456	0	0
3520	0	0
3584	0	0
3648	0	0
3712	0	0
3776	0	0
3840	0	0
3904	0	0
3968	0	0
4032	0	0
4096	0	0
4224	0	0
4352	0	0
4480	0	0
4608	0	0
4736	0	0
4864	0	0
4992	0	0
5120	0	0
5248	0	0
5376	0	0
5504	0	0
5632	0	0
5760	0	0
5888	0	0
6016	0	0
6144	0	0
6272	0	0
6400	0	0
6528	0	0
6656	0	0
6784	0	0
6912	0	0
7040	0	0
7168	0	0
7296	0	0
7424	0	0
7552	0	0
7680	0	0
7808	0	0
7936	0	0
8064	0	0
8192	0	0
8448	0	0
8704	0	0
8960	0	0
9216	0	0
9472	0	0
9728	0	0
9984	0	0
10240	0	0
10496	0	0
10752	0	0
11008	0	0
11264	0	0
11520	0	0
11776	0	0
12032	0	0
12288	0	0
12544	0	0
12800	0	0
13056	0	0
13312	0	0
13568	0	0
13824	0	0
14080	0	0
14336	0	0
14592	0	0
14848	0	0
15104	0	0
15360	0	0
15616	0	0
15872	0	0
16128	0	0
16384	0	0
16896	0	0
17408	0	0
17920	0	0
18432	0	0
18944	0	0
19456	0	0
19968	0	0
20480	0	0
20992	0	0
21504	0	0
22016	0	0
22528	0	0
23040	0	0
23552	0	0
24064	0	0
24576	0	0
25088	0	0
25600	0	0
26112	0	0
26624	0	0
27136	0	0
27648	0	0
28160	0	0
28672	0	0
29184	0	0
29696	0	0
30208	0	0
30720	0	0
31232	0	0
31744	0	0
32256	0	0
32768	0	0
33792	0	0
34816	0	0
35840	0	0
36864	0	0
37888	0	0
38912	0	0
39936	0	0
40960	0	0
41984	0	0
43008	0	0
44032	0	0
45056	0	0
46080	0	0
47104	0	0
48128	0	0
49152	0	0
50176	0	0
51200	0	0
52224	0	0
53248	0	0
54272	0	0
55296	0	0
56320	0	0
57344	0	0
58368	0	0
59392	0	0
60416	0	0
61440	0	0
62464	0	0
63488	0	0
64512	0	0
65536	0	0
67584	0	0
69632	0	0
71680	0	0
73728	0	0
75776	0	0
77824	0	0
79872	0	0
81920	0	0
83968	0	0
86016	0	0
88064	0	0
90112	0	0
92160	0	0
94208	0	0
96256	0	0
98304	0	0
100352	0	0
102400	0	0
104448	0	0
106496	0	0
108544	0	0
110592	0	0
112640	0	0
114688	0	0
116736	0	0
118784	0	0
120832	0	0
122880	0	0
124928	0	0
126976	0	0
129024	0	0
131072	0	0
135168	0	0
139264	0	0
143360	0	0
147456	0	0
151552	0	0
155648	0	0
159744	0	0
163840	0	0
167936	0	0
172032	0	0
176128	0	0
180224	0	0
184320	0	0
188416	0	0
192512	0	0
196608	0	0
200704	0	0
204800	0	0
208896	0	0
212992	0	0
217088	0	0
221184	0	0
225280	0	0
229376	0	0
233472	0	0
237568	0	0
241664	0	0
245760	0	0
249856	0	0
253952	0	0
258048	0	0
262144	0	0
270336	0	0
278528	0	0
286720	0	0
294912	0	0
303104	0	0
311296	0	0
319488	0	0
327680	0	0
335872	0	0
344064	0	0
352256	0	0
360448	0	0
368640	0	0
376832	0	0
385024	0	0
393216	0	0
401408	0	0
409600	0	0
417792	0	0
425984	0	0
434176	0	0
442368	0	0
450560	0	0
458752	0	0
466944	0	0
475136	0	0
483328	0	0
491520	0	0
499712	0	0
507904	0	0
516096	0	0
524288	0	0
540672	0	0
557056	0	0
573440	0	0
589824	0	0
606208	0	0
622592	0	0
638976	0	0
655360	0	0
671744	0	0
688128	0	0
704512	0	0
720896	0	0
737280	0	0
753664	0	0
770048	0	0
786432	0	0
802816	0	0
819200	0	0
835584	0	0
851968	0	0
868352	0	0
884736	0	0
901120	0	0
917504	0	0
933888	0	0
950272	0	0
966656	0	0
983040	0	0
999424	0	0
1015808	0	0
1032192	0	0
1048576	0	0
1081344	0	0
1114112	0	0
1146880	0	0
1179648	0	0
1212416	0	0
1245184	0	0
1277952	0	0
1310720	0	0
1343488	0	0
1376256	0	0
1409024	0	0
1441792	0	0
1474560	0	0
1507328	0	0
1540096	0	0
1572864	0	0
1605632	0	0
1638400	0	0
1671168	0	0
1703936	0	0
1736704	0	0
1769472	0	0
1802240	0	0
1835008	0	0
1867776	235680	235680
1900544	735312	735296
1933312	1104864	1104848
1966080	1752272	1752256
1998848	2377984	2377984
2031616	2787168	2787136
2064384	5113808	5113664
2097152	6375904	6375888
2162688	3251232	3251200
2228224	1352400	1352384
2293760	1104304	1104304
2359296	1052560	1052560
2424832	1016480	1016480
2490368	897344	897328
2555904	634192	634192
2621440	545360	545360
2686976	487376	487360
2752512	396800	396800
2818048	398912	398912
2883584	399168	399168
2949120	400672	400672
3014656	394416	394416
3080192	382176	382176
3145728	383488	383488
3211264	386416	386416
3276800	386336	386336
3342336	387328	387328
3407872	378608	378608
3473408	383504	383504
3538944	387072	387072
3604480	28192	28160
3670016	9360	9360
3735552	9392	9392
3801088	33472	33456
3866624	518896	518896
3932160	53568	53552
3997696	28368	28368
4063232	28304	28304
4128768	27920	27920
4194304	56176	56176
4325376	98000	97984
4456448	248416	248400
4587520	81168	81168
4718592	0	0
4849664	0	0
4980736	0	0
5111808	0	0
5242880	0	0
5373952	0	0
5505024	0	0
5636096	16	0
5767168	16	0
5898240	0	0
6029312	0	0
6160384	0	0
6291456	0	0
6422528	0	0
6553600	0	0
6684672	0	0
6815744	0	0
6946816	0	0
7077888	0	0
7208960	0	0
7340032	0	0
7471104	0	0
7602176	0	0
7733248	0	0
7864320	0	0
7995392	0	0
8126464	0	0
8257536	0	0
8388608	0	0
8650752	0	0
8912896	0	0
9175040	0	0
9437184	0	0
9699328	0	0
9961472	0	0
10223616	0	0
10485760	0	0
10747904	0	0
11010048	0	0
11272192	0	0
11534336	0	0
11796480	16	16
12058624	0	0
12320768	0	0
12582912	0	0
12845056	0	0
13107200	0	0
13369344	0	0
13631488	0	0
13893632	0	0
14155776	0	0
14417920	0	0
14680064	0	0
14942208	0	0
15204352	0	0
15466496	0	0
15728640	0	0
15990784	0	0
16252928	0	0
16515072	0	0
16777216	0	0
17301504	0	0
17825792	0	0
18350080	0	0
18874368	0	0
19398656	0	0
19922944	0	0
20447232	0	0
20971520	0	0
21495808	0	0
22020096	0	0
22544384	0	0
23068672	0	0
23592960	0	0
24117248	0	0
24641536	0	0
25165824	0	0
25690112	0	0
26214400	0	0
26738688	0	0
27262976	0	0
27787264	0	0
28311552	0	0
28835840	0	0
29360128	0	0
29884416	0	0
30408704	0	0
30932992	0	0
31457280	0	0
31981568	0	0
32505856	0	0
33030144	0	0
33554432	0	0
34603008	0	0
35651584	0	0
36700160	0	0
37748736	0	0
38797312	0	0
39845888	0	0
40894464	0	0
41943040	0	0
42991616	0	0
44040192	0	0
45088768	0	0
46137344	0	0
47185920	0	0
48234496	0	0
49283072	0	0
50331648	0	0
51380224	0	0
52428800	0	0
53477376	0	0
54525952	0	0
55574528	0	0
56623104	0	0
57671680	0	0
58720256	0	0
59768832	0	0
60817408	0	0
61865984	0	0
62914560	0	0
63963136	0	0
65011712	0	0
66060288	0	0
67108864	0	0
69206016	0	0
71303168	0	0
73400320	0	0
75497472	0	0
77594624	0	0
79691776	0	0
81788928	0	0
83886080	0	0
85983232	0	0
88080384	0	0
90177536	0	0
92274688	0	0
94371840	0	0
96468992	0	0
98566144	0	0
100663296	0	0
102760448	0	0
104857600	0	0
106954752	0	0
109051904	0	0
111149056	0	0
113246208	0	0
115343360	0	0
117440512	0	0
119537664	0	0
121634816	0	0
123731968	0	0
125829120	0	0
127926272	0	0
130023424	0	0
132120576	0	0
134217728	0	0
138412032	0	0
142606336	0	0
146800640	0	0
150994944	0	0
155189248	0	0
159383552	0	0
163577856	0	0
167772160	0	0
171966464	0	0
176160768	0	0
180355072	0	0
184549376	0	0
188743680	0	0
192937984	0	0
197132288	0	0
201326592	0	0
205520896	0	0
209715200	0	0
213909504	0	0
218103808	0	0
222298112	0	0
226492416	0	0
230686720	0	0
234881024	0	0
239075328	0	0
243269632	0	0
247463936	0	0
251658240	0	0
255852544	0	0
260046848	0	0
264241152	0	0
268435456	0	0
276824064	0	0
285212672	0	0
293601280	0	0
301989888	0	0
310378496	0	0
318767104	0	0
327155712	0	0
335544320	0	0
343932928	0	0
352321536	0	0
360710144	0	0
369098752	0	0
377487360	0	0
385875968	0	0
394264576	0	0
402653184	0	0
411041792	0	0
419430400	0	0
427819008	0	0
436207616	0	0
444596224	0	0
452984832	0	0
461373440	0	0
469762048	0	0
478150656	0	0
486539264	0	0
494927872	0	0
503316480	0	0
511705088	0	0
520093696	0	0
528482304	0	0
536870912	0	0
553648128	0	0
570425344	0	0
587202560	0	0
603979776	0	0
620756992	0	0
637534208	0	0
654311424	0	0
671088640	0	0
687865856	0	0
704643072	0	0
721420288	0	0
738197504	0	0
754974720	0	0
771751936	0	0
788529152	0	0
805306368	0	0
822083584	0	0
838860800	0	0
855638016	0	0
872415232	0	0
889192448	0	0
905969664	0	0
922746880	0	0
939524096	0	0
956301312	0	0
973078528	0	0
989855744	0	0
1006632960	0	0
1023410176	0	0
1040187392	0	0
1056964608	0	0
1073741824	0	0
1107296256	0	0
1140850688	0	0
1174405120	0	0
1207959552	0	0
1241513984	0	0
1275068416	0	0
1308622848	0	0
1342177280	0	0
1375731712	0	0
1409286144	0	0
1442840576	0	0
1476395008	0	0
1509949440	0	0
1543503872	0	0
1577058304	0	0
1610612736	0	0
1644167168	0	0
1677721600	0	0
1711276032	0	0
1744830464	0	0
1778384896	0	0
1811939328	0	0
1845493760	0	0
1879048192	0	0
1912602624	0	0
1946157056	0	0
1979711488	0	0
2013265920	0	0
2046820352	0	0
2080374784	0	0
2113929216	0	0
2147483648	0	0
2214592512	0	0
2281701376	0	0
2348810240	0	0
2415919104	0	0
2483027968	0	0
2550136832	0	0
2617245696	0	0
2684354560	0	0
2751463424	0	0
2818572288	0	0
2885681152	0	0
2952790016	0	0
3019898880	0	0
3087007744	0	0
3154116608	0	0
3221225472	0	0
3288334336	0	0
3355443200	0	0
3422552064	0	0
3489660928	0	0
3556769792	0	0
3623878656	0	0
3690987520	0	0
3758096384	0	0
3825205248	0	0
3892314112	0	0
3959422976	0	0
4026531840	0	0
4093640704	0	0
4160749568	0	0
4227858432	0	0
~~~~~~~~~~Reuse Distance Profiler output end~~~~~~~~~~

Sampler size:32869

DRAM Statistics
 CHANNEL 0
 RQ ROW_BUFFER_HIT:   13758697  ROW_BUFFER_MISS:   22549038
 DBUS AVG_CONGESTED_CYCLE:    3.92508
 WQ ROW_BUFFER_HIT:     316164  ROW_BUFFER_MISS:   11029359  FULL:          0


CPU 0 Branch Prediction Accuracy: 94.1732% MPKI: 10.6621 Average ROB Occupancy at Mispredict: 27.1691
Branch type MPKI
BRANCH_DIRECT_JUMP: 6e-06
BRANCH_INDIRECT: 5.33333e-06
BRANCH_CONDITIONAL: 10.6621
BRANCH_DIRECT_CALL: 2.4e-05
BRANCH_INDIRECT_CALL: 0
BRANCH_RETURN: 2.33333e-05

