
*** ChampSim Multicore Out-of-Order Simulator ***

Warmup Instructions: 50000000
Simulation Instructions: 1500000000
Number of CPUs: 1
Off-chip DRAM Size: 4 GiB Channels: 1 Width: 64-bit Data Rate: 3200 MT/s

VirtualMemory physical capacity: 8588881920 num_ppages: 2096895
VirtualMemory page size: 4096 log2_page_size: 12

CPU 0 runs /s/traces/champsim_traces/464.h264ref-57B.champsimtrace.xz
CPU 0 Bimodal branch predictor
Basic BTB sets: 1024 ways: 8 indirect buffer size: 4096 RAS size: 64
Initializing LRU.
Initializing LRU.
Initializing LRU.
Initializing LRU.
Initializing rdLRU.
Initializing LRU.
Heartbeat CPU 0 instructions: 2000000 cycles: 1003611 heartbeat IPC: 1.9928 cumulative IPC: 1.9928 (Simulation time: 0 hr 2 min 39 sec) 
Heartbeat CPU 0 instructions: 4000000 cycles: 1967134 heartbeat IPC: 2.07572 cumulative IPC: 2.03342 (Simulation time: 0 hr 5 min 19 sec) 
Heartbeat CPU 0 instructions: 6000001 cycles: 2925991 heartbeat IPC: 2.08582 cumulative IPC: 2.05059 (Simulation time: 0 hr 7 min 42 sec) 
Heartbeat CPU 0 instructions: 8000003 cycles: 3884903 heartbeat IPC: 2.0857 cumulative IPC: 2.05925 (Simulation time: 0 hr 10 min 6 sec) 
Heartbeat CPU 0 instructions: 10000003 cycles: 4607062 heartbeat IPC: 2.76947 cumulative IPC: 2.17058 (Simulation time: 0 hr 11 min 49 sec) 
Heartbeat CPU 0 instructions: 12000001 cycles: 5115043 heartbeat IPC: 3.93715 cumulative IPC: 2.34602 (Simulation time: 0 hr 12 min 55 sec) 
Heartbeat CPU 0 instructions: 14000000 cycles: 5627493 heartbeat IPC: 3.90282 cumulative IPC: 2.48779 (Simulation time: 0 hr 14 min 4 sec) 
Heartbeat CPU 0 instructions: 16000002 cycles: 6132648 heartbeat IPC: 3.95918 cumulative IPC: 2.60899 (Simulation time: 0 hr 15 min 13 sec) 
Heartbeat CPU 0 instructions: 18000004 cycles: 6639017 heartbeat IPC: 3.94969 cumulative IPC: 2.71125 (Simulation time: 0 hr 16 min 16 sec) 
Heartbeat CPU 0 instructions: 20000003 cycles: 7146038 heartbeat IPC: 3.94461 cumulative IPC: 2.79875 (Simulation time: 0 hr 17 min 21 sec) 
Heartbeat CPU 0 instructions: 22000001 cycles: 7652156 heartbeat IPC: 3.95164 cumulative IPC: 2.87501 (Simulation time: 0 hr 18 min 20 sec) 
Heartbeat CPU 0 instructions: 24000000 cycles: 8154580 heartbeat IPC: 3.9807 cumulative IPC: 2.94313 (Simulation time: 0 hr 19 min 22 sec) 
Heartbeat CPU 0 instructions: 26000003 cycles: 8725928 heartbeat IPC: 3.5005 cumulative IPC: 2.97963 (Simulation time: 0 hr 20 min 39 sec) 
Heartbeat CPU 0 instructions: 28000002 cycles: 9282391 heartbeat IPC: 3.59413 cumulative IPC: 3.01646 (Simulation time: 0 hr 21 min 55 sec) 
Heartbeat CPU 0 instructions: 30000001 cycles: 10167238 heartbeat IPC: 2.26028 cumulative IPC: 2.95065 (Simulation time: 0 hr 24 min 9 sec) 
Heartbeat CPU 0 instructions: 32000003 cycles: 11129626 heartbeat IPC: 2.07817 cumulative IPC: 2.87521 (Simulation time: 0 hr 26 min 32 sec) 
Heartbeat CPU 0 instructions: 34000002 cycles: 12091036 heartbeat IPC: 2.08028 cumulative IPC: 2.812 (Simulation time: 0 hr 28 min 54 sec) 
Heartbeat CPU 0 instructions: 36000000 cycles: 13050586 heartbeat IPC: 2.08431 cumulative IPC: 2.7585 (Simulation time: 0 hr 31 min 13 sec) 
Heartbeat CPU 0 instructions: 38000001 cycles: 14009787 heartbeat IPC: 2.08507 cumulative IPC: 2.71239 (Simulation time: 0 hr 33 min 30 sec) 
Heartbeat CPU 0 instructions: 40000002 cycles: 14968959 heartbeat IPC: 2.08513 cumulative IPC: 2.6722 (Simulation time: 0 hr 35 min 48 sec) 
Heartbeat CPU 0 instructions: 42000003 cycles: 15959571 heartbeat IPC: 2.01895 cumulative IPC: 2.63165 (Simulation time: 0 hr 38 min 13 sec) 
Heartbeat CPU 0 instructions: 44000000 cycles: 16975864 heartbeat IPC: 1.96793 cumulative IPC: 2.59192 (Simulation time: 0 hr 40 min 46 sec) 
Heartbeat CPU 0 instructions: 46000002 cycles: 17940356 heartbeat IPC: 2.07363 cumulative IPC: 2.56405 (Simulation time: 0 hr 43 min 11 sec) 
Heartbeat CPU 0 instructions: 48000003 cycles: 18899653 heartbeat IPC: 2.08486 cumulative IPC: 2.53973 (Simulation time: 0 hr 45 min 35 sec) 
Heartbeat CPU 0 instructions: 50000000 cycles: 19858961 heartbeat IPC: 2.08483 cumulative IPC: 2.51776 (Simulation time: 0 hr 47 min 55 sec) 

Warmup complete CPU 0 instructions: 50000003 cycles: 19858963 (Simulation time: 0 hr 47 min 55 sec) 

Heartbeat CPU 0 instructions: 52000003 cycles: 21035933 heartbeat IPC: 1.69928 cumulative IPC: 1.69928 (Simulation time: 0 hr 49 min 34 sec) 

Region of Interest Statistics
cpu0_DTLB TOTAL     ACCESS:     404079  HIT:     403577  MISS:        502
cpu0_DTLB LOAD      ACCESS:     328485  HIT:     328044  MISS:        441
cpu0_DTLB RFO       ACCESS:      75594  HIT:      75533  MISS:         61
cpu0_DTLB PREFETCH  ACCESS:          0  HIT:          0  MISS:          0
cpu0_DTLB WRITEBACK ACCESS:          0  HIT:          0  MISS:          0
cpu0_ITLB TOTAL     ACCESS:     158967  HIT:     158967  MISS:          0
cpu0_ITLB LOAD      ACCESS:     158967  HIT:     158967  MISS:          0
cpu0_ITLB RFO       ACCESS:          0  HIT:          0  MISS:          0
cpu0_ITLB PREFETCH  ACCESS:          0  HIT:          0  MISS:          0
cpu0_ITLB WRITEBACK ACCESS:          0  HIT:          0  MISS:          0
cpu0_L1I TOTAL     ACCESS:      50770  HIT:      50715  MISS:         55
cpu0_L1I LOAD      ACCESS:      50770  HIT:      50715  MISS:         55
cpu0_L1I RFO       ACCESS:          0  HIT:          0  MISS:          0
cpu0_L1I PREFETCH  ACCESS:          0  HIT:          0  MISS:          0
cpu0_L1I WRITEBACK ACCESS:          0  HIT:          0  MISS:          0
cpu0_STLB TOTAL     ACCESS:        502  HIT:        480  MISS:         22
cpu0_STLB LOAD      ACCESS:        441  HIT:        423  MISS:         18
cpu0_STLB RFO       ACCESS:         61  HIT:         57  MISS:          4
cpu0_STLB PREFETCH  ACCESS:          0  HIT:          0  MISS:          0
cpu0_STLB WRITEBACK ACCESS:          0  HIT:          0  MISS:          0
cpu0_L1D TOTAL     ACCESS:     447268  HIT:     439696  MISS:       7572
cpu0_L1D LOAD      ACCESS:     298947  HIT:     293665  MISS:       5282
cpu0_L1D RFO       ACCESS:     148302  HIT:     146017  MISS:       2285
cpu0_L1D PREFETCH  ACCESS:          0  HIT:          0  MISS:          0
cpu0_L1D WRITEBACK ACCESS:          0  HIT:          0  MISS:          0
cpu0_L2C TOTAL     ACCESS:      10432  HIT:       6236  MISS:       4196
cpu0_L2C LOAD      ACCESS:       5337  HIT:       3375  MISS:       1962
cpu0_L2C RFO       ACCESS:       2285  HIT:         53  MISS:       2232
cpu0_L2C PREFETCH  ACCESS:          0  HIT:          0  MISS:          0
cpu0_L2C WRITEBACK ACCESS:       2805  HIT:       2805  MISS:          0
LLC TOTAL     ACCESS:       7960  HIT:       1617  MISS:       6343
LLC LOAD      ACCESS:       1962  HIT:        279  MISS:       1683
LLC RFO       ACCESS:       2232  HIT:         18  MISS:       2214
LLC PREFETCH  ACCESS:          0  HIT:          0  MISS:          0
LLC WRITEBACK ACCESS:       3764  HIT:       1320  MISS:       2444
Heartbeat CPU 0 instructions: 54000004 cycles: 22017539 heartbeat IPC: 2.03748 cumulative IPC: 1.85307 (Simulation time: 0 hr 50 min 51 sec) 

Region of Interest Statistics
cpu0_DTLB TOTAL     ACCESS:     755144  HIT:     753633  MISS:       1511
cpu0_DTLB LOAD      ACCESS:     585233  HIT:     583818  MISS:       1415
cpu0_DTLB RFO       ACCESS:     169911  HIT:     169815  MISS:         96
cpu0_DTLB PREFETCH  ACCESS:          0  HIT:          0  MISS:          0
cpu0_DTLB WRITEBACK ACCESS:          0  HIT:          0  MISS:          0
cpu0_ITLB TOTAL     ACCESS:     378178  HIT:     378178  MISS:          0
cpu0_ITLB LOAD      ACCESS:     378178  HIT:     378178  MISS:          0
cpu0_ITLB RFO       ACCESS:          0  HIT:          0  MISS:          0
cpu0_ITLB PREFETCH  ACCESS:          0  HIT:          0  MISS:          0
cpu0_ITLB WRITEBACK ACCESS:          0  HIT:          0  MISS:          0
cpu0_L1I TOTAL     ACCESS:      58052  HIT:      57986  MISS:         66
cpu0_L1I LOAD      ACCESS:      58052  HIT:      57986  MISS:         66
cpu0_L1I RFO       ACCESS:          0  HIT:          0  MISS:          0
cpu0_L1I PREFETCH  ACCESS:          0  HIT:          0  MISS:          0
cpu0_L1I WRITEBACK ACCESS:          0  HIT:          0  MISS:          0
cpu0_STLB TOTAL     ACCESS:       1511  HIT:       1473  MISS:         38
cpu0_STLB LOAD      ACCESS:       1415  HIT:       1381  MISS:         34
cpu0_STLB RFO       ACCESS:         96  HIT:         92  MISS:          4
cpu0_STLB PREFETCH  ACCESS:          0  HIT:          0  MISS:          0
cpu0_STLB WRITEBACK ACCESS:          0  HIT:          0  MISS:          0
cpu0_L1D TOTAL     ACCESS:     879448  HIT:     866663  MISS:      12785
cpu0_L1D LOAD      ACCESS:     512023  HIT:     501775  MISS:      10248
cpu0_L1D RFO       ACCESS:     367390  HIT:     364867  MISS:       2523
cpu0_L1D PREFETCH  ACCESS:          0  HIT:          0  MISS:          0
cpu0_L1D WRITEBACK ACCESS:          0  HIT:          0  MISS:          0
cpu0_L2C TOTAL     ACCESS:      15896  HIT:       8968  MISS:       6928
cpu0_L2C LOAD      ACCESS:      10314  HIT:       5764  MISS:       4550
cpu0_L2C RFO       ACCESS:       2523  HIT:        147  MISS:       2376
cpu0_L2C PREFETCH  ACCESS:          0  HIT:          0  MISS:          0
cpu0_L2C WRITEBACK ACCESS:       3045  HIT:       3045  MISS:          0
LLC TOTAL     ACCESS:      13044  HIT:       3321  MISS:       9723
LLC LOAD      ACCESS:       4550  HIT:        788  MISS:       3762
LLC RFO       ACCESS:       2376  HIT:         36  MISS:       2340
LLC PREFETCH  ACCESS:          0  HIT:          0  MISS:          0
LLC WRITEBACK ACCESS:       6116  HIT:       2497  MISS:       3619
Heartbeat CPU 0 instructions: 56000000 cycles: 23181406 heartbeat IPC: 1.71841 cumulative IPC: 1.8059 (Simulation time: 0 hr 52 min 9 sec) 

Region of Interest Statistics
cpu0_DTLB TOTAL     ACCESS:    1112926  HIT:    1110315  MISS:       2611
cpu0_DTLB LOAD      ACCESS:     856719  HIT:     854247  MISS:       2472
cpu0_DTLB RFO       ACCESS:     256207  HIT:     256068  MISS:        139
cpu0_DTLB PREFETCH  ACCESS:          0  HIT:          0  MISS:          0
cpu0_DTLB WRITEBACK ACCESS:          0  HIT:          0  MISS:          0
cpu0_ITLB TOTAL     ACCESS:     585745  HIT:     585744  MISS:          1
cpu0_ITLB LOAD      ACCESS:     585745  HIT:     585744  MISS:          1
cpu0_ITLB RFO       ACCESS:          0  HIT:          0  MISS:          0
cpu0_ITLB PREFETCH  ACCESS:          0  HIT:          0  MISS:          0
cpu0_ITLB WRITEBACK ACCESS:          0  HIT:          0  MISS:          0
cpu0_L1I TOTAL     ACCESS:      69927  HIT:      69570  MISS:        357
cpu0_L1I LOAD      ACCESS:      69927  HIT:      69570  MISS:        357
cpu0_L1I RFO       ACCESS:          0  HIT:          0  MISS:          0
cpu0_L1I PREFETCH  ACCESS:          0  HIT:          0  MISS:          0
cpu0_L1I WRITEBACK ACCESS:          0  HIT:          0  MISS:          0
cpu0_STLB TOTAL     ACCESS:       2612  HIT:       2554  MISS:         58
cpu0_STLB LOAD      ACCESS:       2473  HIT:       2420  MISS:         53
cpu0_STLB RFO       ACCESS:        139  HIT:        134  MISS:          5
cpu0_STLB PREFETCH  ACCESS:          0  HIT:          0  MISS:          0
cpu0_STLB WRITEBACK ACCESS:          0  HIT:          0  MISS:          0
cpu0_L1D TOTAL     ACCESS:    1294392  HIT:    1275108  MISS:      19284
cpu0_L1D LOAD      ACCESS:     729409  HIT:     713039  MISS:      16370
cpu0_L1D RFO       ACCESS:     564931  HIT:     562039  MISS:       2892
cpu0_L1D PREFETCH  ACCESS:          0  HIT:          0  MISS:          0
cpu0_L1D WRITEBACK ACCESS:          0  HIT:          0  MISS:          0
cpu0_L2C TOTAL     ACCESS:      23072  HIT:      12395  MISS:      10677
cpu0_L2C LOAD      ACCESS:      16727  HIT:       8652  MISS:       8075
cpu0_L2C RFO       ACCESS:       2892  HIT:        294  MISS:       2598
cpu0_L2C PREFETCH  ACCESS:          0  HIT:          0  MISS:          0
cpu0_L2C WRITEBACK ACCESS:       3431  HIT:       3429  MISS:          2
LLC TOTAL     ACCESS:      18851  HIT:       5500  MISS:      13351
LLC LOAD      ACCESS:       8075  HIT:       1856  MISS:       6219
LLC RFO       ACCESS:       2598  HIT:         40  MISS:       2558
LLC PREFETCH  ACCESS:          0  HIT:          0  MISS:          0
LLC WRITEBACK ACCESS:       8176  HIT:       3604  MISS:       4572
Heartbeat CPU 0 instructions: 58000002 cycles: 24861693 heartbeat IPC: 1.19027 cumulative IPC: 1.59913 (Simulation time: 0 hr 53 min 32 sec) 

Region of Interest Statistics
cpu0_DTLB TOTAL     ACCESS:    1483957  HIT:    1480088  MISS:       3869
cpu0_DTLB LOAD      ACCESS:    1155860  HIT:    1152179  MISS:       3681
cpu0_DTLB RFO       ACCESS:     328097  HIT:     327909  MISS:        188
cpu0_DTLB PREFETCH  ACCESS:          0  HIT:          0  MISS:          0
cpu0_DTLB WRITEBACK ACCESS:          0  HIT:          0  MISS:          0
cpu0_ITLB TOTAL     ACCESS:     797102  HIT:     797101  MISS:          1
cpu0_ITLB LOAD      ACCESS:     797102  HIT:     797101  MISS:          1
cpu0_ITLB RFO       ACCESS:          0  HIT:          0  MISS:          0
cpu0_ITLB PREFETCH  ACCESS:          0  HIT:          0  MISS:          0
cpu0_ITLB WRITEBACK ACCESS:          0  HIT:          0  MISS:          0
cpu0_L1I TOTAL     ACCESS:      87433  HIT:      86958  MISS:        475
cpu0_L1I LOAD      ACCESS:      87433  HIT:      86958  MISS:        475
cpu0_L1I RFO       ACCESS:          0  HIT:          0  MISS:          0
cpu0_L1I PREFETCH  ACCESS:          0  HIT:          0  MISS:          0
cpu0_L1I WRITEBACK ACCESS:          0  HIT:          0  MISS:          0
cpu0_STLB TOTAL     ACCESS:       3870  HIT:       3774  MISS:         96
cpu0_STLB LOAD      ACCESS:       3682  HIT:       3592  MISS:         90
cpu0_STLB RFO       ACCESS:        188  HIT:        182  MISS:          6
cpu0_STLB PREFETCH  ACCESS:          0  HIT:          0  MISS:          0
cpu0_STLB WRITEBACK ACCESS:          0  HIT:          0  MISS:          0
cpu0_L1D TOTAL     ACCESS:    1696090  HIT:    1668451  MISS:      27639
cpu0_L1D LOAD      ACCESS:     967904  HIT:     943614  MISS:      24290
cpu0_L1D RFO       ACCESS:     728104  HIT:     724784  MISS:       3320
cpu0_L1D PREFETCH  ACCESS:          0  HIT:          0  MISS:          0
cpu0_L1D WRITEBACK ACCESS:          0  HIT:          0  MISS:          0
cpu0_L2C TOTAL     ACCESS:      31860  HIT:      15122  MISS:      16738
cpu0_L2C LOAD      ACCESS:      24765  HIT:      10824  MISS:      13941
cpu0_L2C RFO       ACCESS:       3320  HIT:        532  MISS:       2788
cpu0_L2C PREFETCH  ACCESS:          0  HIT:          0  MISS:          0
cpu0_L2C WRITEBACK ACCESS:       3746  HIT:       3740  MISS:          6
LLC TOTAL     ACCESS:      26038  HIT:       7616  MISS:      18422
LLC LOAD      ACCESS:      13941  HIT:       3394  MISS:      10547
LLC RFO       ACCESS:       2788  HIT:         77  MISS:       2711
LLC PREFETCH  ACCESS:          0  HIT:          0  MISS:          0
LLC WRITEBACK ACCESS:       9306  HIT:       4145  MISS:       5161
Heartbeat CPU 0 instructions: 60000003 cycles: 26965121 heartbeat IPC: 0.950829 cumulative IPC: 1.40723 (Simulation time: 0 hr 54 min 48 sec) 

Region of Interest Statistics
cpu0_DTLB TOTAL     ACCESS:    1869679  HIT:    1864594  MISS:       5085
cpu0_DTLB LOAD      ACCESS:    1474986  HIT:    1470143  MISS:       4843
cpu0_DTLB RFO       ACCESS:     394693  HIT:     394451  MISS:        242
cpu0_DTLB PREFETCH  ACCESS:          0  HIT:          0  MISS:          0
cpu0_DTLB WRITEBACK ACCESS:          0  HIT:          0  MISS:          0
cpu0_ITLB TOTAL     ACCESS:    1022137  HIT:    1022136  MISS:          1
cpu0_ITLB LOAD      ACCESS:    1022137  HIT:    1022136  MISS:          1
cpu0_ITLB RFO       ACCESS:          0  HIT:          0  MISS:          0
cpu0_ITLB PREFETCH  ACCESS:          0  HIT:          0  MISS:          0
cpu0_ITLB WRITEBACK ACCESS:          0  HIT:          0  MISS:          0
cpu0_L1I TOTAL     ACCESS:     102271  HIT:     101786  MISS:        485
cpu0_L1I LOAD      ACCESS:     102271  HIT:     101786  MISS:        485
cpu0_L1I RFO       ACCESS:          0  HIT:          0  MISS:          0
cpu0_L1I PREFETCH  ACCESS:          0  HIT:          0  MISS:          0
cpu0_L1I WRITEBACK ACCESS:          0  HIT:          0  MISS:          0
cpu0_STLB TOTAL     ACCESS:       5086  HIT:       4988  MISS:         98
cpu0_STLB LOAD      ACCESS:       4844  HIT:       4752  MISS:         92
cpu0_STLB RFO       ACCESS:        242  HIT:        236  MISS:          6
cpu0_STLB PREFETCH  ACCESS:          0  HIT:          0  MISS:          0
cpu0_STLB WRITEBACK ACCESS:          0  HIT:          0  MISS:          0
cpu0_L1D TOTAL     ACCESS:    2118272  HIT:    2083336  MISS:      34936
cpu0_L1D LOAD      ACCESS:    1237463  HIT:    1206124  MISS:      31339
cpu0_L1D RFO       ACCESS:     880725  HIT:     877158  MISS:       3567
cpu0_L1D PREFETCH  ACCESS:          0  HIT:          0  MISS:          0
cpu0_L1D WRITEBACK ACCESS:          0  HIT:          0  MISS:          0
cpu0_L2C TOTAL     ACCESS:      39498  HIT:      17908  MISS:      21590
cpu0_L2C LOAD      ACCESS:      31824  HIT:      13137  MISS:      18687
cpu0_L2C RFO       ACCESS:       3567  HIT:        674  MISS:       2893
cpu0_L2C PREFETCH  ACCESS:          0  HIT:          0  MISS:          0
cpu0_L2C WRITEBACK ACCESS:       4077  HIT:       4070  MISS:          7
LLC TOTAL     ACCESS:      31143  HIT:       8560  MISS:      22583
LLC LOAD      ACCESS:      18687  HIT:       4214  MISS:      14473
LLC RFO       ACCESS:       2893  HIT:         83  MISS:       2810
LLC PREFETCH  ACCESS:          0  HIT:          0  MISS:          0
LLC WRITEBACK ACCESS:       9560  HIT:       4263  MISS:       5297
Heartbeat CPU 0 instructions: 62000004 cycles: 28487369 heartbeat IPC: 1.31385 cumulative IPC: 1.39076 (Simulation time: 0 hr 56 min 9 sec) 

Region of Interest Statistics
cpu0_DTLB TOTAL     ACCESS:    2235750  HIT:    2229346  MISS:       6404
cpu0_DTLB LOAD      ACCESS:    1764571  HIT:    1758448  MISS:       6123
cpu0_DTLB RFO       ACCESS:     471179  HIT:     470898  MISS:        281
cpu0_DTLB PREFETCH  ACCESS:          0  HIT:          0  MISS:          0
cpu0_DTLB WRITEBACK ACCESS:          0  HIT:          0  MISS:          0
cpu0_ITLB TOTAL     ACCESS:    1225414  HIT:    1225413  MISS:          1
cpu0_ITLB LOAD      ACCESS:    1225414  HIT:    1225413  MISS:          1
cpu0_ITLB RFO       ACCESS:          0  HIT:          0  MISS:          0
cpu0_ITLB PREFETCH  ACCESS:          0  HIT:          0  MISS:          0
cpu0_ITLB WRITEBACK ACCESS:          0  HIT:          0  MISS:          0
cpu0_L1I TOTAL     ACCESS:     119200  HIT:     118615  MISS:        585
cpu0_L1I LOAD      ACCESS:     119200  HIT:     118615  MISS:        585
cpu0_L1I RFO       ACCESS:          0  HIT:          0  MISS:          0
cpu0_L1I PREFETCH  ACCESS:          0  HIT:          0  MISS:          0
cpu0_L1I WRITEBACK ACCESS:          0  HIT:          0  MISS:          0
cpu0_STLB TOTAL     ACCESS:       6405  HIT:       6240  MISS:        165
cpu0_STLB LOAD      ACCESS:       6124  HIT:       5966  MISS:        158
cpu0_STLB RFO       ACCESS:        281  HIT:        274  MISS:          7
cpu0_STLB PREFETCH  ACCESS:          0  HIT:          0  MISS:          0
cpu0_STLB WRITEBACK ACCESS:          0  HIT:          0  MISS:          0
cpu0_L1D TOTAL     ACCESS:    2522307  HIT:    2479539  MISS:      42768
cpu0_L1D LOAD      ACCESS:    1468121  HIT:    1429344  MISS:      38777
cpu0_L1D RFO       ACCESS:    1054046  HIT:    1050090  MISS:       3956
cpu0_L1D PREFETCH  ACCESS:          0  HIT:          0  MISS:          0
cpu0_L1D WRITEBACK ACCESS:          0  HIT:          0  MISS:          0
cpu0_L2C TOTAL     ACCESS:      47812  HIT:      20582  MISS:      27230
cpu0_L2C LOAD      ACCESS:      39362  HIT:      15248  MISS:      24114
cpu0_L2C RFO       ACCESS:       3956  HIT:        856  MISS:       3100
cpu0_L2C PREFETCH  ACCESS:          0  HIT:          0  MISS:          0
cpu0_L2C WRITEBACK ACCESS:       4459  HIT:       4446  MISS:         13
LLC TOTAL     ACCESS:      36909  HIT:       9728  MISS:      27181
LLC LOAD      ACCESS:      24114  HIT:       5256  MISS:      18858
LLC RFO       ACCESS:       3100  HIT:        112  MISS:       2988
LLC PREFETCH  ACCESS:          0  HIT:          0  MISS:          0
LLC WRITEBACK ACCESS:       9692  HIT:       4360  MISS:       5332
Heartbeat CPU 0 instructions: 64000001 cycles: 29979550 heartbeat IPC: 1.34032 cumulative IPC: 1.38332 (Simulation time: 0 hr 57 min 28 sec) 

Region of Interest Statistics
cpu0_DTLB TOTAL     ACCESS:    2600503  HIT:    2592644  MISS:       7859
cpu0_DTLB LOAD      ACCESS:    2056325  HIT:    2048802  MISS:       7523
cpu0_DTLB RFO       ACCESS:     544178  HIT:     543842  MISS:        336
cpu0_DTLB PREFETCH  ACCESS:          0  HIT:          0  MISS:          0
cpu0_DTLB WRITEBACK ACCESS:          0  HIT:          0  MISS:          0
cpu0_ITLB TOTAL     ACCESS:    1426493  HIT:    1426492  MISS:          1
cpu0_ITLB LOAD      ACCESS:    1426493  HIT:    1426492  MISS:          1
cpu0_ITLB RFO       ACCESS:          0  HIT:          0  MISS:          0
cpu0_ITLB PREFETCH  ACCESS:          0  HIT:          0  MISS:          0
cpu0_ITLB WRITEBACK ACCESS:          0  HIT:          0  MISS:          0
cpu0_L1I TOTAL     ACCESS:     136819  HIT:     136130  MISS:        689
cpu0_L1I LOAD      ACCESS:     136819  HIT:     136130  MISS:        689
cpu0_L1I RFO       ACCESS:          0  HIT:          0  MISS:          0
cpu0_L1I PREFETCH  ACCESS:          0  HIT:          0  MISS:          0
cpu0_L1I WRITEBACK ACCESS:          0  HIT:          0  MISS:          0
cpu0_STLB TOTAL     ACCESS:       7860  HIT:       7664  MISS:        196
cpu0_STLB LOAD      ACCESS:       7524  HIT:       7335  MISS:        189
cpu0_STLB RFO       ACCESS:        336  HIT:        329  MISS:          7
cpu0_STLB PREFETCH  ACCESS:          0  HIT:          0  MISS:          0
cpu0_STLB WRITEBACK ACCESS:          0  HIT:          0  MISS:          0
cpu0_L1D TOTAL     ACCESS:    2912081  HIT:    2860743  MISS:      51338
cpu0_L1D LOAD      ACCESS:    1692278  HIT:    1645376  MISS:      46902
cpu0_L1D RFO       ACCESS:    1219635  HIT:    1215242  MISS:       4393
cpu0_L1D PREFETCH  ACCESS:          0  HIT:          0  MISS:          0
cpu0_L1D WRITEBACK ACCESS:          0  HIT:          0  MISS:          0
cpu0_L2C TOTAL     ACCESS:      56931  HIT:      23851  MISS:      33080
cpu0_L2C LOAD      ACCESS:      47591  HIT:      17825  MISS:      29766
cpu0_L2C RFO       ACCESS:       4393  HIT:       1099  MISS:       3294
cpu0_L2C PREFETCH  ACCESS:          0  HIT:          0  MISS:          0
cpu0_L2C WRITEBACK ACCESS:       4904  HIT:       4888  MISS:         16
LLC TOTAL     ACCESS:      42907  HIT:      10537  MISS:      32370
LLC LOAD      ACCESS:      29766  HIT:       5913  MISS:      23853
LLC RFO       ACCESS:       3294  HIT:        155  MISS:       3139
LLC PREFETCH  ACCESS:          0  HIT:          0  MISS:          0
LLC WRITEBACK ACCESS:       9843  HIT:       4469  MISS:       5374
Heartbeat CPU 0 instructions: 66000001 cycles: 31730422 heartbeat IPC: 1.14229 cumulative IPC: 1.34777 (Simulation time: 0 hr 58 min 50 sec) 

Region of Interest Statistics
cpu0_DTLB TOTAL     ACCESS:    2973122  HIT:    2963977  MISS:       9145
cpu0_DTLB LOAD      ACCESS:    2361207  HIT:    2352453  MISS:       8754
cpu0_DTLB RFO       ACCESS:     611915  HIT:     611524  MISS:        391
cpu0_DTLB PREFETCH  ACCESS:          0  HIT:          0  MISS:          0
cpu0_DTLB WRITEBACK ACCESS:          0  HIT:          0  MISS:          0
cpu0_ITLB TOTAL     ACCESS:    1632083  HIT:    1632082  MISS:          1
cpu0_ITLB LOAD      ACCESS:    1632083  HIT:    1632082  MISS:          1
cpu0_ITLB RFO       ACCESS:          0  HIT:          0  MISS:          0
cpu0_ITLB PREFETCH  ACCESS:          0  HIT:          0  MISS:          0
cpu0_ITLB WRITEBACK ACCESS:          0  HIT:          0  MISS:          0
cpu0_L1I TOTAL     ACCESS:     153587  HIT:     152890  MISS:        697
cpu0_L1I LOAD      ACCESS:     153587  HIT:     152890  MISS:        697
cpu0_L1I RFO       ACCESS:          0  HIT:          0  MISS:          0
cpu0_L1I PREFETCH  ACCESS:          0  HIT:          0  MISS:          0
cpu0_L1I WRITEBACK ACCESS:          0  HIT:          0  MISS:          0
cpu0_STLB TOTAL     ACCESS:       9146  HIT:       8923  MISS:        223
cpu0_STLB LOAD      ACCESS:       8755  HIT:       8539  MISS:        216
cpu0_STLB RFO       ACCESS:        391  HIT:        384  MISS:          7
cpu0_STLB PREFETCH  ACCESS:          0  HIT:          0  MISS:          0
cpu0_STLB WRITEBACK ACCESS:          0  HIT:          0  MISS:          0
cpu0_L1D TOTAL     ACCESS:    3309368  HIT:    3249883  MISS:      59485
cpu0_L1D LOAD      ACCESS:    1934802  HIT:    1880095  MISS:      54707
cpu0_L1D RFO       ACCESS:    1374373  HIT:    1369644  MISS:       4729
cpu0_L1D PREFETCH  ACCESS:          0  HIT:          0  MISS:          0
cpu0_L1D WRITEBACK ACCESS:          0  HIT:          0  MISS:          0
cpu0_L2C TOTAL     ACCESS:      65370  HIT:      26753  MISS:      38617
cpu0_L2C LOAD      ACCESS:      55404  HIT:      20214  MISS:      35190
cpu0_L2C RFO       ACCESS:       4729  HIT:       1322  MISS:       3407
cpu0_L2C PREFETCH  ACCESS:          0  HIT:          0  MISS:          0
cpu0_L2C WRITEBACK ACCESS:       5188  HIT:       5172  MISS:         16
LLC TOTAL     ACCESS:      48604  HIT:      11112  MISS:      37492
LLC LOAD      ACCESS:      35190  HIT:       6381  MISS:      28809
LLC RFO       ACCESS:       3407  HIT:        164  MISS:       3243
LLC PREFETCH  ACCESS:          0  HIT:          0  MISS:          0
LLC WRITEBACK ACCESS:      10003  HIT:       4567  MISS:       5436
Heartbeat CPU 0 instructions: 68000000 cycles: 33549212 heartbeat IPC: 1.09963 cumulative IPC: 1.3148 (Simulation time: 1 hr 0 min 6 sec) 

Region of Interest Statistics
cpu0_DTLB TOTAL     ACCESS:    3478648  HIT:    3468531  MISS:      10117
cpu0_DTLB LOAD      ACCESS:    2742225  HIT:    2732585  MISS:       9640
cpu0_DTLB RFO       ACCESS:     736423  HIT:     735946  MISS:        477
cpu0_DTLB PREFETCH  ACCESS:          0  HIT:          0  MISS:          0
cpu0_DTLB WRITEBACK ACCESS:          0  HIT:          0  MISS:          0
cpu0_ITLB TOTAL     ACCESS:    1772863  HIT:    1772860  MISS:          3
cpu0_ITLB LOAD      ACCESS:    1772863  HIT:    1772860  MISS:          3
cpu0_ITLB RFO       ACCESS:          0  HIT:          0  MISS:          0
cpu0_ITLB PREFETCH  ACCESS:          0  HIT:          0  MISS:          0
cpu0_ITLB WRITEBACK ACCESS:          0  HIT:          0  MISS:          0
cpu0_L1I TOTAL     ACCESS:     258958  HIT:     256617  MISS:       2341
cpu0_L1I LOAD      ACCESS:     258958  HIT:     256617  MISS:       2341
cpu0_L1I RFO       ACCESS:          0  HIT:          0  MISS:          0
cpu0_L1I PREFETCH  ACCESS:          0  HIT:          0  MISS:          0
cpu0_L1I WRITEBACK ACCESS:          0  HIT:          0  MISS:          0
cpu0_STLB TOTAL     ACCESS:      10120  HIT:       9880  MISS:        240
cpu0_STLB LOAD      ACCESS:       9643  HIT:       9416  MISS:        227
cpu0_STLB RFO       ACCESS:        477  HIT:        464  MISS:         13
cpu0_STLB PREFETCH  ACCESS:          0  HIT:          0  MISS:          0
cpu0_STLB WRITEBACK ACCESS:          0  HIT:          0  MISS:          0
cpu0_L1D TOTAL     ACCESS:    3895712  HIT:    3833773  MISS:      61939
cpu0_L1D LOAD      ACCESS:    2312664  HIT:    2256419  MISS:      56245
cpu0_L1D RFO       ACCESS:    1582839  HIT:    1577198  MISS:       5641
cpu0_L1D PREFETCH  ACCESS:          0  HIT:          0  MISS:          0
cpu0_L1D WRITEBACK ACCESS:          0  HIT:          0  MISS:          0
cpu0_L2C TOTAL     ACCESS:      70224  HIT:      29345  MISS:      40879
cpu0_L2C LOAD      ACCESS:      58586  HIT:      21747  MISS:      36839
cpu0_L2C RFO       ACCESS:       5641  HIT:       1650  MISS:       3991
cpu0_L2C PREFETCH  ACCESS:          0  HIT:          0  MISS:          0
cpu0_L2C WRITEBACK ACCESS:       5944  HIT:       5900  MISS:         44
LLC TOTAL     ACCESS:      50899  HIT:      11384  MISS:      39515
LLC LOAD      ACCESS:      36839  HIT:       6574  MISS:      30265
LLC RFO       ACCESS:       3991  HIT:        196  MISS:       3795
LLC PREFETCH  ACCESS:          0  HIT:          0  MISS:          0
LLC WRITEBACK ACCESS:      10064  HIT:       4614  MISS:       5450
Heartbeat CPU 0 instructions: 70000001 cycles: 35366168 heartbeat IPC: 1.10074 cumulative IPC: 1.28972 (Simulation time: 1 hr 1 min 18 sec) 

Region of Interest Statistics
cpu0_DTLB TOTAL     ACCESS:    3997771  HIT:    3987053  MISS:      10718
cpu0_DTLB LOAD      ACCESS:    3118846  HIT:    3108657  MISS:      10189
cpu0_DTLB RFO       ACCESS:     878925  HIT:     878396  MISS:        529
cpu0_DTLB PREFETCH  ACCESS:          0  HIT:          0  MISS:          0
cpu0_DTLB WRITEBACK ACCESS:          0  HIT:          0  MISS:          0
cpu0_ITLB TOTAL     ACCESS:    1916335  HIT:    1916332  MISS:          3
cpu0_ITLB LOAD      ACCESS:    1916335  HIT:    1916332  MISS:          3
cpu0_ITLB RFO       ACCESS:          0  HIT:          0  MISS:          0
cpu0_ITLB PREFETCH  ACCESS:          0  HIT:          0  MISS:          0
cpu0_ITLB WRITEBACK ACCESS:          0  HIT:          0  MISS:          0
cpu0_L1I TOTAL     ACCESS:     375827  HIT:     372446  MISS:       3381
cpu0_L1I LOAD      ACCESS:     375827  HIT:     372446  MISS:       3381
cpu0_L1I RFO       ACCESS:          0  HIT:          0  MISS:          0
cpu0_L1I PREFETCH  ACCESS:          0  HIT:          0  MISS:          0
cpu0_L1I WRITEBACK ACCESS:          0  HIT:          0  MISS:          0
cpu0_STLB TOTAL     ACCESS:      10721  HIT:      10481  MISS:        240
cpu0_STLB LOAD      ACCESS:      10192  HIT:       9965  MISS:        227
cpu0_STLB RFO       ACCESS:        529  HIT:        516  MISS:         13
cpu0_STLB PREFETCH  ACCESS:          0  HIT:          0  MISS:          0
cpu0_STLB WRITEBACK ACCESS:          0  HIT:          0  MISS:          0
cpu0_L1D TOTAL     ACCESS:    4518512  HIT:    4456353  MISS:      62159
cpu0_L1D LOAD      ACCESS:    2690995  HIT:    2634627  MISS:      56368
cpu0_L1D RFO       ACCESS:    1827308  HIT:    1821570  MISS:       5738
cpu0_L1D PREFETCH  ACCESS:          0  HIT:          0  MISS:          0
cpu0_L1D WRITEBACK ACCESS:          0  HIT:          0  MISS:          0
cpu0_L2C TOTAL     ACCESS:      71620  HIT:      30738  MISS:      40882
cpu0_L2C LOAD      ACCESS:      59749  HIT:      22907  MISS:      36842
cpu0_L2C RFO       ACCESS:       5738  HIT:       1747  MISS:       3991
cpu0_L2C PREFETCH  ACCESS:          0  HIT:          0  MISS:          0
cpu0_L2C WRITEBACK ACCESS:       6080  HIT:       6036  MISS:         44
LLC TOTAL     ACCESS:      50902  HIT:      11384  MISS:      39518
LLC LOAD      ACCESS:      36842  HIT:       6574  MISS:      30268
LLC RFO       ACCESS:       3991  HIT:        196  MISS:       3795
LLC PREFETCH  ACCESS:          0  HIT:          0  MISS:          0
LLC WRITEBACK ACCESS:      10064  HIT:       4614  MISS:       5450
Heartbeat CPU 0 instructions: 72000001 cycles: 36970141 heartbeat IPC: 1.2469 cumulative IPC: 1.28571 (Simulation time: 1 hr 3 min 4 sec) 

Region of Interest Statistics
cpu0_DTLB TOTAL     ACCESS:    4498443  HIT:    4487289  MISS:      11154
cpu0_DTLB LOAD      ACCESS:    3529357  HIT:    3518802  MISS:      10555
cpu0_DTLB RFO       ACCESS:     969086  HIT:     968487  MISS:        599
cpu0_DTLB PREFETCH  ACCESS:          0  HIT:          0  MISS:          0
cpu0_DTLB WRITEBACK ACCESS:          0  HIT:          0  MISS:          0
cpu0_ITLB TOTAL     ACCESS:    2016029  HIT:    2016024  MISS:          5
cpu0_ITLB LOAD      ACCESS:    2016029  HIT:    2016024  MISS:          5
cpu0_ITLB RFO       ACCESS:          0  HIT:          0  MISS:          0
cpu0_ITLB PREFETCH  ACCESS:          0  HIT:          0  MISS:          0
cpu0_ITLB WRITEBACK ACCESS:          0  HIT:          0  MISS:          0
cpu0_L1I TOTAL     ACCESS:     502033  HIT:     498189  MISS:       3844
cpu0_L1I LOAD      ACCESS:     502033  HIT:     498189  MISS:       3844
cpu0_L1I RFO       ACCESS:          0  HIT:          0  MISS:          0
cpu0_L1I PREFETCH  ACCESS:          0  HIT:          0  MISS:          0
cpu0_L1I WRITEBACK ACCESS:          0  HIT:          0  MISS:          0
cpu0_STLB TOTAL     ACCESS:      11159  HIT:      10910  MISS:        249
cpu0_STLB LOAD      ACCESS:      10560  HIT:      10326  MISS:        234
cpu0_STLB RFO       ACCESS:        599  HIT:        584  MISS:         15
cpu0_STLB PREFETCH  ACCESS:          0  HIT:          0  MISS:          0
cpu0_STLB WRITEBACK ACCESS:          0  HIT:          0  MISS:          0
cpu0_L1D TOTAL     ACCESS:    5066691  HIT:    5003322  MISS:      63369
cpu0_L1D LOAD      ACCESS:    3084719  HIT:    3027924  MISS:      56795
cpu0_L1D RFO       ACCESS:    1981754  HIT:    1975234  MISS:       6520
cpu0_L1D PREFETCH  ACCESS:          0  HIT:          0  MISS:          0
cpu0_L1D WRITEBACK ACCESS:          0  HIT:          0  MISS:          0
cpu0_L2C TOTAL     ACCESS:      73930  HIT:      31915  MISS:      42015
cpu0_L2C LOAD      ACCESS:      60639  HIT:      23310  MISS:      37329
cpu0_L2C RFO       ACCESS:       6520  HIT:       1892  MISS:       4628
cpu0_L2C PREFETCH  ACCESS:          0  HIT:          0  MISS:          0
cpu0_L2C WRITEBACK ACCESS:       6717  HIT:       6664  MISS:         53
LLC TOTAL     ACCESS:      52039  HIT:      11555  MISS:      40484
LLC LOAD      ACCESS:      37329  HIT:       6589  MISS:      30740
LLC RFO       ACCESS:       4628  HIT:        343  MISS:       4285
LLC PREFETCH  ACCESS:          0  HIT:          0  MISS:          0
LLC WRITEBACK ACCESS:      10077  HIT:       4623  MISS:       5454
Heartbeat CPU 0 instructions: 74000003 cycles: 38196670 heartbeat IPC: 1.63062 cumulative IPC: 1.30878 (Simulation time: 1 hr 5 min 1 sec) 

Region of Interest Statistics
cpu0_DTLB TOTAL     ACCESS:    4950064  HIT:    4938770  MISS:      11294
cpu0_DTLB LOAD      ACCESS:    3927981  HIT:    3917344  MISS:      10637
cpu0_DTLB RFO       ACCESS:    1022083  HIT:    1021426  MISS:        657
cpu0_DTLB PREFETCH  ACCESS:          0  HIT:          0  MISS:          0
cpu0_DTLB WRITEBACK ACCESS:          0  HIT:          0  MISS:          0
cpu0_ITLB TOTAL     ACCESS:    2111127  HIT:    2111122  MISS:          5
cpu0_ITLB LOAD      ACCESS:    2111127  HIT:    2111122  MISS:          5
cpu0_ITLB RFO       ACCESS:          0  HIT:          0  MISS:          0
cpu0_ITLB PREFETCH  ACCESS:          0  HIT:          0  MISS:          0
cpu0_ITLB WRITEBACK ACCESS:          0  HIT:          0  MISS:          0
cpu0_L1I TOTAL     ACCESS:     608769  HIT:     604828  MISS:       3941
cpu0_L1I LOAD      ACCESS:     608769  HIT:     604828  MISS:       3941
cpu0_L1I RFO       ACCESS:          0  HIT:          0  MISS:          0
cpu0_L1I PREFETCH  ACCESS:          0  HIT:          0  MISS:          0
cpu0_L1I WRITEBACK ACCESS:          0  HIT:          0  MISS:          0
cpu0_STLB TOTAL     ACCESS:      11299  HIT:      11039  MISS:        260
cpu0_STLB LOAD      ACCESS:      10642  HIT:      10403  MISS:        239
cpu0_STLB RFO       ACCESS:        657  HIT:        636  MISS:         21
cpu0_STLB PREFETCH  ACCESS:          0  HIT:          0  MISS:          0
cpu0_STLB WRITEBACK ACCESS:          0  HIT:          0  MISS:          0
cpu0_L1D TOTAL     ACCESS:    5514581  HIT:    5445233  MISS:      69348
cpu0_L1D LOAD      ACCESS:    3447123  HIT:    3387087  MISS:      60036
cpu0_L1D RFO       ACCESS:    2067229  HIT:    2057974  MISS:       9255
cpu0_L1D PREFETCH  ACCESS:          0  HIT:          0  MISS:          0
cpu0_L1D WRITEBACK ACCESS:          0  HIT:          0  MISS:          0
cpu0_L2C TOTAL     ACCESS:      82804  HIT:      37813  MISS:      44991
cpu0_L2C LOAD      ACCESS:      63977  HIT:      26208  MISS:      37769
cpu0_L2C RFO       ACCESS:       9255  HIT:       2091  MISS:       7164
cpu0_L2C PREFETCH  ACCESS:          0  HIT:          0  MISS:          0
cpu0_L2C WRITEBACK ACCESS:       9515  HIT:       9462  MISS:         53
LLC TOTAL     ACCESS:      55220  HIT:      12192  MISS:      43028
LLC LOAD      ACCESS:      37769  HIT:       6644  MISS:      31125
LLC RFO       ACCESS:       7164  HIT:        741  MISS:       6423
LLC PREFETCH  ACCESS:          0  HIT:          0  MISS:          0
LLC WRITEBACK ACCESS:      10282  HIT:       4807  MISS:       5475
Heartbeat CPU 0 instructions: 76000002 cycles: 39415197 heartbeat IPC: 1.64133 cumulative IPC: 1.3295 (Simulation time: 1 hr 6 min 58 sec) 

Region of Interest Statistics
cpu0_DTLB TOTAL     ACCESS:    5401908  HIT:    5390472  MISS:      11436
cpu0_DTLB LOAD      ACCESS:    4326781  HIT:    4316061  MISS:      10720
cpu0_DTLB RFO       ACCESS:    1075127  HIT:    1074411  MISS:        716
cpu0_DTLB PREFETCH  ACCESS:          0  HIT:          0  MISS:          0
cpu0_DTLB WRITEBACK ACCESS:          0  HIT:          0  MISS:          0
cpu0_ITLB TOTAL     ACCESS:    2205007  HIT:    2205002  MISS:          5
cpu0_ITLB LOAD      ACCESS:    2205007  HIT:    2205002  MISS:          5
cpu0_ITLB RFO       ACCESS:          0  HIT:          0  MISS:          0
cpu0_ITLB PREFETCH  ACCESS:          0  HIT:          0  MISS:          0
cpu0_ITLB WRITEBACK ACCESS:          0  HIT:          0  MISS:          0
cpu0_L1I TOTAL     ACCESS:     715598  HIT:     711654  MISS:       3944
cpu0_L1I LOAD      ACCESS:     715598  HIT:     711654  MISS:       3944
cpu0_L1I RFO       ACCESS:          0  HIT:          0  MISS:          0
cpu0_L1I PREFETCH  ACCESS:          0  HIT:          0  MISS:          0
cpu0_L1I WRITEBACK ACCESS:          0  HIT:          0  MISS:          0
cpu0_STLB TOTAL     ACCESS:      11441  HIT:      11172  MISS:        269
cpu0_STLB LOAD      ACCESS:      10725  HIT:      10484  MISS:        241
cpu0_STLB RFO       ACCESS:        716  HIT:        688  MISS:         28
cpu0_STLB PREFETCH  ACCESS:          0  HIT:          0  MISS:          0
cpu0_STLB WRITEBACK ACCESS:          0  HIT:          0  MISS:          0
cpu0_L1D TOTAL     ACCESS:    5964154  HIT:    5888789  MISS:      75365
cpu0_L1D LOAD      ACCESS:    3811801  HIT:    3748486  MISS:      63315
cpu0_L1D RFO       ACCESS:    2152115  HIT:    2140126  MISS:      11989
cpu0_L1D PREFETCH  ACCESS:          0  HIT:          0  MISS:          0
cpu0_L1D WRITEBACK ACCESS:          0  HIT:          0  MISS:          0
cpu0_L2C TOTAL     ACCESS:      91673  HIT:      43694  MISS:      47979
cpu0_L2C LOAD      ACCESS:      67259  HIT:      29142  MISS:      38117
cpu0_L2C RFO       ACCESS:      11989  HIT:       2185  MISS:       9804
cpu0_L2C PREFETCH  ACCESS:          0  HIT:          0  MISS:          0
cpu0_L2C WRITEBACK ACCESS:      12364  HIT:      12311  MISS:         53
LLC TOTAL     ACCESS:      59177  HIT:      13442  MISS:      45735
LLC LOAD      ACCESS:      38117  HIT:       6664  MISS:      31453
LLC RFO       ACCESS:       9804  HIT:       1096  MISS:       8708
LLC PREFETCH  ACCESS:          0  HIT:          0  MISS:          0
LLC WRITEBACK ACCESS:      11251  HIT:       5682  MISS:       5569
Heartbeat CPU 0 instructions: 78000002 cycles: 40634245 heartbeat IPC: 1.64062 cumulative IPC: 1.34776 (Simulation time: 1 hr 8 min 55 sec) 

Region of Interest Statistics
cpu0_DTLB TOTAL     ACCESS:    5855539  HIT:    5843958  MISS:      11581
cpu0_DTLB LOAD      ACCESS:    4727347  HIT:    4716541  MISS:      10806
cpu0_DTLB RFO       ACCESS:    1128192  HIT:    1127417  MISS:        775
cpu0_DTLB PREFETCH  ACCESS:          0  HIT:          0  MISS:          0
cpu0_DTLB WRITEBACK ACCESS:          0  HIT:          0  MISS:          0
cpu0_ITLB TOTAL     ACCESS:    2297901  HIT:    2297896  MISS:          5
cpu0_ITLB LOAD      ACCESS:    2297901  HIT:    2297896  MISS:          5
cpu0_ITLB RFO       ACCESS:          0  HIT:          0  MISS:          0
cpu0_ITLB PREFETCH  ACCESS:          0  HIT:          0  MISS:          0
cpu0_ITLB WRITEBACK ACCESS:          0  HIT:          0  MISS:          0
cpu0_L1I TOTAL     ACCESS:     822222  HIT:     818277  MISS:       3945
cpu0_L1I LOAD      ACCESS:     822222  HIT:     818277  MISS:       3945
cpu0_L1I RFO       ACCESS:          0  HIT:          0  MISS:          0
cpu0_L1I PREFETCH  ACCESS:          0  HIT:          0  MISS:          0
cpu0_L1I WRITEBACK ACCESS:          0  HIT:          0  MISS:          0
cpu0_STLB TOTAL     ACCESS:      11586  HIT:      11308  MISS:        278
cpu0_STLB LOAD      ACCESS:      10811  HIT:      10567  MISS:        244
cpu0_STLB RFO       ACCESS:        775  HIT:        741  MISS:         34
cpu0_STLB PREFETCH  ACCESS:          0  HIT:          0  MISS:          0
cpu0_STLB WRITEBACK ACCESS:          0  HIT:          0  MISS:          0
cpu0_L1D TOTAL     ACCESS:    6417197  HIT:    6335830  MISS:      81367
cpu0_L1D LOAD      ACCESS:    4179962  HIT:    4113387  MISS:      66575
cpu0_L1D RFO       ACCESS:    2236988  HIT:    2222261  MISS:      14727
cpu0_L1D PREFETCH  ACCESS:          0  HIT:          0  MISS:          0
cpu0_L1D WRITEBACK ACCESS:          0  HIT:          0  MISS:          0
cpu0_L2C TOTAL     ACCESS:     100507  HIT:      49497  MISS:      51010
cpu0_L2C LOAD      ACCESS:      70520  HIT:      32067  MISS:      38453
cpu0_L2C RFO       ACCESS:      14727  HIT:       2228  MISS:      12499
cpu0_L2C PREFETCH  ACCESS:          0  HIT:          0  MISS:          0
cpu0_L2C WRITEBACK ACCESS:      15195  HIT:      15142  MISS:         53
LLC TOTAL     ACCESS:      64182  HIT:      15334  MISS:      48848
LLC LOAD      ACCESS:      38453  HIT:       6685  MISS:      31768
LLC RFO       ACCESS:      12499  HIT:       1299  MISS:      11200
LLC PREFETCH  ACCESS:          0  HIT:          0  MISS:          0
LLC WRITEBACK ACCESS:      13225  HIT:       7350  MISS:       5875
Heartbeat CPU 0 instructions: 80000001 cycles: 41860346 heartbeat IPC: 1.63119 cumulative IPC: 1.36355 (Simulation time: 1 hr 10 min 56 sec) 

Region of Interest Statistics
cpu0_DTLB TOTAL     ACCESS:    6310686  HIT:    6298962  MISS:      11724
cpu0_DTLB LOAD      ACCESS:    5129285  HIT:    5118395  MISS:      10890
cpu0_DTLB RFO       ACCESS:    1181401  HIT:    1180567  MISS:        834
cpu0_DTLB PREFETCH  ACCESS:          0  HIT:          0  MISS:          0
cpu0_DTLB WRITEBACK ACCESS:          0  HIT:          0  MISS:          0
cpu0_ITLB TOTAL     ACCESS:    2390279  HIT:    2390274  MISS:          5
cpu0_ITLB LOAD      ACCESS:    2390279  HIT:    2390274  MISS:          5
cpu0_ITLB RFO       ACCESS:          0  HIT:          0  MISS:          0
cpu0_ITLB PREFETCH  ACCESS:          0  HIT:          0  MISS:          0
cpu0_ITLB WRITEBACK ACCESS:          0  HIT:          0  MISS:          0
cpu0_L1I TOTAL     ACCESS:     928183  HIT:     924237  MISS:       3946
cpu0_L1I LOAD      ACCESS:     928183  HIT:     924237  MISS:       3946
cpu0_L1I RFO       ACCESS:          0  HIT:          0  MISS:          0
cpu0_L1I PREFETCH  ACCESS:          0  HIT:          0  MISS:          0
cpu0_L1I WRITEBACK ACCESS:          0  HIT:          0  MISS:          0
cpu0_STLB TOTAL     ACCESS:      11729  HIT:      11440  MISS:        289
cpu0_STLB LOAD      ACCESS:      10895  HIT:      10650  MISS:        245
cpu0_STLB RFO       ACCESS:        834  HIT:        790  MISS:         44
cpu0_STLB PREFETCH  ACCESS:          0  HIT:          0  MISS:          0
cpu0_STLB WRITEBACK ACCESS:          0  HIT:          0  MISS:          0
cpu0_L1D TOTAL     ACCESS:    6875269  HIT:    6787899  MISS:      87370
cpu0_L1D LOAD      ACCESS:    4553152  HIT:    4483312  MISS:      69840
cpu0_L1D RFO       ACCESS:    2321859  HIT:    2304398  MISS:      17461
cpu0_L1D PREFETCH  ACCESS:          0  HIT:          0  MISS:          0
cpu0_L1D WRITEBACK ACCESS:          0  HIT:          0  MISS:          0
cpu0_L2C TOTAL     ACCESS:     109291  HIT:      55223  MISS:      54068
cpu0_L2C LOAD      ACCESS:      73786  HIT:      34967  MISS:      38819
cpu0_L2C RFO       ACCESS:      17461  HIT:       2270  MISS:      15191
cpu0_L2C PREFETCH  ACCESS:          0  HIT:          0  MISS:          0
cpu0_L2C WRITEBACK ACCESS:      17975  HIT:      17922  MISS:         53
LLC TOTAL     ACCESS:      69802  HIT:      17089  MISS:      52713
LLC LOAD      ACCESS:      38819  HIT:       6704  MISS:      32115
LLC RFO       ACCESS:      15191  HIT:       1373  MISS:      13818
LLC PREFETCH  ACCESS:          0  HIT:          0  MISS:          0
LLC WRITEBACK ACCESS:      15787  HIT:       9012  MISS:       6775
Heartbeat CPU 0 instructions: 82000003 cycles: 43104794 heartbeat IPC: 1.60714 cumulative IPC: 1.37659 (Simulation time: 1 hr 12 min 57 sec) 

Region of Interest Statistics
cpu0_DTLB TOTAL     ACCESS:    6770273  HIT:    6758466  MISS:      11807
cpu0_DTLB LOAD      ACCESS:    5537703  HIT:    5526771  MISS:      10932
cpu0_DTLB RFO       ACCESS:    1232570  HIT:    1231695  MISS:        875
cpu0_DTLB PREFETCH  ACCESS:          0  HIT:          0  MISS:          0
cpu0_DTLB WRITEBACK ACCESS:          0  HIT:          0  MISS:          0
cpu0_ITLB TOTAL     ACCESS:    2477362  HIT:    2477357  MISS:          5
cpu0_ITLB LOAD      ACCESS:    2477362  HIT:    2477357  MISS:          5
cpu0_ITLB RFO       ACCESS:          0  HIT:          0  MISS:          0
cpu0_ITLB PREFETCH  ACCESS:          0  HIT:          0  MISS:          0
cpu0_ITLB WRITEBACK ACCESS:          0  HIT:          0  MISS:          0
cpu0_L1I TOTAL     ACCESS:    1037633  HIT:    1033687  MISS:       3946
cpu0_L1I LOAD      ACCESS:    1037633  HIT:    1033687  MISS:       3946
cpu0_L1I RFO       ACCESS:          0  HIT:          0  MISS:          0
cpu0_L1I PREFETCH  ACCESS:          0  HIT:          0  MISS:          0
cpu0_L1I WRITEBACK ACCESS:          0  HIT:          0  MISS:          0
cpu0_STLB TOTAL     ACCESS:      11812  HIT:      11514  MISS:        298
cpu0_STLB LOAD      ACCESS:      10937  HIT:      10690  MISS:        247
cpu0_STLB RFO       ACCESS:        875  HIT:        824  MISS:         51
cpu0_STLB PREFETCH  ACCESS:          0  HIT:          0  MISS:          0
cpu0_STLB WRITEBACK ACCESS:          0  HIT:          0  MISS:          0
cpu0_L1D TOTAL     ACCESS:    7335203  HIT:    7241996  MISS:      93207
cpu0_L1D LOAD      ACCESS:    4933511  HIT:    4860558  MISS:      72953
cpu0_L1D RFO       ACCESS:    2401425  HIT:    2381244  MISS:      20181
cpu0_L1D PREFETCH  ACCESS:          0  HIT:          0  MISS:          0
cpu0_L1D WRITEBACK ACCESS:          0  HIT:          0  MISS:          0
cpu0_L2C TOTAL     ACCESS:     117705  HIT:      60644  MISS:      57061
cpu0_L2C LOAD      ACCESS:      76899  HIT:      37785  MISS:      39114
cpu0_L2C RFO       ACCESS:      20181  HIT:       2292  MISS:      17889
cpu0_L2C PREFETCH  ACCESS:          0  HIT:          0  MISS:          0
cpu0_L2C WRITEBACK ACCESS:      20552  HIT:      20499  MISS:         53
LLC TOTAL     ACCESS:      75222  HIT:      18364  MISS:      56858
LLC LOAD      ACCESS:      39114  HIT:       6717  MISS:      32397
LLC RFO       ACCESS:      17889  HIT:       1487  MISS:      16402
LLC PREFETCH  ACCESS:          0  HIT:          0  MISS:          0
LLC WRITEBACK ACCESS:      18214  HIT:      10160  MISS:       8054
Heartbeat CPU 0 instructions: 84000000 cycles: 44393428 heartbeat IPC: 1.55203 cumulative IPC: 1.38581 (Simulation time: 1 hr 14 min 56 sec) 

Region of Interest Statistics
cpu0_DTLB TOTAL     ACCESS:    7240478  HIT:    7228592  MISS:      11886
cpu0_DTLB LOAD      ACCESS:    5960497  HIT:    5949514  MISS:      10983
cpu0_DTLB RFO       ACCESS:    1279981  HIT:    1279078  MISS:        903
cpu0_DTLB PREFETCH  ACCESS:          0  HIT:          0  MISS:          0
cpu0_DTLB WRITEBACK ACCESS:          0  HIT:          0  MISS:          0
cpu0_ITLB TOTAL     ACCESS:    2549144  HIT:    2549139  MISS:          5
cpu0_ITLB LOAD      ACCESS:    2549144  HIT:    2549139  MISS:          5
cpu0_ITLB RFO       ACCESS:          0  HIT:          0  MISS:          0
cpu0_ITLB PREFETCH  ACCESS:          0  HIT:          0  MISS:          0
cpu0_ITLB WRITEBACK ACCESS:          0  HIT:          0  MISS:          0
cpu0_L1I TOTAL     ACCESS:    1158342  HIT:    1154396  MISS:       3946
cpu0_L1I LOAD      ACCESS:    1158342  HIT:    1154396  MISS:       3946
cpu0_L1I RFO       ACCESS:          0  HIT:          0  MISS:          0
cpu0_L1I PREFETCH  ACCESS:          0  HIT:          0  MISS:          0
cpu0_L1I WRITEBACK ACCESS:          0  HIT:          0  MISS:          0
cpu0_STLB TOTAL     ACCESS:      11891  HIT:      11584  MISS:        307
cpu0_STLB LOAD      ACCESS:      10988  HIT:      10735  MISS:        253
cpu0_STLB RFO       ACCESS:        903  HIT:        849  MISS:         54
cpu0_STLB PREFETCH  ACCESS:          0  HIT:          0  MISS:          0
cpu0_STLB WRITEBACK ACCESS:          0  HIT:          0  MISS:          0
cpu0_L1D TOTAL     ACCESS:    7818254  HIT:    7722022  MISS:      96232
cpu0_L1D LOAD      ACCESS:    5335510  HIT:    5261203  MISS:      74307
cpu0_L1D RFO       ACCESS:    2482468  HIT:    2460619  MISS:      21849
cpu0_L1D PREFETCH  ACCESS:          0  HIT:          0  MISS:          0
cpu0_L1D WRITEBACK ACCESS:          0  HIT:          0  MISS:          0
cpu0_L2C TOTAL     ACCESS:     122676  HIT:      63832  MISS:      58844
cpu0_L2C LOAD      ACCESS:      78253  HIT:      38991  MISS:      39262
cpu0_L2C RFO       ACCESS:      21849  HIT:       2325  MISS:      19524
cpu0_L2C PREFETCH  ACCESS:          0  HIT:          0  MISS:          0
cpu0_L2C WRITEBACK ACCESS:      22498  HIT:      22445  MISS:         53
LLC TOTAL     ACCESS:      78576  HIT:      18928  MISS:      59648
LLC LOAD      ACCESS:      39262  HIT:       6719  MISS:      32543
LLC RFO       ACCESS:      19524  HIT:       1542  MISS:      17982
LLC PREFETCH  ACCESS:          0  HIT:          0  MISS:          0
LLC WRITEBACK ACCESS:      19785  HIT:      10667  MISS:       9118
Heartbeat CPU 0 instructions: 86000000 cycles: 45656270 heartbeat IPC: 1.58373 cumulative IPC: 1.39549 (Simulation time: 1 hr 16 min 55 sec) 

Region of Interest Statistics
cpu0_DTLB TOTAL     ACCESS:    7698055  HIT:    7686030  MISS:      12025
cpu0_DTLB LOAD      ACCESS:    6366213  HIT:    6355140  MISS:      11073
cpu0_DTLB RFO       ACCESS:    1331842  HIT:    1330890  MISS:        952
cpu0_DTLB PREFETCH  ACCESS:          0  HIT:          0  MISS:          0
cpu0_DTLB WRITEBACK ACCESS:          0  HIT:          0  MISS:          0
cpu0_ITLB TOTAL     ACCESS:    2641768  HIT:    2641763  MISS:          5
cpu0_ITLB LOAD      ACCESS:    2641768  HIT:    2641763  MISS:          5
cpu0_ITLB RFO       ACCESS:          0  HIT:          0  MISS:          0
cpu0_ITLB PREFETCH  ACCESS:          0  HIT:          0  MISS:          0
cpu0_ITLB WRITEBACK ACCESS:          0  HIT:          0  MISS:          0
cpu0_L1I TOTAL     ACCESS:    1266536  HIT:    1262589  MISS:       3947
cpu0_L1I LOAD      ACCESS:    1266536  HIT:    1262589  MISS:       3947
cpu0_L1I RFO       ACCESS:          0  HIT:          0  MISS:          0
cpu0_L1I PREFETCH  ACCESS:          0  HIT:          0  MISS:          0
cpu0_L1I WRITEBACK ACCESS:          0  HIT:          0  MISS:          0
cpu0_STLB TOTAL     ACCESS:      12030  HIT:      11710  MISS:        320
cpu0_STLB LOAD      ACCESS:      11078  HIT:      10825  MISS:        253
cpu0_STLB RFO       ACCESS:        952  HIT:        885  MISS:         67
cpu0_STLB PREFETCH  ACCESS:          0  HIT:          0  MISS:          0
cpu0_STLB WRITEBACK ACCESS:          0  HIT:          0  MISS:          0
cpu0_L1D TOTAL     ACCESS:    8284079  HIT:    8183252  MISS:     100827
cpu0_L1D LOAD      ACCESS:    5714777  HIT:    5638116  MISS:      76661
cpu0_L1D RFO       ACCESS:    2569013  HIT:    2544925  MISS:      24088
cpu0_L1D PREFETCH  ACCESS:          0  HIT:          0  MISS:          0
cpu0_L1D WRITEBACK ACCESS:          0  HIT:          0  MISS:          0
cpu0_L2C TOTAL     ACCESS:     129217  HIT:      67804  MISS:      61413
cpu0_L2C LOAD      ACCESS:      80608  HIT:      40986  MISS:      39622
cpu0_L2C RFO       ACCESS:      24088  HIT:       2355  MISS:      21733
cpu0_L2C PREFETCH  ACCESS:          0  HIT:          0  MISS:          0
cpu0_L2C WRITEBACK ACCESS:      24443  HIT:      24390  MISS:         53
LLC TOTAL     ACCESS:      83432  HIT:      19451  MISS:      63981
LLC LOAD      ACCESS:      39622  HIT:       6727  MISS:      32895
LLC RFO       ACCESS:      21733  HIT:       1565  MISS:      20168
LLC PREFETCH  ACCESS:          0  HIT:          0  MISS:          0
LLC WRITEBACK ACCESS:      22072  HIT:      11159  MISS:      10913
Heartbeat CPU 0 instructions: 88000002 cycles: 46931262 heartbeat IPC: 1.56864 cumulative IPC: 1.40365 (Simulation time: 1 hr 18 min 54 sec) 

Region of Interest Statistics
cpu0_DTLB TOTAL     ACCESS:    8151285  HIT:    8139105  MISS:      12180
cpu0_DTLB LOAD      ACCESS:    6766350  HIT:    6755182  MISS:      11168
cpu0_DTLB RFO       ACCESS:    1384935  HIT:    1383923  MISS:       1012
cpu0_DTLB PREFETCH  ACCESS:          0  HIT:          0  MISS:          0
cpu0_DTLB WRITEBACK ACCESS:          0  HIT:          0  MISS:          0
cpu0_ITLB TOTAL     ACCESS:    2732154  HIT:    2732149  MISS:          5
cpu0_ITLB LOAD      ACCESS:    2732154  HIT:    2732149  MISS:          5
cpu0_ITLB RFO       ACCESS:          0  HIT:          0  MISS:          0
cpu0_ITLB PREFETCH  ACCESS:          0  HIT:          0  MISS:          0
cpu0_ITLB WRITEBACK ACCESS:          0  HIT:          0  MISS:          0
cpu0_L1I TOTAL     ACCESS:    1372050  HIT:    1368103  MISS:       3947
cpu0_L1I LOAD      ACCESS:    1372050  HIT:    1368103  MISS:       3947
cpu0_L1I RFO       ACCESS:          0  HIT:          0  MISS:          0
cpu0_L1I PREFETCH  ACCESS:          0  HIT:          0  MISS:          0
cpu0_L1I WRITEBACK ACCESS:          0  HIT:          0  MISS:          0
cpu0_STLB TOTAL     ACCESS:      12185  HIT:      11843  MISS:        342
cpu0_STLB LOAD      ACCESS:      11173  HIT:      10912  MISS:        261
cpu0_STLB RFO       ACCESS:       1012  HIT:        931  MISS:         81
cpu0_STLB PREFETCH  ACCESS:          0  HIT:          0  MISS:          0
cpu0_STLB WRITEBACK ACCESS:          0  HIT:          0  MISS:          0
cpu0_L1D TOTAL     ACCESS:    8736369  HIT:    8629516  MISS:     106853
cpu0_L1D LOAD      ACCESS:    6082151  HIT:    6002203  MISS:      79948
cpu0_L1D RFO       ACCESS:    2653907  HIT:    2627084  MISS:      26823
cpu0_L1D PREFETCH  ACCESS:          0  HIT:          0  MISS:          0
cpu0_L1D WRITEBACK ACCESS:          0  HIT:          0  MISS:          0
cpu0_L2C TOTAL     ACCESS:     138012  HIT:      73550  MISS:      64462
cpu0_L2C LOAD      ACCESS:      83895  HIT:      43918  MISS:      39977
cpu0_L2C RFO       ACCESS:      26823  HIT:       2397  MISS:      24426
cpu0_L2C PREFETCH  ACCESS:          0  HIT:          0  MISS:          0
cpu0_L2C WRITEBACK ACCESS:      27212  HIT:      27159  MISS:         53
LLC TOTAL     ACCESS:      89172  HIT:      19867  MISS:      69305
LLC LOAD      ACCESS:      39977  HIT:       6730  MISS:      33247
LLC RFO       ACCESS:      24426  HIT:       1617  MISS:      22809
LLC PREFETCH  ACCESS:          0  HIT:          0  MISS:          0
LLC WRITEBACK ACCESS:      24763  HIT:      11520  MISS:      13243
Heartbeat CPU 0 instructions: 90000001 cycles: 48227346 heartbeat IPC: 1.54311 cumulative IPC: 1.41002 (Simulation time: 1 hr 20 min 56 sec) 

Region of Interest Statistics
cpu0_DTLB TOTAL     ACCESS:    8604131  HIT:    8591800  MISS:      12331
cpu0_DTLB LOAD      ACCESS:    7166130  HIT:    7154868  MISS:      11262
cpu0_DTLB RFO       ACCESS:    1438001  HIT:    1436932  MISS:       1069
cpu0_DTLB PREFETCH  ACCESS:          0  HIT:          0  MISS:          0
cpu0_DTLB WRITEBACK ACCESS:          0  HIT:          0  MISS:          0
cpu0_ITLB TOTAL     ACCESS:    2822045  HIT:    2822040  MISS:          5
cpu0_ITLB LOAD      ACCESS:    2822045  HIT:    2822040  MISS:          5
cpu0_ITLB RFO       ACCESS:          0  HIT:          0  MISS:          0
cpu0_ITLB PREFETCH  ACCESS:          0  HIT:          0  MISS:          0
cpu0_ITLB WRITEBACK ACCESS:          0  HIT:          0  MISS:          0
cpu0_L1I TOTAL     ACCESS:    1477977  HIT:    1474030  MISS:       3947
cpu0_L1I LOAD      ACCESS:    1477977  HIT:    1474030  MISS:       3947
cpu0_L1I RFO       ACCESS:          0  HIT:          0  MISS:          0
cpu0_L1I PREFETCH  ACCESS:          0  HIT:          0  MISS:          0
cpu0_L1I WRITEBACK ACCESS:          0  HIT:          0  MISS:          0
cpu0_STLB TOTAL     ACCESS:      12336  HIT:      11977  MISS:        359
cpu0_STLB LOAD      ACCESS:      11267  HIT:      11001  MISS:        266
cpu0_STLB RFO       ACCESS:       1069  HIT:        976  MISS:         93
cpu0_STLB PREFETCH  ACCESS:          0  HIT:          0  MISS:          0
cpu0_STLB WRITEBACK ACCESS:          0  HIT:          0  MISS:          0
cpu0_L1D TOTAL     ACCESS:    9187017  HIT:    9074159  MISS:     112858
cpu0_L1D LOAD      ACCESS:    6447996  HIT:    6364782  MISS:      83214
cpu0_L1D RFO       ACCESS:    2738693  HIT:    2709134  MISS:      29559
cpu0_L1D PREFETCH  ACCESS:          0  HIT:          0  MISS:          0
cpu0_L1D WRITEBACK ACCESS:          0  HIT:          0  MISS:          0
cpu0_L2C TOTAL     ACCESS:     146763  HIT:      79254  MISS:      67509
cpu0_L2C LOAD      ACCESS:      87161  HIT:      46832  MISS:      40329
cpu0_L2C RFO       ACCESS:      29559  HIT:       2439  MISS:      27120
cpu0_L2C PREFETCH  ACCESS:          0  HIT:          0  MISS:          0
cpu0_L2C WRITEBACK ACCESS:      29958  HIT:      29905  MISS:         53
LLC TOTAL     ACCESS:      94978  HIT:      20301  MISS:      74677
LLC LOAD      ACCESS:      40329  HIT:       6732  MISS:      33597
LLC RFO       ACCESS:      27120  HIT:       1638  MISS:      25482
LLC PREFETCH  ACCESS:          0  HIT:          0  MISS:          0
LLC WRITEBACK ACCESS:      27522  HIT:      11931  MISS:      15591
Heartbeat CPU 0 instructions: 92000002 cycles: 49516069 heartbeat IPC: 1.55192 cumulative IPC: 1.41619 (Simulation time: 1 hr 22 min 55 sec) 

Region of Interest Statistics
cpu0_DTLB TOTAL     ACCESS:    9056364  HIT:    9043869  MISS:      12495
cpu0_DTLB LOAD      ACCESS:    7565361  HIT:    7553996  MISS:      11365
cpu0_DTLB RFO       ACCESS:    1491003  HIT:    1489873  MISS:       1130
cpu0_DTLB PREFETCH  ACCESS:          0  HIT:          0  MISS:          0
cpu0_DTLB WRITEBACK ACCESS:          0  HIT:          0  MISS:          0
cpu0_ITLB TOTAL     ACCESS:    2911381  HIT:    2911376  MISS:          5
cpu0_ITLB LOAD      ACCESS:    2911381  HIT:    2911376  MISS:          5
cpu0_ITLB RFO       ACCESS:          0  HIT:          0  MISS:          0
cpu0_ITLB PREFETCH  ACCESS:          0  HIT:          0  MISS:          0
cpu0_ITLB WRITEBACK ACCESS:          0  HIT:          0  MISS:          0
cpu0_L1I TOTAL     ACCESS:    1584109  HIT:    1580162  MISS:       3947
cpu0_L1I LOAD      ACCESS:    1584109  HIT:    1580162  MISS:       3947
cpu0_L1I RFO       ACCESS:          0  HIT:          0  MISS:          0
cpu0_L1I PREFETCH  ACCESS:          0  HIT:          0  MISS:          0
cpu0_L1I WRITEBACK ACCESS:          0  HIT:          0  MISS:          0
cpu0_STLB TOTAL     ACCESS:      12500  HIT:      12119  MISS:        381
cpu0_STLB LOAD      ACCESS:      11370  HIT:      11097  MISS:        273
cpu0_STLB RFO       ACCESS:       1130  HIT:       1022  MISS:        108
cpu0_STLB PREFETCH  ACCESS:          0  HIT:          0  MISS:          0
cpu0_STLB WRITEBACK ACCESS:          0  HIT:          0  MISS:          0
cpu0_L1D TOTAL     ACCESS:    9637063  HIT:    9518171  MISS:     118892
cpu0_L1D LOAD      ACCESS:    6813233  HIT:    6726723  MISS:      86510
cpu0_L1D RFO       ACCESS:    2823483  HIT:    2791191  MISS:      32292
cpu0_L1D PREFETCH  ACCESS:          0  HIT:          0  MISS:          0
cpu0_L1D WRITEBACK ACCESS:          0  HIT:          0  MISS:          0
cpu0_L2C TOTAL     ACCESS:     155575  HIT:      85019  MISS:      70556
cpu0_L2C LOAD      ACCESS:      90457  HIT:      49772  MISS:      40685
cpu0_L2C RFO       ACCESS:      32292  HIT:       2481  MISS:      29811
cpu0_L2C PREFETCH  ACCESS:          0  HIT:          0  MISS:          0
cpu0_L2C WRITEBACK ACCESS:      32736  HIT:      32683  MISS:         53
LLC TOTAL     ACCESS:     100612  HIT:      20880  MISS:      79732
LLC LOAD      ACCESS:      40685  HIT:       6733  MISS:      33952
LLC RFO       ACCESS:      29811  HIT:       1655  MISS:      28156
LLC PREFETCH  ACCESS:          0  HIT:          0  MISS:          0
LLC WRITEBACK ACCESS:      30109  HIT:      12492  MISS:      17617
Heartbeat CPU 0 instructions: 94000001 cycles: 50717721 heartbeat IPC: 1.66437 cumulative IPC: 1.42585 (Simulation time: 1 hr 24 min 39 sec) 

Region of Interest Statistics
cpu0_DTLB TOTAL     ACCESS:    9462764  HIT:    9449846  MISS:      12918
cpu0_DTLB LOAD      ACCESS:    7900678  HIT:    7888949  MISS:      11729
cpu0_DTLB RFO       ACCESS:    1562086  HIT:    1560897  MISS:       1189
cpu0_DTLB PREFETCH  ACCESS:          0  HIT:          0  MISS:          0
cpu0_DTLB WRITEBACK ACCESS:          0  HIT:          0  MISS:          0
cpu0_ITLB TOTAL     ACCESS:    3056286  HIT:    3056281  MISS:          5
cpu0_ITLB LOAD      ACCESS:    3056286  HIT:    3056281  MISS:          5
cpu0_ITLB RFO       ACCESS:          0  HIT:          0  MISS:          0
cpu0_ITLB PREFETCH  ACCESS:          0  HIT:          0  MISS:          0
cpu0_ITLB WRITEBACK ACCESS:          0  HIT:          0  MISS:          0
cpu0_L1I TOTAL     ACCESS:    1645759  HIT:    1641784  MISS:       3975
cpu0_L1I LOAD      ACCESS:    1645759  HIT:    1641784  MISS:       3975
cpu0_L1I RFO       ACCESS:          0  HIT:          0  MISS:          0
cpu0_L1I PREFETCH  ACCESS:          0  HIT:          0  MISS:          0
cpu0_L1I WRITEBACK ACCESS:          0  HIT:          0  MISS:          0
cpu0_STLB TOTAL     ACCESS:      12923  HIT:      12527  MISS:        396
cpu0_STLB LOAD      ACCESS:      11734  HIT:      11451  MISS:        283
cpu0_STLB RFO       ACCESS:       1189  HIT:       1076  MISS:        113
cpu0_STLB PREFETCH  ACCESS:          0  HIT:          0  MISS:          0
cpu0_STLB WRITEBACK ACCESS:          0  HIT:          0  MISS:          0
cpu0_L1D TOTAL     ACCESS:   10066546  HIT:    9940457  MISS:     126089
cpu0_L1D LOAD      ACCESS:    7107504  HIT:    7016170  MISS:      91334
cpu0_L1D RFO       ACCESS:    2958680  HIT:    2924021  MISS:      34659
cpu0_L1D PREFETCH  ACCESS:          0  HIT:          0  MISS:          0
cpu0_L1D WRITEBACK ACCESS:          0  HIT:          0  MISS:          0
cpu0_L2C TOTAL     ACCESS:     165684  HIT:      91002  MISS:      74682
cpu0_L2C LOAD      ACCESS:      95309  HIT:      52830  MISS:      42479
cpu0_L2C RFO       ACCESS:      34659  HIT:       2518  MISS:      32141
cpu0_L2C PREFETCH  ACCESS:          0  HIT:          0  MISS:          0
cpu0_L2C WRITEBACK ACCESS:      35620  HIT:      35567  MISS:         53
LLC TOTAL     ACCESS:     108410  HIT:      22394  MISS:      86016
LLC LOAD      ACCESS:      42479  HIT:       7002  MISS:      35477
LLC RFO       ACCESS:      32141  HIT:       1674  MISS:      30467
LLC PREFETCH  ACCESS:          0  HIT:          0  MISS:          0
LLC WRITEBACK ACCESS:      33781  HIT:      13717  MISS:      20064
Heartbeat CPU 0 instructions: 96000002 cycles: 51651403 heartbeat IPC: 2.14206 cumulative IPC: 1.44688 (Simulation time: 1 hr 25 min 52 sec) 

Region of Interest Statistics
cpu0_DTLB TOTAL     ACCESS:    9812935  HIT:    9799057  MISS:      13878
cpu0_DTLB LOAD      ACCESS:    8155755  HIT:    8143117  MISS:      12638
cpu0_DTLB RFO       ACCESS:    1657180  HIT:    1655940  MISS:       1240
cpu0_DTLB PREFETCH  ACCESS:          0  HIT:          0  MISS:          0
cpu0_DTLB WRITEBACK ACCESS:          0  HIT:          0  MISS:          0
cpu0_ITLB TOTAL     ACCESS:    3275036  HIT:    3275031  MISS:          5
cpu0_ITLB LOAD      ACCESS:    3275036  HIT:    3275031  MISS:          5
cpu0_ITLB RFO       ACCESS:          0  HIT:          0  MISS:          0
cpu0_ITLB PREFETCH  ACCESS:          0  HIT:          0  MISS:          0
cpu0_ITLB WRITEBACK ACCESS:          0  HIT:          0  MISS:          0
cpu0_L1I TOTAL     ACCESS:    1652420  HIT:    1648409  MISS:       4011
cpu0_L1I LOAD      ACCESS:    1652420  HIT:    1648409  MISS:       4011
cpu0_L1I RFO       ACCESS:          0  HIT:          0  MISS:          0
cpu0_L1I PREFETCH  ACCESS:          0  HIT:          0  MISS:          0
cpu0_L1I WRITEBACK ACCESS:          0  HIT:          0  MISS:          0
cpu0_STLB TOTAL     ACCESS:      13883  HIT:      13484  MISS:        399
cpu0_STLB LOAD      ACCESS:      12643  HIT:      12357  MISS:        286
cpu0_STLB RFO       ACCESS:       1240  HIT:       1127  MISS:        113
cpu0_STLB PREFETCH  ACCESS:          0  HIT:          0  MISS:          0
cpu0_STLB WRITEBACK ACCESS:          0  HIT:          0  MISS:          0
cpu0_L1D TOTAL     ACCESS:   10497241  HIT:   10366181  MISS:     131060
cpu0_L1D LOAD      ACCESS:    7318159  HIT:    7222086  MISS:      96073
cpu0_L1D RFO       ACCESS:    3178717  HIT:    3143829  MISS:      34888
cpu0_L1D PREFETCH  ACCESS:          0  HIT:          0  MISS:          0
cpu0_L1D WRITEBACK ACCESS:          0  HIT:          0  MISS:          0
cpu0_L2C TOTAL     ACCESS:     170910  HIT:      93891  MISS:      77019
cpu0_L2C LOAD      ACCESS:     100084  HIT:      55405  MISS:      44679
cpu0_L2C RFO       ACCESS:      34888  HIT:       2610  MISS:      32278
cpu0_L2C PREFETCH  ACCESS:          0  HIT:          0  MISS:          0
cpu0_L2C WRITEBACK ACCESS:      35839  HIT:      35786  MISS:         53
LLC TOTAL     ACCESS:     112828  HIT:      23915  MISS:      88913
LLC LOAD      ACCESS:      44679  HIT:       7494  MISS:      37185
LLC RFO       ACCESS:      32278  HIT:       1691  MISS:      30587
LLC PREFETCH  ACCESS:          0  HIT:          0  MISS:          0
LLC WRITEBACK ACCESS:      35862  HIT:      14729  MISS:      21133
Heartbeat CPU 0 instructions: 98000002 cycles: 52887590 heartbeat IPC: 1.61788 cumulative IPC: 1.45328 (Simulation time: 1 hr 27 min 5 sec) 

Region of Interest Statistics
cpu0_DTLB TOTAL     ACCESS:   10176814  HIT:   10161807  MISS:      15007
cpu0_DTLB LOAD      ACCESS:    8434000  HIT:    8420279  MISS:      13721
cpu0_DTLB RFO       ACCESS:    1742814  HIT:    1741528  MISS:       1286
cpu0_DTLB PREFETCH  ACCESS:          0  HIT:          0  MISS:          0
cpu0_DTLB WRITEBACK ACCESS:          0  HIT:          0  MISS:          0
cpu0_ITLB TOTAL     ACCESS:    3495376  HIT:    3495370  MISS:          6
cpu0_ITLB LOAD      ACCESS:    3495376  HIT:    3495370  MISS:          6
cpu0_ITLB RFO       ACCESS:          0  HIT:          0  MISS:          0
cpu0_ITLB PREFETCH  ACCESS:          0  HIT:          0  MISS:          0
cpu0_ITLB WRITEBACK ACCESS:          0  HIT:          0  MISS:          0
cpu0_L1I TOTAL     ACCESS:    1661131  HIT:    1656947  MISS:       4184
cpu0_L1I LOAD      ACCESS:    1661131  HIT:    1656947  MISS:       4184
cpu0_L1I RFO       ACCESS:          0  HIT:          0  MISS:          0
cpu0_L1I PREFETCH  ACCESS:          0  HIT:          0  MISS:          0
cpu0_L1I WRITEBACK ACCESS:          0  HIT:          0  MISS:          0
cpu0_STLB TOTAL     ACCESS:      15013  HIT:      14604  MISS:        409
cpu0_STLB LOAD      ACCESS:      13727  HIT:      13432  MISS:        295
cpu0_STLB RFO       ACCESS:       1286  HIT:       1172  MISS:        114
cpu0_STLB PREFETCH  ACCESS:          0  HIT:          0  MISS:          0
cpu0_STLB WRITEBACK ACCESS:          0  HIT:          0  MISS:          0
cpu0_L1D TOTAL     ACCESS:   10921693  HIT:   10784225  MISS:     137468
cpu0_L1D LOAD      ACCESS:    7546010  HIT:    7443855  MISS:     102155
cpu0_L1D RFO       ACCESS:    3375308  HIT:    3340102  MISS:      35206
cpu0_L1D PREFETCH  ACCESS:          0  HIT:          0  MISS:          0
cpu0_L1D WRITEBACK ACCESS:          0  HIT:          0  MISS:          0
cpu0_L2C TOTAL     ACCESS:     177818  HIT:      97590  MISS:      80228
cpu0_L2C LOAD      ACCESS:     106339  HIT:      58666  MISS:      47673
cpu0_L2C RFO       ACCESS:      35206  HIT:       2717  MISS:      32489
cpu0_L2C PREFETCH  ACCESS:          0  HIT:          0  MISS:          0
cpu0_L2C WRITEBACK ACCESS:      36166  HIT:      36110  MISS:         56
LLC TOTAL     ACCESS:     118115  HIT:      26210  MISS:      91905
LLC LOAD      ACCESS:      47673  HIT:       8623  MISS:      39050
LLC RFO       ACCESS:      32489  HIT:       1695  MISS:      30794
LLC PREFETCH  ACCESS:          0  HIT:          0  MISS:          0
LLC WRITEBACK ACCESS:      37943  HIT:      15891  MISS:      22052
Heartbeat CPU 0 instructions: 100000004 cycles: 54931141 heartbeat IPC: 0.97869 cumulative IPC: 1.42563 (Simulation time: 1 hr 28 min 22 sec) 

Region of Interest Statistics
cpu0_DTLB TOTAL     ACCESS:   10567007  HIT:   10550858  MISS:      16149
cpu0_DTLB LOAD      ACCESS:    8760360  HIT:    8745546  MISS:      14814
cpu0_DTLB RFO       ACCESS:    1806647  HIT:    1805312  MISS:       1335
cpu0_DTLB PREFETCH  ACCESS:          0  HIT:          0  MISS:          0
cpu0_DTLB WRITEBACK ACCESS:          0  HIT:          0  MISS:          0
cpu0_ITLB TOTAL     ACCESS:    3716117  HIT:    3716111  MISS:          6
cpu0_ITLB LOAD      ACCESS:    3716117  HIT:    3716111  MISS:          6
cpu0_ITLB RFO       ACCESS:          0  HIT:          0  MISS:          0
cpu0_ITLB PREFETCH  ACCESS:          0  HIT:          0  MISS:          0
cpu0_ITLB WRITEBACK ACCESS:          0  HIT:          0  MISS:          0
cpu0_L1I TOTAL     ACCESS:    1676994  HIT:    1672798  MISS:       4196
cpu0_L1I LOAD      ACCESS:    1676994  HIT:    1672798  MISS:       4196
cpu0_L1I RFO       ACCESS:          0  HIT:          0  MISS:          0
cpu0_L1I PREFETCH  ACCESS:          0  HIT:          0  MISS:          0
cpu0_L1I WRITEBACK ACCESS:          0  HIT:          0  MISS:          0
cpu0_STLB TOTAL     ACCESS:      16155  HIT:      15741  MISS:        414
cpu0_STLB LOAD      ACCESS:      14820  HIT:      14520  MISS:        300
cpu0_STLB RFO       ACCESS:       1335  HIT:       1221  MISS:        114
cpu0_STLB PREFETCH  ACCESS:          0  HIT:          0  MISS:          0
cpu0_STLB WRITEBACK ACCESS:          0  HIT:          0  MISS:          0
cpu0_L1D TOTAL     ACCESS:   11342094  HIT:   11197051  MISS:     145043
cpu0_L1D LOAD      ACCESS:    7819959  HIT:    7710541  MISS:     109418
cpu0_L1D RFO       ACCESS:    3521755  HIT:    3486239  MISS:      35516
cpu0_L1D PREFETCH  ACCESS:          0  HIT:          0  MISS:          0
cpu0_L1D WRITEBACK ACCESS:          0  HIT:          0  MISS:          0
cpu0_L2C TOTAL     ACCESS:     185674  HIT:     100498  MISS:      85176
cpu0_L2C LOAD      ACCESS:     113614  HIT:      61129  MISS:      52485
cpu0_L2C RFO       ACCESS:      35516  HIT:       2892  MISS:      32624
cpu0_L2C PREFETCH  ACCESS:          0  HIT:          0  MISS:          0
cpu0_L2C WRITEBACK ACCESS:      36435  HIT:      36378  MISS:         57
LLC TOTAL     ACCESS:     124441  HIT:      28324  MISS:      96117
LLC LOAD      ACCESS:      52485  HIT:      10004  MISS:      42481
LLC RFO       ACCESS:      32624  HIT:       1716  MISS:      30908
LLC PREFETCH  ACCESS:          0  HIT:          0  MISS:          0
LLC WRITEBACK ACCESS:      39322  HIT:      16603  MISS:      22719
Heartbeat CPU 0 instructions: 102000003 cycles: 56819850 heartbeat IPC: 1.05892 cumulative IPC: 1.40689 (Simulation time: 1 hr 29 min 38 sec) 

Region of Interest Statistics
cpu0_DTLB TOTAL     ACCESS:   10955054  HIT:   10937543  MISS:      17511
cpu0_DTLB LOAD      ACCESS:    9081555  HIT:    9065450  MISS:      16105
cpu0_DTLB RFO       ACCESS:    1873499  HIT:    1872093  MISS:       1406
cpu0_DTLB PREFETCH  ACCESS:          0  HIT:          0  MISS:          0
cpu0_DTLB WRITEBACK ACCESS:          0  HIT:          0  MISS:          0
cpu0_ITLB TOTAL     ACCESS:    3937141  HIT:    3937135  MISS:          6
cpu0_ITLB LOAD      ACCESS:    3937141  HIT:    3937135  MISS:          6
cpu0_ITLB RFO       ACCESS:          0  HIT:          0  MISS:          0
cpu0_ITLB PREFETCH  ACCESS:          0  HIT:          0  MISS:          0
cpu0_ITLB WRITEBACK ACCESS:          0  HIT:          0  MISS:          0
cpu0_L1I TOTAL     ACCESS:    1691748  HIT:    1687544  MISS:       4204
cpu0_L1I LOAD      ACCESS:    1691748  HIT:    1687544  MISS:       4204
cpu0_L1I RFO       ACCESS:          0  HIT:          0  MISS:          0
cpu0_L1I PREFETCH  ACCESS:          0  HIT:          0  MISS:          0
cpu0_L1I WRITEBACK ACCESS:          0  HIT:          0  MISS:          0
cpu0_STLB TOTAL     ACCESS:      17517  HIT:      17102  MISS:        415
cpu0_STLB LOAD      ACCESS:      16111  HIT:      15811  MISS:        300
cpu0_STLB RFO       ACCESS:       1406  HIT:       1291  MISS:        115
cpu0_STLB PREFETCH  ACCESS:          0  HIT:          0  MISS:          0
cpu0_STLB WRITEBACK ACCESS:          0  HIT:          0  MISS:          0
cpu0_L1D TOTAL     ACCESS:   11763539  HIT:   11611117  MISS:     152422
cpu0_L1D LOAD      ACCESS:    8088840  HIT:    7972377  MISS:     116463
cpu0_L1D RFO       ACCESS:    3674318  HIT:    3638469  MISS:      35849
cpu0_L1D PREFETCH  ACCESS:          0  HIT:          0  MISS:          0
cpu0_L1D WRITEBACK ACCESS:          0  HIT:          0  MISS:          0
cpu0_L2C TOTAL     ACCESS:     193399  HIT:     103595  MISS:      89804
cpu0_L2C LOAD      ACCESS:     120667  HIT:      63709  MISS:      56958
cpu0_L2C RFO       ACCESS:      35849  HIT:       3070  MISS:      32779
cpu0_L2C PREFETCH  ACCESS:          0  HIT:          0  MISS:          0
cpu0_L2C WRITEBACK ACCESS:      36773  HIT:      36716  MISS:         57
LLC TOTAL     ACCESS:     129460  HIT:      29637  MISS:      99823
LLC LOAD      ACCESS:      56958  HIT:      11118  MISS:      45840
LLC RFO       ACCESS:      32779  HIT:       1731  MISS:      31048
LLC PREFETCH  ACCESS:          0  HIT:          0  MISS:          0
LLC WRITEBACK ACCESS:      39713  HIT:      16787  MISS:      22926
Heartbeat CPU 0 instructions: 104000001 cycles: 58350723 heartbeat IPC: 1.30644 cumulative IPC: 1.4029 (Simulation time: 1 hr 30 min 57 sec) 

Region of Interest Statistics
cpu0_DTLB TOTAL     ACCESS:   11330713  HIT:   11311971  MISS:      18742
cpu0_DTLB LOAD      ACCESS:    9385631  HIT:    9368339  MISS:      17292
cpu0_DTLB RFO       ACCESS:    1945082  HIT:    1943632  MISS:       1450
cpu0_DTLB PREFETCH  ACCESS:          0  HIT:          0  MISS:          0
cpu0_DTLB WRITEBACK ACCESS:          0  HIT:          0  MISS:          0
cpu0_ITLB TOTAL     ACCESS:    4133636  HIT:    4133630  MISS:          6
cpu0_ITLB LOAD      ACCESS:    4133636  HIT:    4133630  MISS:          6
cpu0_ITLB RFO       ACCESS:          0  HIT:          0  MISS:          0
cpu0_ITLB PREFETCH  ACCESS:          0  HIT:          0  MISS:          0
cpu0_ITLB WRITEBACK ACCESS:          0  HIT:          0  MISS:          0
cpu0_L1I TOTAL     ACCESS:    1706986  HIT:    1702779  MISS:       4207
cpu0_L1I LOAD      ACCESS:    1706986  HIT:    1702779  MISS:       4207
cpu0_L1I RFO       ACCESS:          0  HIT:          0  MISS:          0
cpu0_L1I PREFETCH  ACCESS:          0  HIT:          0  MISS:          0
cpu0_L1I WRITEBACK ACCESS:          0  HIT:          0  MISS:          0
cpu0_STLB TOTAL     ACCESS:      18748  HIT:      18323  MISS:        425
cpu0_STLB LOAD      ACCESS:      17298  HIT:      16989  MISS:        309
cpu0_STLB RFO       ACCESS:       1450  HIT:       1334  MISS:        116
cpu0_STLB PREFETCH  ACCESS:          0  HIT:          0  MISS:          0
cpu0_STLB WRITEBACK ACCESS:          0  HIT:          0  MISS:          0
cpu0_L1D TOTAL     ACCESS:   12169219  HIT:   12009393  MISS:     159826
cpu0_L1D LOAD      ACCESS:    8332211  HIT:    8208698  MISS:     123513
cpu0_L1D RFO       ACCESS:    3836617  HIT:    3800418  MISS:      36199
cpu0_L1D PREFETCH  ACCESS:          0  HIT:          0  MISS:          0
cpu0_L1D WRITEBACK ACCESS:          0  HIT:          0  MISS:          0
cpu0_L2C TOTAL     ACCESS:     201152  HIT:     106084  MISS:      95068
cpu0_L2C LOAD      ACCESS:     127720  HIT:      65689  MISS:      62031
cpu0_L2C RFO       ACCESS:      36199  HIT:       3234  MISS:      32965
cpu0_L2C PREFETCH  ACCESS:          0  HIT:          0  MISS:          0
cpu0_L2C WRITEBACK ACCESS:      37119  HIT:      37058  MISS:         61
LLC TOTAL     ACCESS:     134862  HIT:      30871  MISS:     103991
LLC LOAD      ACCESS:      62031  HIT:      12232  MISS:      49799
LLC RFO       ACCESS:      32965  HIT:       1760  MISS:      31205
LLC PREFETCH  ACCESS:          0  HIT:          0  MISS:          0
LLC WRITEBACK ACCESS:      39855  HIT:      16877  MISS:      22978
Heartbeat CPU 0 instructions: 106000002 cycles: 59905541 heartbeat IPC: 1.28632 cumulative IPC: 1.39837 (Simulation time: 1 hr 32 min 18 sec) 

Region of Interest Statistics
cpu0_DTLB TOTAL     ACCESS:   11697723  HIT:   11677676  MISS:      20047
cpu0_DTLB LOAD      ACCESS:    9680958  HIT:    9662424  MISS:      18534
cpu0_DTLB RFO       ACCESS:    2016765  HIT:    2015252  MISS:       1513
cpu0_DTLB PREFETCH  ACCESS:          0  HIT:          0  MISS:          0
cpu0_DTLB WRITEBACK ACCESS:          0  HIT:          0  MISS:          0
cpu0_ITLB TOTAL     ACCESS:    4335648  HIT:    4335642  MISS:          6
cpu0_ITLB LOAD      ACCESS:    4335648  HIT:    4335642  MISS:          6
cpu0_ITLB RFO       ACCESS:          0  HIT:          0  MISS:          0
cpu0_ITLB PREFETCH  ACCESS:          0  HIT:          0  MISS:          0
cpu0_ITLB WRITEBACK ACCESS:          0  HIT:          0  MISS:          0
cpu0_L1I TOTAL     ACCESS:    1722554  HIT:    1718345  MISS:       4209
cpu0_L1I LOAD      ACCESS:    1722554  HIT:    1718345  MISS:       4209
cpu0_L1I RFO       ACCESS:          0  HIT:          0  MISS:          0
cpu0_L1I PREFETCH  ACCESS:          0  HIT:          0  MISS:          0
cpu0_L1I WRITEBACK ACCESS:          0  HIT:          0  MISS:          0
cpu0_STLB TOTAL     ACCESS:      20053  HIT:      19621  MISS:        432
cpu0_STLB LOAD      ACCESS:      18540  HIT:      18224  MISS:        316
cpu0_STLB RFO       ACCESS:       1513  HIT:       1397  MISS:        116
cpu0_STLB PREFETCH  ACCESS:          0  HIT:          0  MISS:          0
cpu0_STLB WRITEBACK ACCESS:          0  HIT:          0  MISS:          0
cpu0_L1D TOTAL     ACCESS:   12563698  HIT:   12396104  MISS:     167594
cpu0_L1D LOAD      ACCESS:    8562376  HIT:    8431453  MISS:     130923
cpu0_L1D RFO       ACCESS:    4000924  HIT:    3964371  MISS:      36553
cpu0_L1D PREFETCH  ACCESS:          0  HIT:          0  MISS:          0
cpu0_L1D WRITEBACK ACCESS:          0  HIT:          0  MISS:          0
cpu0_L2C TOTAL     ACCESS:     209174  HIT:     108830  MISS:     100344
cpu0_L2C LOAD      ACCESS:     135132  HIT:      68023  MISS:      67109
cpu0_L2C RFO       ACCESS:      36553  HIT:       3395  MISS:      33158
cpu0_L2C PREFETCH  ACCESS:          0  HIT:          0  MISS:          0
cpu0_L2C WRITEBACK ACCESS:      37371  HIT:      37305  MISS:         66
[...]
cpu0_DTLB TOTAL     ACCESS:  326998571  HIT:  326349637  MISS:     648934
cpu0_DTLB LOAD      ACCESS:  271496458  HIT:  270961856  MISS:     534602
cpu0_DTLB RFO       ACCESS:   55502113  HIT:   55387781  MISS:     114332
cpu0_DTLB PREFETCH  ACCESS:          0  HIT:          0  MISS:          0
cpu0_DTLB WRITEBACK ACCESS:          0  HIT:          0  MISS:          0
cpu0_DTLB TRANSLATION ACCESS:          0  HIT:          0  MISS:          0
cpu0_DTLB PREFETCH  REQUESTED:          0  ISSUED:          0  USEFUL:          0  USELESS:          0
cpu0_DTLB AVERAGE MISS LATENCY: 9.62267 cycles
cpu0_ITLB TOTAL     ACCESS:  104772707  HIT:  104772393  MISS:        314
cpu0_ITLB LOAD      ACCESS:  104772707  HIT:  104772393  MISS:        314
cpu0_ITLB RFO       ACCESS:          0  HIT:          0  MISS:          0
cpu0_ITLB PREFETCH  ACCESS:          0  HIT:          0  MISS:          0
cpu0_ITLB WRITEBACK ACCESS:          0  HIT:          0  MISS:          0
cpu0_ITLB TRANSLATION ACCESS:          0  HIT:          0  MISS:          0
cpu0_ITLB PREFETCH  REQUESTED:          0  ISSUED:          0  USEFUL:          0  USELESS:          0
cpu0_ITLB AVERAGE MISS LATENCY: 70.7229 cycles
cpu0_L1I TOTAL     ACCESS:   69608026  HIT:   69511931  MISS:      96095
cpu0_L1I LOAD      ACCESS:   69608026  HIT:   69511931  MISS:      96095
cpu0_L1I RFO       ACCESS:          0  HIT:          0  MISS:          0
cpu0_L1I PREFETCH  ACCESS:          0  HIT:          0  MISS:          0
cpu0_L1I WRITEBACK ACCESS:          0  HIT:          0  MISS:          0
cpu0_L1I TRANSLATION ACCESS:          0  HIT:          0  MISS:          0
cpu0_L1I PREFETCH  REQUESTED:          0  ISSUED:          0  USEFUL:          0  USELESS:          0
cpu0_L1I AVERAGE MISS LATENCY: 114.366 cycles
cpu0_STLB TOTAL     ACCESS:     649248  HIT:     643785  MISS:       5463
cpu0_STLB LOAD      ACCESS:     534916  HIT:     531524  MISS:       3392
cpu0_STLB RFO       ACCESS:     114332  HIT:     112261  MISS:       2071
cpu0_STLB PREFETCH  ACCESS:          0  HIT:          0  MISS:          0
cpu0_STLB WRITEBACK ACCESS:          0  HIT:          0  MISS:          0
cpu0_STLB TRANSLATION ACCESS:          0  HIT:          0  MISS:          0
cpu0_STLB PREFETCH  REQUESTED:          0  ISSUED:          0  USEFUL:          0  USELESS:          0
cpu0_STLB AVERAGE MISS LATENCY: 76.3888 cycles
cpu0_L1D TOTAL     ACCESS:  345559079  HIT:  341643543  MISS:    3915536
cpu0_L1D LOAD      ACCESS:  248179679  HIT:  245376709  MISS:    2802970
cpu0_L1D RFO       ACCESS:   97374256  HIT:   96263398  MISS:    1110858
cpu0_L1D PREFETCH  ACCESS:          0  HIT:          0  MISS:          0
cpu0_L1D WRITEBACK ACCESS:          0  HIT:          0  MISS:          0
cpu0_L1D TRANSLATION ACCESS:       5144  HIT:       3436  MISS:       1708
cpu0_L1D PREFETCH  REQUESTED:          0  ISSUED:          0  USEFUL:          0  USELESS:          0
cpu0_L1D AVERAGE MISS LATENCY: 165.968 cycles
cpu0_L2C TOTAL     ACCESS:    5143540  HIT:    2873442  MISS:    2270098
cpu0_L2C LOAD      ACCESS:    2899056  HIT:    1629733  MISS:    1269323
cpu0_L2C RFO       ACCESS:    1110827  HIT:     111983  MISS:     998844
cpu0_L2C PREFETCH  ACCESS:          0  HIT:          0  MISS:          0
cpu0_L2C WRITEBACK ACCESS:    1131949  HIT:    1130298  MISS:       1651
cpu0_L2C TRANSLATION ACCESS:       1708  HIT:       1428  MISS:        280
cpu0_L2C PREFETCH  REQUESTED:          0  ISSUED:          0  USEFUL:          0  USELESS:          0
cpu0_L2C AVERAGE MISS LATENCY: 271.646 cycles
LLC TOTAL     ACCESS:    3282594  HIT:     715570  MISS:    2567024
LLC LOAD      ACCESS:    1269322  HIT:     239670  MISS:    1029652
LLC RFO       ACCESS:     998844  HIT:      59113  MISS:     939731
LLC PREFETCH  ACCESS:          0  HIT:          0  MISS:          0
LLC WRITEBACK ACCESS:    1014148  HIT:     416765  MISS:     597383
LLC TRANSLATION ACCESS:        280  HIT:         22  MISS:        258
LLC PREFETCH  REQUESTED:          0  ISSUED:          0  USEFUL:          0  USELESS:          0
LLC AVERAGE MISS LATENCY: 221.667 cycles
~~~~~~~~~~Reuse Distance Profiler output~~~~~~~~~~
0	56222480	19964368
1	33086096	22658272
2	31075760	24128160
3	26126480	21546288
4	20830448	17692208
5	15601680	12736160
6	12916272	10692944
7	10993952	9419376
8	10798800	9632880
9	7553520	6175440
10	6565184	5488464
11	6286768	5245184
12	6108560	5112176
13	5089792	4228144
14	3778864	2904304
15	3594976	2743792
16	3187328	2361024
17	3196144	2417152
18	3457008	2268320
19	2832192	2143248
20	2796528	1984416
21	2544880	1876752
22	2144128	1634800
23	1802448	1351488
24	1765632	1265472
25	1592336	1095024
26	1505280	989424
27	1373872	900384
28	1443472	1032656
29	1173552	850976
30	1113088	840656
31	1180432	868224
32	1094832	820880
33	1488704	1273008
34	965376	789472
35	872144	712080
36	795744	638528
37	737728	605408
38	689296	569632
39	665824	569968
40	698976	610512
41	682176	585408
42	685376	590352
43	709024	604048
44	697648	589968
45	670272	566912
46	759104	659504
47	676288	609504
48	664096	609968
49	631216	577136
50	637152	589344
51	667200	609344
52	624000	569872
53	572400	503792
54	514928	462992
55	408176	352560
56	364976	325040
57	322704	282976
58	322400	290688
59	290368	259536
60	276896	236080
61	279488	247696
62	259792	232768
63	269440	243056
64	455920	413536
66	512736	458784
68	512256	414752
70	404368	348528
72	390704	345792
74	422016	360512
76	552800	439968
78	455392	355840
80	525216	374992
82	480976	370400
84	435840	342496
86	419584	297328
88	402848	310624
90	411968	314608
92	363120	292992
94	369936	298048
96	422464	310320
98	364368	284704
100	471744	369648
102	461104	340368
104	460416	313664
106	446880	306320
108	442672	286912
110	458992	274544
112	357536	267456
114	363024	286096
116	369920	279952
118	410496	336464
120	515664	367328
122	448224	332048
124	418944	341200
126	439744	321824
128	898208	731856
132	1119152	935040
136	682512	545456
140	465120	373520
144	393824	317472
148	355536	288608
152	304448	265408
156	254928	220128
160	269376	231280
164	231008	200464
168	147344	125760
172	134048	116864
176	116960	107632
180	108080	99872
184	92992	85120
188	98064	77568
192	97152	76608
196	109040	100896
200	128080	103424
204	110832	87488
208	108032	93600
212	104864	97104
216	89744	83072
220	88576	80576
224	74464	66752
228	87520	70576
232	77584	66864
236	78480	64736
240	70432	63664
244	63616	59632
248	89984	78752
252	112720	94112
256	288640	272816
264	356112	342512
272	331328	320480
280	203440	196128
288	129008	122512
296	130208	120512
304	134800	123296
312	139456	127664
320	155616	140656
328	190176	165440
336	187872	160928
344	183968	160976
352	199968	174528
360	226208	203088
368	262304	228864
376	333648	268752
384	429008	312000
392	449856	320768
400	520192	367376
408	567344	380512
416	591088	404112
424	625280	428272
432	657840	438560
440	671232	439008
448	701744	437456
456	746624	438288
464	822016	434144
472	853952	408736
480	843104	368976
488	746240	303376
496	601392	237216
504	430736	175792
512	494656	275920
528	304816	243552
544	197328	162880
560	168704	139600
576	160880	124032
592	182784	146240
608	190272	157232
624	184496	155376
640	191264	154736
656	191664	154544
672	188000	150704
688	171424	136896
704	165856	132368
720	189104	155424
736	277984	226640
752	281984	236592
768	308608	261504
784	335984	286992
800	347168	293840
816	398256	322656
832	450864	325120
848	402720	298064
864	362064	294192
880	370752	316896
896	402608	352768
912	432368	408528
928	455968	444688
944	528128	519216
960	479600	472128
976	333088	326576
992	229584	223280
1008	158656	152032
1024	164752	151440
1056	107920	96544
1088	98016	87152
1120	73776	63152
1152	83472	74144
1184	123152	108240
1216	124048	110784
1248	111552	100640
1280	110720	100112
1312	111792	97568
1344	96128	81120
1376	75984	63616
1408	83904	69488
1440	59728	48192
1472	50608	40656
1504	59168	49616
1536	73568	62832
1568	83200	74000
1600	104160	95344
1632	147200	135776
1664	137344	127248
1696	84256	76000
1728	57504	50176
1760	75680	68400
1792	56688	49952
1824	47344	40576
1856	33456	27680
1888	35632	29440
1920	39840	33504
1952	40208	33744
1984	35968	29856
2016	30416	24448
2048	63120	52336
2112	61264	50960
2176	51328	39984
2240	62384	50880
2304	56560	48112
2368	57200	49824
2432	52976	43504
2496	41856	33840
2560	34608	29216
2624	31872	27424
2688	24480	20256
2752	24672	20864
2816	30192	26288
2880	27600	24064
2944	33936	30160
3008	32128	27520
3072	34672	30832
3136	33440	29296
3200	32768	28624
3264	35024	30752
3328	42272	37888
3392	42656	39296
3456	55584	52512
3520	84592	72064
3584	82832	55904
3648	106096	41136
3712	34288	31136
3776	33808	31376
3840	34032	31424
3904	30464	28208
3968	30880	28672
4032	32336	30144
4096	63616	58720
4224	63088	58896
4352	60000	55904
4480	64272	59040
4608	68128	63312
4736	65792	60640
4864	61584	57536
4992	59152	56016
5120	55056	51504
5248	53664	49968
5376	49024	45296
5504	52144	48240
5632	58144	54688
5760	58688	54896
5888	57072	54384
6016	59648	57504
6144	59168	56688
6272	55792	53104
6400	57568	55376
6528	48784	46896
6656	43728	41456
6784	48512	46512
6912	48416	46640
7040	38080	35984
7168	32992	30880
7296	33520	31776
7424	32816	31136
7552	28368	27008
7680	23920	22192
7808	25120	23568
7936	25504	24000
8064	20128	18880
8192	35376	33296
8448	29680	27616
8704	25488	23856
8960	27600	25392
9216	26112	23328
9472	28432	26080
9728	25008	22816
9984	28016	25776
10240	30048	27232
10496	59776	53616
10752	370080	218816
11008	134128	71488
11264	25120	21152
11520	23616	22288
11776	25792	24272
12032	22288	21200
12288	19792	18576
12544	21488	20096
12800	19184	18176
13056	18032	17200
13312	19424	18128
13568	15648	14688
13824	20032	18592
14080	17744	16448
14336	18512	17280
14592	15376	14224
14848	15040	13856
15104	13456	11792
15360	13056	11584
15616	11904	10976
15872	11968	10832
16128	16336	15424
16384	23648	21552
16896	22208	20032
17408	22144	20288
17920	22576	20720
18432	29552	27168
18944	25712	23360
19456	25856	24048
19968	19616	18368
20480	15472	14576
20992	14384	13392
21504	12368	11136
22016	14064	12784
22528	11648	10624
23040	13232	12480
23552	9600	8832
24064	9552	8896
24576	7040	6160
25088	6768	6256
25600	7392	6752
26112	5152	4576
26624	5296	4992
27136	5568	5136
27648	6512	5952
28160	4992	4576
28672	4576	3904
29184	4736	4240
29696	5168	4704
30208	6528	6160
30720	6464	5632
31232	6096	5440
31744	5904	4912
32256	7440	6448
32768	12112	10064
33792	12080	9968
34816	14432	12720
35840	10816	8992
36864	9856	7968
37888	10960	9344
38912	9504	8144
39936	8944	7536
40960	8640	7056
41984	10096	8384
43008	7616	6560
44032	7824	6576
45056	6352	4832
46080	7104	6704
47104	4800	4256
48128	4624	4112
49152	3376	3136
50176	3200	2640
51200	2912	2576
52224	2688	2368
53248	2432	2192
54272	2624	2480
55296	2416	2336
56320	2848	2720
57344	2640	2288
58368	2624	2512
59392	2496	2336
60416	2528	2448
61440	2336	2224
62464	2080	1936
63488	2336	2128
64512	1840	1680
65536	4352	4016
67584	4592	4144
69632	3920	3680
71680	4256	3952
73728	4144	3776
75776	4064	3776
77824	4208	3680
79872	5072	4800
81920	4032	3728
83968	4640	4368
86016	4976	4640
88064	5712	5408
90112	6560	6096
92160	7152	6704
94208	8784	8464
96256	8864	8416
98304	8944	8272
100352	10032	9232
102400	9840	8992
104448	9904	9184
106496	10640	9936
108544	11888	10992
110592	11872	11056
112640	13744	12656
114688	12784	12016
116736	13504	12672
118784	14160	13168
120832	14720	13696
122880	15408	14432
124928	14656	13600
126976	15344	14304
129024	15008	14048
131072	27360	25472
135168	25696	24224
139264	24544	22800
143360	21456	19952
147456	18016	16624
151552	18784	17872
155648	16288	15424
159744	16256	14976
163840	15200	13952
167936	14880	13968
172032	11600	10800
176128	11744	11120
180224	11248	10528
184320	11520	10896
188416	11840	11568
192512	10992	10576
196608	9808	9456
200704	8656	8272
204800	9664	9168
208896	8512	8160
212992	7840	7392
217088	6848	6352
221184	6704	6352
225280	5808	5392
229376	6048	5648
233472	6192	5792
237568	7504	6864
241664	6384	6128
245760	6224	5984
249856	6144	5840
253952	6848	5728
258048	6800	5936
262144	13664	11664
270336	11520	10288
278528	13504	11136
286720	13776	12192
294912	10368	9568
303104	12032	10320
311296	13424	11040
319488	12560	10112
327680	10192	9248
335872	9280	8768
344064	8704	7968
352256	9056	8288
360448	9168	8656
368640	10352	10048
376832	10272	10016
385024	9072	8816
393216	9536	9360
401408	8944	8880
409600	8176	7952
417792	8128	7984
425984	7744	7472
434176	7424	7120
442368	6848	6464
450560	7440	7184
458752	6976	6576
466944	7536	7168
475136	7216	6896
483328	7072	6704
491520	8896	8320
499712	9088	8432
507904	9312	8624
516096	8368	7136
524288	14160	12528
540672	21136	19648
557056	22432	21184
573440	16624	15568
589824	7984	7584
606208	5584	5232
622592	4640	4400
638976	4528	4128
655360	4000	3776
671744	4368	3888
688128	6480	6096
704512	4736	4384
720896	6320	5840
737280	5632	5184
753664	3648	3504
770048	7936	7632
786432	4336	3904
802816	2336	2240
819200	2464	2432
835584	2160	1984
851968	2080	1920
868352	2032	1968
884736	2224	2160
901120	2352	1920
917504	1872	1760
933888	1792	1728
950272	2128	1968
966656	1728	1456
983040	1920	1760
999424	1616	1456
1015808	4480	4016
1032192	1888	1744
1048576	4288	3952
1081344	4544	4176
1114112	4624	4080
1146880	5408	5088
1179648	4608	4240
1212416	5392	5024
1245184	5216	4656
1277952	5440	5072
1310720	6400	5856
1343488	5888	5120
1376256	5200	4704
1409024	5408	5040
1441792	6416	5840
1474560	5776	4912
1507328	4864	4288
1540096	5856	4800
1572864	6576	5296
1605632	5312	4384
1638400	5792	4416
1671168	6448	5248
1703936	6608	5248
1736704	5328	4192
1769472	6864	5376
1802240	6016	4592
1835008	6480	5504
1867776	6160	5184
1900544	7072	5840
1933312	5728	4656
1966080	5456	4400
1998848	7424	6464
2031616	5648	4256
2064384	5744	4464
2097152	12576	9120
2162688	13152	9856
2228224	14800	9776
2293760	14256	9968
2359296	14656	10640
2424832	17232	11984
2490368	15440	11632
2555904	15728	10080
2621440	16128	11440
2686976	17632	11152
2752512	15744	8736
2818048	19088	12816
2883584	17280	11376
2949120	19424	12336
3014656	17664	12128
3080192	19456	12448
3145728	17952	11232
3211264	20592	11856
3276800	16528	9104
3342336	20304	11280
3407872	21488	13200
3473408	19504	10960
3538944	21040	12672
3604480	19776	11328
3670016	21632	12880
3735552	19072	9888
3801088	21264	12160
3866624	20960	11760
3932160	22512	12720
3997696	22496	12448
4063232	21040	11424
4128768	21936	12336
4194304	41856	23920
4325376	42432	22224
4456448	43600	22848
4587520	45872	25728
4718592	46544	26944
4849664	43856	22784
4980736	44080	22656
5111808	42224	23968
5242880	43056	23312
5373952	41264	19712
5505024	44096	23264
5636096	41232	22016
5767168	41296	21328
5898240	40208	19072
6029312	41920	19280
6160384	38160	18160
6291456	36512	18128
6422528	35168	16800
6553600	37712	16576
6684672	32944	13936
6815744	32176	14512
6946816	29936	12752
7077888	30880	12608
7208960	28400	10752
7340032	25728	10528
7471104	24544	9824
7602176	21952	7312
7733248	19968	6448
7864320	18320	6336
7995392	18400	6496
8126464	15424	3744
8257536	14336	3888
8388608	28240	9600
8650752	29488	10608
8912896	28192	10544
9175040	24752	9392
9437184	23360	8400
9699328	18080	7440
9961472	13824	5344
10223616	15312	4752
10485760	6832	2080
10747904	4608	2048
11010048	6304	1792
11272192	4048	1552
11534336	3360	768
11796480	2592	752
12058624	1872	576
12320768	1072	64
12582912	528	176
12845056	704	256
13107200	928	208
13369344	992	176
13631488	400	240
13893632	1136	400
14155776	1520	352
14417920	880	512
14680064	576	224
14942208	512	224
15204352	96	64
15466496	432	144
15728640	96	64
15990784	16	16
16252928	192	160
16515072	128	64
16777216	144	144
17301504	208	192
17825792	480	320
18350080	864	400
18874368	992	208
19398656	1760	112
19922944	1504	192
20447232	1936	176
20971520	1760	48
21495808	2016	64
22020096	1888	48
22544384	2352	48
23068672	2288	64
23592960	1744	16
24117248	1920	80
24641536	2016	32
25165824	2016	64
25690112	2144	64
26214400	1728	96
26738688	1664	272
27262976	1056	64
27787264	784	112
28311552	1440	288
28835840	896	96
29360128	128	48
29884416	96	80
30408704	80	0
30932992	64	16
31457280	0	0
31981568	80	80
32505856	64	16
33030144	0	0
33554432	32	32
34603008	112	112
35651584	48	0
36700160	80	16
37748736	48	0
38797312	64	64
39845888	16	16
40894464	32	32
41943040	16	16
42991616	64	64
44040192	48	32
45088768	64	48
46137344	0	0
47185920	128	80
48234496	96	96
49283072	96	96
50331648	32	32
51380224	128	128
52428800	0	0
53477376	16	16
54525952	32	16
55574528	240	96
56623104	96	48
57671680	32	32
58720256	160	0
59768832	64	64
60817408	64	64
61865984	0	0
62914560	0	0
63963136	336	272
65011712	64	48
66060288	128	80
67108864	672	672
69206016	432	432
71303168	912	912
73400320	160	144
75497472	336	288
77594624	160	160
79691776	96	96
81788928	272	240
83886080	112	80
85983232	480	480
88080384	128	128
90177536	144	112
92274688	288	272
94371840	752	720
96468992	784	752
98566144	512	480
100663296	672	656
102760448	1072	1008
104857600	960	928
106954752	432	432
109051904	176	160
111149056	352	336
113246208	368	336
115343360	352	320
117440512	144	144
119537664	80	64
121634816	64	48
123731968	192	160
125829120	128	112
127926272	144	128
130023424	48	48
132120576	144	112
134217728	80	80
138412032	112	80
142606336	48	32
146800640	48	48
150994944	112	112
155189248	96	64
159383552	64	64
163577856	32	16
167772160	96	80
171966464	64	32
176160768	48	48
180355072	16	0
184549376	0	0
188743680	0	0
192937984	0	0
197132288	0	0
201326592	0	0
205520896	0	0
209715200	0	0
213909504	0	0
218103808	0	0
222298112	0	0
226492416	0	0
230686720	0	0
234881024	0	0
239075328	0	0
243269632	0	0
247463936	0	0
251658240	0	0
255852544	0	0
260046848	0	0
264241152	0	0
268435456	0	0
276824064	0	0
285212672	0	0
293601280	0	0
301989888	0	0
310378496	0	0
318767104	0	0
327155712	0	0
335544320	0	0
343932928	0	0
352321536	0	0
360710144	0	0
369098752	0	0
377487360	0	0
385875968	0	0
394264576	0	0
402653184	0	0
411041792	0	0
419430400	0	0
427819008	0	0
436207616	0	0
444596224	0	0
452984832	0	0
461373440	0	0
469762048	0	0
478150656	0	0
486539264	0	0
494927872	0	0
503316480	0	0
511705088	0	0
520093696	0	0
528482304	0	0
536870912	0	0
553648128	0	0
570425344	0	0
587202560	0	0
603979776	0	0
620756992	0	0
637534208	0	0
654311424	0	0
671088640	0	0
687865856	0	0
704643072	0	0
721420288	0	0
738197504	0	0
754974720	0	0
771751936	0	0
788529152	0	0
805306368	0	0
822083584	0	0
838860800	0	0
855638016	0	0
872415232	0	0
889192448	0	0
905969664	0	0
922746880	0	0
939524096	0	0
956301312	0	0
973078528	0	0
989855744	0	0
1006632960	0	0
1023410176	0	0
1040187392	0	0
1056964608	0	0
1073741824	0	0
1107296256	0	0
1140850688	0	0
1174405120	0	0
1207959552	0	0
1241513984	0	0
1275068416	0	0
1308622848	0	0
1342177280	0	0
1375731712	0	0
1409286144	0	0
1442840576	0	0
1476395008	0	0
1509949440	0	0
1543503872	0	0
1577058304	0	0
1610612736	0	0
1644167168	0	0
1677721600	0	0
1711276032	0	0
1744830464	0	0
1778384896	0	0
1811939328	0	0
1845493760	0	0
1879048192	0	0
1912602624	0	0
1946157056	0	0
1979711488	0	0
2013265920	0	0
2046820352	0	0
2080374784	0	0
2113929216	0	0
2147483648	0	0
2214592512	0	0
2281701376	0	0
2348810240	0	0
2415919104	0	0
2483027968	0	0
2550136832	0	0
2617245696	0	0
2684354560	0	0
2751463424	0	0
2818572288	0	0
2885681152	0	0
2952790016	0	0
3019898880	0	0
3087007744	0	0
3154116608	0	0
3221225472	0	0
3288334336	0	0
3355443200	0	0
3422552064	0	0
3489660928	0	0
3556769792	0	0
3623878656	0	0
3690987520	0	0
3758096384	0	0
3825205248	0	0
3892314112	0	0
3959422976	0	0
4026531840	0	0
4093640704	0	0
4160749568	0	0
4227858432	0	0
~~~~~~~~~~Reuse Distance Profiler output end~~~~~~~~~~

Sampler size:7347

DRAM Statistics
 CHANNEL 0
 RQ ROW_BUFFER_HIT:     623364  ROW_BUFFER_MISS:    1346201
 DBUS AVG_CONGESTED_CYCLE:    3.96721
 WQ ROW_BUFFER_HIT:     140556  ROW_BUFFER_MISS:     845673  FULL:          0


CPU 0 Branch Prediction Accuracy: 92.7084% MPKI: 7.58058 Average ROB Occupancy at Mispredict: 123.681
Branch type MPKI
BRANCH_DIRECT_JUMP: 0.000139333
BRANCH_INDIRECT: 0.00102933
BRANCH_CONDITIONAL: 7.45793
BRANCH_DIRECT_CALL: 0.119748
BRANCH_INDIRECT_CALL: 0.000113333
BRANCH_RETURN: 0.001614

