
*** ChampSim Multicore Out-of-Order Simulator ***

Warmup Instructions: 50000000
Simulation Instructions: 1500000000
Number of CPUs: 1
Off-chip DRAM Size: 4 GiB Channels: 1 Width: 64-bit Data Rate: 3200 MT/s

VirtualMemory physical capacity: 8588881920 num_ppages: 2096895
VirtualMemory page size: 4096 log2_page_size: 12

CPU 0 runs /s/traces/champsim_traces/473.astar-359B.champsimtrace.xz
CPU 0 Bimodal branch predictor
Basic BTB sets: 1024 ways: 8 indirect buffer size: 4096 RAS size: 64
Initializing LRU.
Initializing LRU.
Initializing LRU.
Initializing LRU.
Initializing rdLRU.
Initializing LRU.
Heartbeat CPU 0 instructions: 2000003 cycles: 700237 heartbeat IPC: 2.85618 cumulative IPC: 2.85618 (Simulation time: 0 hr 1 min 42 sec) 
Heartbeat CPU 0 instructions: 4000001 cycles: 1434882 heartbeat IPC: 2.7224 cumulative IPC: 2.78769 (Simulation time: 0 hr 3 min 36 sec) 
Heartbeat CPU 0 instructions: 6000003 cycles: 2169510 heartbeat IPC: 2.72247 cumulative IPC: 2.7656 (Simulation time: 0 hr 5 min 24 sec) 
Heartbeat CPU 0 instructions: 8000003 cycles: 2868328 heartbeat IPC: 2.86198 cumulative IPC: 2.78908 (Simulation time: 0 hr 7 min 5 sec) 
Heartbeat CPU 0 instructions: 10000000 cycles: 3578145 heartbeat IPC: 2.81762 cumulative IPC: 2.79474 (Simulation time: 0 hr 8 min 53 sec) 
Heartbeat CPU 0 instructions: 12000003 cycles: 4301773 heartbeat IPC: 2.76386 cumulative IPC: 2.78955 (Simulation time: 0 hr 10 min 42 sec) 
Heartbeat CPU 0 instructions: 14000001 cycles: 5001737 heartbeat IPC: 2.85729 cumulative IPC: 2.79903 (Simulation time: 0 hr 12 min 21 sec) 
Heartbeat CPU 0 instructions: 16000004 cycles: 5736192 heartbeat IPC: 2.72311 cumulative IPC: 2.78931 (Simulation time: 0 hr 14 min 8 sec) 
Heartbeat CPU 0 instructions: 18000000 cycles: 6471230 heartbeat IPC: 2.72094 cumulative IPC: 2.78154 (Simulation time: 0 hr 15 min 56 sec) 
Heartbeat CPU 0 instructions: 20000004 cycles: 7205965 heartbeat IPC: 2.72208 cumulative IPC: 2.77548 (Simulation time: 0 hr 17 min 47 sec) 
Heartbeat CPU 0 instructions: 22000001 cycles: 7905314 heartbeat IPC: 2.8598 cumulative IPC: 2.78294 (Simulation time: 0 hr 19 min 32 sec) 
Heartbeat CPU 0 instructions: 24000000 cycles: 8605505 heartbeat IPC: 2.85636 cumulative IPC: 2.78891 (Simulation time: 0 hr 21 min 13 sec) 
Heartbeat CPU 0 instructions: 26000003 cycles: 9339359 heartbeat IPC: 2.72534 cumulative IPC: 2.78392 (Simulation time: 0 hr 23 min 5 sec) 
Heartbeat CPU 0 instructions: 28000003 cycles: 10038177 heartbeat IPC: 2.86198 cumulative IPC: 2.78935 (Simulation time: 0 hr 24 min 47 sec) 
Heartbeat CPU 0 instructions: 30000003 cycles: 10772293 heartbeat IPC: 2.72436 cumulative IPC: 2.78492 (Simulation time: 0 hr 26 min 36 sec) 
Heartbeat CPU 0 instructions: 32000003 cycles: 11471767 heartbeat IPC: 2.85929 cumulative IPC: 2.78946 (Simulation time: 0 hr 28 min 13 sec) 
Heartbeat CPU 0 instructions: 34000000 cycles: 12172396 heartbeat IPC: 2.85457 cumulative IPC: 2.79321 (Simulation time: 0 hr 29 min 52 sec) 
Heartbeat CPU 0 instructions: 36000004 cycles: 12907228 heartbeat IPC: 2.72172 cumulative IPC: 2.78914 (Simulation time: 0 hr 31 min 40 sec) 
Heartbeat CPU 0 instructions: 38000000 cycles: 13641601 heartbeat IPC: 2.72341 cumulative IPC: 2.7856 (Simulation time: 0 hr 33 min 26 sec) 
Heartbeat CPU 0 instructions: 40000001 cycles: 14344985 heartbeat IPC: 2.8434 cumulative IPC: 2.78843 (Simulation time: 0 hr 35 min 2 sec) 
Heartbeat CPU 0 instructions: 42000004 cycles: 15074441 heartbeat IPC: 2.74177 cumulative IPC: 2.78617 (Simulation time: 0 hr 36 min 43 sec) 
Heartbeat CPU 0 instructions: 44000003 cycles: 15809488 heartbeat IPC: 2.72091 cumulative IPC: 2.78314 (Simulation time: 0 hr 38 min 24 sec) 
Heartbeat CPU 0 instructions: 46000000 cycles: 16508874 heartbeat IPC: 2.85965 cumulative IPC: 2.78638 (Simulation time: 0 hr 39 min 59 sec) 
Heartbeat CPU 0 instructions: 48000000 cycles: 17208252 heartbeat IPC: 2.85968 cumulative IPC: 2.78936 (Simulation time: 0 hr 41 min 32 sec) 
Heartbeat CPU 0 instructions: 50000004 cycles: 17943396 heartbeat IPC: 2.72056 cumulative IPC: 2.78654 (Simulation time: 0 hr 43 min 16 sec) 

Warmup complete CPU 0 instructions: 50000004 cycles: 17943396 (Simulation time: 0 hr 43 min 16 sec) 

Heartbeat CPU 0 instructions: 52000003 cycles: 28337653 heartbeat IPC: 0.192414 cumulative IPC: 0.192414 (Simulation time: 0 hr 45 min 55 sec) 

Region of Interest Statistics
cpu0_DTLB TOTAL     ACCESS:     665544  HIT:     612438  MISS:      53106
cpu0_DTLB LOAD      ACCESS:     501196  HIT:     448217  MISS:      52979
cpu0_DTLB RFO       ACCESS:     164348  HIT:     164221  MISS:        127
cpu0_DTLB PREFETCH  ACCESS:          0  HIT:          0  MISS:          0
cpu0_DTLB WRITEBACK ACCESS:          0  HIT:          0  MISS:          0
cpu0_ITLB TOTAL     ACCESS:     252532  HIT:     252532  MISS:          0
cpu0_ITLB LOAD      ACCESS:     252532  HIT:     252532  MISS:          0
cpu0_ITLB RFO       ACCESS:          0  HIT:          0  MISS:          0
cpu0_ITLB PREFETCH  ACCESS:          0  HIT:          0  MISS:          0
cpu0_ITLB WRITEBACK ACCESS:          0  HIT:          0  MISS:          0
cpu0_STLB TOTAL     ACCESS:      53106  HIT:      34470  MISS:      18636
cpu0_STLB LOAD      ACCESS:      52979  HIT:      34356  MISS:      18623
cpu0_STLB RFO       ACCESS:        127  HIT:        114  MISS:         13
cpu0_STLB PREFETCH  ACCESS:          0  HIT:          0  MISS:          0
cpu0_STLB WRITEBACK ACCESS:          0  HIT:          0  MISS:          0
cpu0_L1D TOTAL     ACCESS:     778769  HIT:     704085  MISS:      74684
cpu0_L1D LOAD      ACCESS:     510704  HIT:     438198  MISS:      72506
cpu0_L1D RFO       ACCESS:     249458  HIT:     247461  MISS:       1997
cpu0_L1D PREFETCH  ACCESS:          0  HIT:          0  MISS:          0
cpu0_L1D WRITEBACK ACCESS:          0  HIT:          0  MISS:          0
cpu0_L2C TOTAL     ACCESS:      94857  HIT:      53556  MISS:      41301
cpu0_L2C LOAD      ACCESS:      72505  HIT:      31271  MISS:      41234
cpu0_L2C RFO       ACCESS:       1997  HIT:       1946  MISS:         51
cpu0_L2C PREFETCH  ACCESS:          0  HIT:          0  MISS:          0
cpu0_L2C WRITEBACK ACCESS:      20174  HIT:      20173  MISS:          1
LLC TOTAL     ACCESS:      59472  HIT:      18411  MISS:      41061
LLC LOAD      ACCESS:      41234  HIT:       2098  MISS:      39136
LLC RFO       ACCESS:         51  HIT:          1  MISS:         50
LLC PREFETCH  ACCESS:          0  HIT:          0  MISS:          0
LLC WRITEBACK ACCESS:      18172  HIT:      16305  MISS:       1867
Heartbeat CPU 0 instructions: 54000000 cycles: 41919226 heartbeat IPC: 0.147258 cumulative IPC: 0.166835 (Simulation time: 0 hr 53 min 43 sec) 

Region of Interest Statistics
cpu0_DTLB TOTAL     ACCESS:    1285864  HIT:    1152553  MISS:     133311
cpu0_DTLB LOAD      ACCESS:     951867  HIT:     858130  MISS:      93737
cpu0_DTLB RFO       ACCESS:     333997  HIT:     294423  MISS:      39574
cpu0_DTLB PREFETCH  ACCESS:          0  HIT:          0  MISS:          0
cpu0_DTLB WRITEBACK ACCESS:          0  HIT:          0  MISS:          0
cpu0_ITLB TOTAL     ACCESS:     454978  HIT:     454978  MISS:          0
cpu0_ITLB LOAD      ACCESS:     454978  HIT:     454978  MISS:          0
cpu0_ITLB RFO       ACCESS:          0  HIT:          0  MISS:          0
cpu0_ITLB PREFETCH  ACCESS:          0  HIT:          0  MISS:          0
cpu0_ITLB WRITEBACK ACCESS:          0  HIT:          0  MISS:          0
cpu0_L1I TOTAL     ACCESS:          2  HIT:          2  MISS:          0
cpu0_L1I LOAD      ACCESS:          2  HIT:          2  MISS:          0
cpu0_L1I RFO       ACCESS:          0  HIT:          0  MISS:          0
cpu0_L1I PREFETCH  ACCESS:          0  HIT:          0  MISS:          0
cpu0_L1I WRITEBACK ACCESS:          0  HIT:          0  MISS:          0
cpu0_STLB TOTAL     ACCESS:     133311  HIT:      64344  MISS:      68967
cpu0_STLB LOAD      ACCESS:      93737  HIT:      60916  MISS:      32821
cpu0_STLB RFO       ACCESS:      39574  HIT:       3428  MISS:      36146
cpu0_STLB PREFETCH  ACCESS:          0  HIT:          0  MISS:          0
cpu0_STLB WRITEBACK ACCESS:          0  HIT:          0  MISS:          0
cpu0_L1D TOTAL     ACCESS:    1499169  HIT:    1300576  MISS:     198593
cpu0_L1D LOAD      ACCESS:     940326  HIT:     812157  MISS:     128169
cpu0_L1D RFO       ACCESS:     506705  HIT:     436681  MISS:      70024
cpu0_L1D PREFETCH  ACCESS:          0  HIT:          0  MISS:          0
cpu0_L1D WRITEBACK ACCESS:          0  HIT:          0  MISS:          0
cpu0_L2C TOTAL     ACCESS:     300246  HIT:     151947  MISS:     148299
cpu0_L2C LOAD      ACCESS:     128167  HIT:      46638  MISS:      81529
cpu0_L2C RFO       ACCESS:      70024  HIT:       3329  MISS:      66695
cpu0_L2C PREFETCH  ACCESS:          0  HIT:          0  MISS:          0
cpu0_L2C WRITEBACK ACCESS:     101655  HIT:     101636  MISS:         19
LLC TOTAL     ACCESS:     246934  HIT:      93601  MISS:     153333
LLC LOAD      ACCESS:      81529  HIT:       4460  MISS:      77069
LLC RFO       ACCESS:      66694  HIT:       9912  MISS:      56782
LLC PREFETCH  ACCESS:          0  HIT:          0  MISS:          0
LLC WRITEBACK ACCESS:      98655  HIT:      79208  MISS:      19447
Heartbeat CPU 0 instructions: 56000001 cycles: 52573585 heartbeat IPC: 0.187717 cumulative IPC: 0.173259 (Simulation time: 0 hr 56 min 16 sec) 

Region of Interest Statistics
cpu0_DTLB TOTAL     ACCESS:    1943041  HIT:    1755989  MISS:     187052
cpu0_DTLB LOAD      ACCESS:    1444895  HIT:    1297527  MISS:     147368
cpu0_DTLB RFO       ACCESS:     498146  HIT:     458462  MISS:      39684
cpu0_DTLB PREFETCH  ACCESS:          0  HIT:          0  MISS:          0
cpu0_DTLB WRITEBACK ACCESS:          0  HIT:          0  MISS:          0
cpu0_ITLB TOTAL     ACCESS:     709767  HIT:     709767  MISS:          0
cpu0_ITLB LOAD      ACCESS:     709767  HIT:     709767  MISS:          0
cpu0_ITLB RFO       ACCESS:          0  HIT:          0  MISS:          0
cpu0_ITLB PREFETCH  ACCESS:          0  HIT:          0  MISS:          0
cpu0_ITLB WRITEBACK ACCESS:          0  HIT:          0  MISS:          0
cpu0_L1I TOTAL     ACCESS:          2  HIT:          2  MISS:          0
cpu0_L1I LOAD      ACCESS:          2  HIT:          2  MISS:          0
cpu0_L1I RFO       ACCESS:          0  HIT:          0  MISS:          0
cpu0_L1I PREFETCH  ACCESS:          0  HIT:          0  MISS:          0
cpu0_L1I WRITEBACK ACCESS:          0  HIT:          0  MISS:          0
cpu0_STLB TOTAL     ACCESS:     187053  HIT:     100503  MISS:      86550
cpu0_STLB LOAD      ACCESS:     147369  HIT:      96971  MISS:      50398
cpu0_STLB RFO       ACCESS:      39684  HIT:       3532  MISS:      36152
cpu0_STLB PREFETCH  ACCESS:          0  HIT:          0  MISS:          0
cpu0_STLB WRITEBACK ACCESS:          0  HIT:          0  MISS:          0
cpu0_L1D TOTAL     ACCESS:    2276445  HIT:    2006048  MISS:     270397
cpu0_L1D LOAD      ACCESS:    1450548  HIT:    1252605  MISS:     197943
cpu0_L1D RFO       ACCESS:     756182  HIT:     684287  MISS:      71895
cpu0_L1D PREFETCH  ACCESS:          0  HIT:          0  MISS:          0
cpu0_L1D WRITEBACK ACCESS:          0  HIT:          0  MISS:          0
cpu0_L2C TOTAL     ACCESS:     392126  HIT:     202554  MISS:     189572
cpu0_L2C LOAD      ACCESS:     197941  HIT:      75187  MISS:     122754
cpu0_L2C RFO       ACCESS:      71895  HIT:       5166  MISS:      66729
cpu0_L2C PREFETCH  ACCESS:          0  HIT:          0  MISS:          0
cpu0_L2C WRITEBACK ACCESS:     121731  HIT:     121712  MISS:         19
LLC TOTAL     ACCESS:     305831  HIT:     111061  MISS:     194770
LLC LOAD      ACCESS:     122754  HIT:       5795  MISS:     116959
LLC RFO       ACCESS:      66728  HIT:       9912  MISS:      56816
LLC PREFETCH  ACCESS:          0  HIT:          0  MISS:          0
LLC WRITEBACK ACCESS:     116279  HIT:      95322  MISS:      20957
Heartbeat CPU 0 instructions: 58000004 cycles: 66548470 heartbeat IPC: 0.143114 cumulative IPC: 0.164592 (Simulation time: 1 hr 3 min 52 sec) 

Region of Interest Statistics
cpu0_DTLB TOTAL     ACCESS:    2558742  HIT:    2291350  MISS:     267392
cpu0_DTLB LOAD      ACCESS:    1891081  HIT:    1702523  MISS:     188558
cpu0_DTLB RFO       ACCESS:     667661  HIT:     588827  MISS:      78834
cpu0_DTLB PREFETCH  ACCESS:          0  HIT:          0  MISS:          0
cpu0_DTLB WRITEBACK ACCESS:          0  HIT:          0  MISS:          0
cpu0_ITLB TOTAL     ACCESS:     913895  HIT:     913895  MISS:          0
cpu0_ITLB LOAD      ACCESS:     913895  HIT:     913895  MISS:          0
cpu0_ITLB RFO       ACCESS:          0  HIT:          0  MISS:          0
cpu0_ITLB PREFETCH  ACCESS:          0  HIT:          0  MISS:          0
cpu0_ITLB WRITEBACK ACCESS:          0  HIT:          0  MISS:          0
cpu0_L1I TOTAL     ACCESS:          4  HIT:          4  MISS:          0
cpu0_L1I LOAD      ACCESS:          4  HIT:          4  MISS:          0
cpu0_L1I RFO       ACCESS:          0  HIT:          0  MISS:          0
cpu0_L1I PREFETCH  ACCESS:          0  HIT:          0  MISS:          0
cpu0_L1I WRITEBACK ACCESS:          0  HIT:          0  MISS:          0
cpu0_STLB TOTAL     ACCESS:     267392  HIT:     128552  MISS:     138840
cpu0_STLB LOAD      ACCESS:     188558  HIT:     121794  MISS:      66764
cpu0_STLB RFO       ACCESS:      78834  HIT:       6758  MISS:      72076
cpu0_STLB PREFETCH  ACCESS:          0  HIT:          0  MISS:          0
cpu0_STLB WRITEBACK ACCESS:          0  HIT:          0  MISS:          0
cpu0_L1D TOTAL     ACCESS:    2999238  HIT:    2593775  MISS:     405463
cpu0_L1D LOAD      ACCESS:    1881803  HIT:    1616354  MISS:     265449
cpu0_L1D RFO       ACCESS:    1012108  HIT:     872899  MISS:     139209
cpu0_L1D PREFETCH  ACCESS:          0  HIT:          0  MISS:          0
cpu0_L1D WRITEBACK ACCESS:          0  HIT:          0  MISS:          0
cpu0_L2C TOTAL     ACCESS:     607673  HIT:     312238  MISS:     295435
cpu0_L2C LOAD      ACCESS:     265447  HIT:     101984  MISS:     163463
cpu0_L2C RFO       ACCESS:     139209  HIT:       7365  MISS:     131844
cpu0_L2C PREFETCH  ACCESS:          0  HIT:          0  MISS:          0
cpu0_L2C WRITEBACK ACCESS:     202212  HIT:     202190  MISS:         22
LLC TOTAL     ACCESS:     486938  HIT:     182282  MISS:     304656
LLC LOAD      ACCESS:     163463  HIT:       6228  MISS:     157235
LLC RFO       ACCESS:     131843  HIT:      20339  MISS:     111504
LLC PREFETCH  ACCESS:          0  HIT:          0  MISS:          0
LLC WRITEBACK ACCESS:     191526  HIT:     155667  MISS:      35859
Heartbeat CPU 0 instructions: 60000000 cycles: 76923557 heartbeat IPC: 0.192769 cumulative IPC: 0.169548 (Simulation time: 1 hr 6 min 34 sec) 

Region of Interest Statistics
cpu0_DTLB TOTAL     ACCESS:    3232226  HIT:    2911521  MISS:     320705
cpu0_DTLB LOAD      ACCESS:    2400323  HIT:    2158909  MISS:     241414
cpu0_DTLB RFO       ACCESS:     831903  HIT:     752612  MISS:      79291
cpu0_DTLB PREFETCH  ACCESS:          0  HIT:          0  MISS:          0
cpu0_DTLB WRITEBACK ACCESS:          0  HIT:          0  MISS:          0
cpu0_ITLB TOTAL     ACCESS:    1162665  HIT:    1162665  MISS:          0
cpu0_ITLB LOAD      ACCESS:    1162665  HIT:    1162665  MISS:          0
cpu0_ITLB RFO       ACCESS:          0  HIT:          0  MISS:          0
cpu0_ITLB PREFETCH  ACCESS:          0  HIT:          0  MISS:          0
cpu0_ITLB WRITEBACK ACCESS:          0  HIT:          0  MISS:          0
cpu0_L1I TOTAL     ACCESS:          4  HIT:          4  MISS:          0
cpu0_L1I LOAD      ACCESS:          4  HIT:          4  MISS:          0
cpu0_L1I RFO       ACCESS:          0  HIT:          0  MISS:          0
cpu0_L1I PREFETCH  ACCESS:          0  HIT:          0  MISS:          0
cpu0_L1I WRITEBACK ACCESS:          0  HIT:          0  MISS:          0
cpu0_STLB TOTAL     ACCESS:     320705  HIT:     166882  MISS:     153823
cpu0_STLB LOAD      ACCESS:     241414  HIT:     159886  MISS:      81528
cpu0_STLB RFO       ACCESS:      79291  HIT:       6996  MISS:      72295
cpu0_STLB PREFETCH  ACCESS:          0  HIT:          0  MISS:          0
cpu0_STLB WRITEBACK ACCESS:          0  HIT:          0  MISS:          0
cpu0_L1D TOTAL     ACCESS:    3774455  HIT:    3300499  MISS:     473956
cpu0_L1D LOAD      ACCESS:    2391336  HIT:    2060604  MISS:     330732
cpu0_L1D RFO       ACCESS:    1262921  HIT:    1120689  MISS:     142232
cpu0_L1D PREFETCH  ACCESS:          0  HIT:          0  MISS:          0
cpu0_L1D WRITEBACK ACCESS:          0  HIT:          0  MISS:          0
cpu0_L2C TOTAL     ACCESS:     697733  HIT:     359591  MISS:     338142
cpu0_L2C LOAD      ACCESS:     330730  HIT:     126081  MISS:     204649
cpu0_L2C RFO       ACCESS:     142232  HIT:       8886  MISS:     133346
cpu0_L2C PREFETCH  ACCESS:          0  HIT:          0  MISS:          0
cpu0_L2C WRITEBACK ACCESS:     223779  HIT:     223753  MISS:         26
LLC TOTAL     ACCESS:     552565  HIT:     202647  MISS:     349918
LLC LOAD      ACCESS:     204649  HIT:       8073  MISS:     196576
LLC RFO       ACCESS:     133345  HIT:      20344  MISS:     113001
LLC PREFETCH  ACCESS:          0  HIT:          0  MISS:          0
LLC WRITEBACK ACCESS:     214450  HIT:     174174  MISS:      40276
Heartbeat CPU 0 instructions: 62000000 cycles: 87412640 heartbeat IPC: 0.190674 cumulative IPC: 0.172738 (Simulation time: 1 hr 9 min 13 sec) 

Region of Interest Statistics
cpu0_DTLB TOTAL     ACCESS:    3910140  HIT:    3536828  MISS:     373312
cpu0_DTLB LOAD      ACCESS:    2913978  HIT:    2620085  MISS:     293893
cpu0_DTLB RFO       ACCESS:     996162  HIT:     916743  MISS:      79419
cpu0_DTLB PREFETCH  ACCESS:          0  HIT:          0  MISS:          0
cpu0_DTLB WRITEBACK ACCESS:          0  HIT:          0  MISS:          0
cpu0_ITLB TOTAL     ACCESS:    1411456  HIT:    1411456  MISS:          0
cpu0_ITLB LOAD      ACCESS:    1411456  HIT:    1411456  MISS:          0
cpu0_ITLB RFO       ACCESS:          0  HIT:          0  MISS:          0
cpu0_ITLB PREFETCH  ACCESS:          0  HIT:          0  MISS:          0
cpu0_ITLB WRITEBACK ACCESS:          0  HIT:          0  MISS:          0
cpu0_L1I TOTAL     ACCESS:          4  HIT:          4  MISS:          0
cpu0_L1I LOAD      ACCESS:          4  HIT:          4  MISS:          0
cpu0_L1I RFO       ACCESS:          0  HIT:          0  MISS:          0
cpu0_L1I PREFETCH  ACCESS:          0  HIT:          0  MISS:          0
cpu0_L1I WRITEBACK ACCESS:          0  HIT:          0  MISS:          0
cpu0_STLB TOTAL     ACCESS:     373312  HIT:     201895  MISS:     171417
cpu0_STLB LOAD      ACCESS:     293893  HIT:     194775  MISS:      99118
cpu0_STLB RFO       ACCESS:      79419  HIT:       7120  MISS:      72299
cpu0_STLB PREFETCH  ACCESS:          0  HIT:          0  MISS:          0
cpu0_STLB WRITEBACK ACCESS:          0  HIT:          0  MISS:          0
cpu0_L1D TOTAL     ACCESS:    4552554  HIT:    4000389  MISS:     552165
cpu0_L1D LOAD      ACCESS:    2902764  HIT:    2496285  MISS:     406479
cpu0_L1D RFO       ACCESS:    1512041  HIT:    1367583  MISS:     144458
cpu0_L1D PREFETCH  ACCESS:          0  HIT:          0  MISS:          0
cpu0_L1D WRITEBACK ACCESS:          0  HIT:          0  MISS:          0
cpu0_L2C TOTAL     ACCESS:     796015  HIT:     416615  MISS:     379400
cpu0_L2C LOAD      ACCESS:     406477  HIT:     160599  MISS:     245878
cpu0_L2C RFO       ACCESS:     144458  HIT:      11093  MISS:     133365
cpu0_L2C PREFETCH  ACCESS:          0  HIT:          0  MISS:          0
cpu0_L2C WRITEBACK ACCESS:     243852  HIT:     243826  MISS:         26
LLC TOTAL     ACCESS:     611561  HIT:     219237  MISS:     392324
LLC LOAD      ACCESS:     245878  HIT:       8413  MISS:     237465
LLC RFO       ACCESS:     133364  HIT:      20346  MISS:     113018
LLC PREFETCH  ACCESS:          0  HIT:          0  MISS:          0
LLC WRITEBACK ACCESS:     232188  HIT:     190417  MISS:      41771
Heartbeat CPU 0 instructions: 64000004 cycles: 101058039 heartbeat IPC: 0.14657 cumulative IPC: 0.168442 (Simulation time: 1 hr 16 min 55 sec) 

Region of Interest Statistics
cpu0_DTLB TOTAL     ACCESS:    4547027  HIT:    4094644  MISS:     452383
cpu0_DTLB LOAD      ACCESS:    3381321  HIT:    3047305  MISS:     334016
cpu0_DTLB RFO       ACCESS:    1165706  HIT:    1047339  MISS:     118367
cpu0_DTLB PREFETCH  ACCESS:          0  HIT:          0  MISS:          0
cpu0_DTLB WRITEBACK ACCESS:          0  HIT:          0  MISS:          0
cpu0_ITLB TOTAL     ACCESS:    1610859  HIT:    1610859  MISS:          0
cpu0_ITLB LOAD      ACCESS:    1610859  HIT:    1610859  MISS:          0
cpu0_ITLB RFO       ACCESS:          0  HIT:          0  MISS:          0
cpu0_ITLB PREFETCH  ACCESS:          0  HIT:          0  MISS:          0
cpu0_ITLB WRITEBACK ACCESS:          0  HIT:          0  MISS:          0
cpu0_L1I TOTAL     ACCESS:          6  HIT:          6  MISS:          0
cpu0_L1I LOAD      ACCESS:          6  HIT:          6  MISS:          0
cpu0_L1I RFO       ACCESS:          0  HIT:          0  MISS:          0
cpu0_L1I PREFETCH  ACCESS:          0  HIT:          0  MISS:          0
cpu0_L1I WRITEBACK ACCESS:          0  HIT:          0  MISS:          0
cpu0_STLB TOTAL     ACCESS:     452383  HIT:     233373  MISS:     219010
cpu0_STLB LOAD      ACCESS:     334016  HIT:     223098  MISS:     110918
cpu0_STLB RFO       ACCESS:     118367  HIT:      10275  MISS:     108092
cpu0_STLB PREFETCH  ACCESS:          0  HIT:          0  MISS:          0
cpu0_STLB WRITEBACK ACCESS:          0  HIT:          0  MISS:          0
cpu0_L1D TOTAL     ACCESS:    5270034  HIT:    4584587  MISS:     685447
cpu0_L1D LOAD      ACCESS:    3334655  HIT:    2861642  MISS:     473013
cpu0_L1D RFO       ACCESS:    1766733  HIT:    1555828  MISS:     210905
cpu0_L1D PREFETCH  ACCESS:          0  HIT:          0  MISS:          0
cpu0_L1D WRITEBACK ACCESS:          0  HIT:          0  MISS:          0
cpu0_L2C TOTAL     ACCESS:    1008826  HIT:     524680  MISS:     484146
cpu0_L2C LOAD      ACCESS:     473011  HIT:     186804  MISS:     286207
cpu0_L2C RFO       ACCESS:     210906  HIT:      13158  MISS:     197748
cpu0_L2C PREFETCH  ACCESS:          0  HIT:          0  MISS:          0
cpu0_L2C WRITEBACK ACCESS:     323380  HIT:     323351  MISS:         29
LLC TOTAL     ACCESS:     790722  HIT:     287519  MISS:     503203
LLC LOAD      ACCESS:     286207  HIT:       8751  MISS:     277456
LLC RFO       ACCESS:     197747  HIT:      28672  MISS:     169075
LLC PREFETCH  ACCESS:          0  HIT:          0  MISS:          0
LLC WRITEBACK ACCESS:     306606  HIT:     250031  MISS:      56575
Heartbeat CPU 0 instructions: 66000000 cycles: 111644878 heartbeat IPC: 0.188913 cumulative IPC: 0.170755 (Simulation time: 1 hr 19 min 41 sec) 

Region of Interest Statistics
cpu0_DTLB TOTAL     ACCESS:    5211631  HIT:    4705746  MISS:     505885
cpu0_DTLB LOAD      ACCESS:    3881552  HIT:    3494685  MISS:     386867
cpu0_DTLB RFO       ACCESS:    1330079  HIT:    1211061  MISS:     119018
cpu0_DTLB PREFETCH  ACCESS:          0  HIT:          0  MISS:          0
cpu0_DTLB WRITEBACK ACCESS:          0  HIT:          0  MISS:          0
cpu0_ITLB TOTAL     ACCESS:    1861636  HIT:    1861636  MISS:          0
cpu0_ITLB LOAD      ACCESS:    1861636  HIT:    1861636  MISS:          0
cpu0_ITLB RFO       ACCESS:          0  HIT:          0  MISS:          0
cpu0_ITLB PREFETCH  ACCESS:          0  HIT:          0  MISS:          0
cpu0_ITLB WRITEBACK ACCESS:          0  HIT:          0  MISS:          0
cpu0_L1I TOTAL     ACCESS:          6  HIT:          6  MISS:          0
cpu0_L1I LOAD      ACCESS:          6  HIT:          6  MISS:          0
cpu0_L1I RFO       ACCESS:          0  HIT:          0  MISS:          0
cpu0_L1I PREFETCH  ACCESS:          0  HIT:          0  MISS:          0
cpu0_L1I WRITEBACK ACCESS:          0  HIT:          0  MISS:          0
cpu0_STLB TOTAL     ACCESS:     505885  HIT:     268063  MISS:     237822
cpu0_STLB LOAD      ACCESS:     386867  HIT:     257492  MISS:     129375
cpu0_STLB RFO       ACCESS:     119018  HIT:      10571  MISS:     108447
cpu0_STLB PREFETCH  ACCESS:          0  HIT:          0  MISS:          0
cpu0_STLB WRITEBACK ACCESS:          0  HIT:          0  MISS:          0
cpu0_L1D TOTAL     ACCESS:    6047865  HIT:    5287664  MISS:     760201
cpu0_L1D LOAD      ACCESS:    3842450  HIT:    3299027  MISS:     543423
cpu0_L1D RFO       ACCESS:    2018206  HIT:    1803122  MISS:     215084
cpu0_L1D PREFETCH  ACCESS:          0  HIT:          0  MISS:          0
cpu0_L1D WRITEBACK ACCESS:          0  HIT:          0  MISS:          0
cpu0_L2C TOTAL     ACCESS:    1106244  HIT:     578348  MISS:     527896
cpu0_L2C LOAD      ACCESS:     543421  HIT:     215841  MISS:     327580
cpu0_L2C RFO       ACCESS:     215084  HIT:      14972  MISS:     200112
cpu0_L2C PREFETCH  ACCESS:          0  HIT:          0  MISS:          0
cpu0_L2C WRITEBACK ACCESS:     346045  HIT:     346016  MISS:         29
LLC TOTAL     ACCESS:     858083  HIT:     308641  MISS:     549442
LLC LOAD      ACCESS:     327580  HIT:      10911  MISS:     316669
LLC RFO       ACCESS:     200111  HIT:      28673  MISS:     171438
LLC PREFETCH  ACCESS:          0  HIT:          0  MISS:          0
LLC WRITEBACK ACCESS:     330217  HIT:     268985  MISS:      61232
Heartbeat CPU 0 instructions: 68000000 cycles: 122356870 heartbeat IPC: 0.186707 cumulative IPC: 0.172392 (Simulation time: 1 hr 22 min 21 sec) 

Region of Interest Statistics
cpu0_DTLB TOTAL     ACCESS:    5879710  HIT:    5320086  MISS:     559624
cpu0_DTLB LOAD      ACCESS:    4385697  HIT:    3945188  MISS:     440509
cpu0_DTLB RFO       ACCESS:    1494013  HIT:    1374898  MISS:     119115
cpu0_DTLB PREFETCH  ACCESS:          0  HIT:          0  MISS:          0
cpu0_DTLB WRITEBACK ACCESS:          0  HIT:          0  MISS:          0
cpu0_ITLB TOTAL     ACCESS:    2112956  HIT:    2112956  MISS:          0
cpu0_ITLB LOAD      ACCESS:    2112956  HIT:    2112956  MISS:          0
cpu0_ITLB RFO       ACCESS:          0  HIT:          0  MISS:          0
cpu0_ITLB PREFETCH  ACCESS:          0  HIT:          0  MISS:          0
cpu0_ITLB WRITEBACK ACCESS:          0  HIT:          0  MISS:          0
cpu0_L1I TOTAL     ACCESS:          6  HIT:          6  MISS:          0
cpu0_L1I LOAD      ACCESS:          6  HIT:          6  MISS:          0
cpu0_L1I RFO       ACCESS:          0  HIT:          0  MISS:          0
cpu0_L1I PREFETCH  ACCESS:          0  HIT:          0  MISS:          0
cpu0_L1I WRITEBACK ACCESS:          0  HIT:          0  MISS:          0
cpu0_STLB TOTAL     ACCESS:     559624  HIT:     294426  MISS:     265198
cpu0_STLB LOAD      ACCESS:     440509  HIT:     283784  MISS:     156725
cpu0_STLB RFO       ACCESS:     119115  HIT:      10642  MISS:     108473
cpu0_STLB PREFETCH  ACCESS:          0  HIT:          0  MISS:          0
cpu0_STLB WRITEBACK ACCESS:          0  HIT:          0  MISS:          0
cpu0_L1D TOTAL     ACCESS:    6834233  HIT:    5995012  MISS:     839221
cpu0_L1D LOAD      ACCESS:    4353519  HIT:    3733496  MISS:     620023
cpu0_L1D RFO       ACCESS:    2266618  HIT:    2049289  MISS:     217329
cpu0_L1D PREFETCH  ACCESS:          0  HIT:          0  MISS:          0
cpu0_L1D WRITEBACK ACCESS:          0  HIT:          0  MISS:          0
cpu0_L2C TOTAL     ACCESS:    1205231  HIT:     635883  MISS:     569348
cpu0_L2C LOAD      ACCESS:     620021  HIT:     251020  MISS:     369001
cpu0_L2C RFO       ACCESS:     217329  HIT:      17199  MISS:     200130
cpu0_L2C PREFETCH  ACCESS:          0  HIT:          0  MISS:          0
cpu0_L2C WRITEBACK ACCESS:     366012  HIT:     365983  MISS:         29
LLC TOTAL     ACCESS:     917297  HIT:     324982  MISS:     592315
LLC LOAD      ACCESS:     369001  HIT:      11386  MISS:     357615
LLC RFO       ACCESS:     200129  HIT:      28682  MISS:     171447
LLC PREFETCH  ACCESS:          0  HIT:          0  MISS:          0
LLC WRITEBACK ACCESS:     347979  HIT:     284833  MISS:      63146
Heartbeat CPU 0 instructions: 70000004 cycles: 134766638 heartbeat IPC: 0.161164 cumulative IPC: 0.171199 (Simulation time: 1 hr 28 min 16 sec) 

Region of Interest Statistics
cpu0_DTLB TOTAL     ACCESS:    6526091  HIT:    5890358  MISS:     635733
cpu0_DTLB LOAD      ACCESS:    4861745  HIT:    4376952  MISS:     484793
cpu0_DTLB RFO       ACCESS:    1664346  HIT:    1513406  MISS:     150940
cpu0_DTLB PREFETCH  ACCESS:          0  HIT:          0  MISS:          0
cpu0_DTLB WRITEBACK ACCESS:          0  HIT:          0  MISS:          0
cpu0_ITLB TOTAL     ACCESS:    2324249  HIT:    2324249  MISS:          0
cpu0_ITLB LOAD      ACCESS:    2324249  HIT:    2324249  MISS:          0
cpu0_ITLB RFO       ACCESS:          0  HIT:          0  MISS:          0
cpu0_ITLB PREFETCH  ACCESS:          0  HIT:          0  MISS:          0
cpu0_ITLB WRITEBACK ACCESS:          0  HIT:          0  MISS:          0
cpu0_L1I TOTAL     ACCESS:         23  HIT:         16  MISS:          7
cpu0_L1I LOAD      ACCESS:         23  HIT:         16  MISS:          7
cpu0_L1I RFO       ACCESS:          0  HIT:          0  MISS:          0
cpu0_L1I PREFETCH  ACCESS:          0  HIT:          0  MISS:          0
cpu0_L1I WRITEBACK ACCESS:          0  HIT:          0  MISS:          0
cpu0_STLB TOTAL     ACCESS:     635733  HIT:     323710  MISS:     312023
cpu0_STLB LOAD      ACCESS:     484793  HIT:     312584  MISS:     172209
cpu0_STLB RFO       ACCESS:     150940  HIT:      11126  MISS:     139814
cpu0_STLB PREFETCH  ACCESS:          0  HIT:          0  MISS:          0
cpu0_STLB WRITEBACK ACCESS:          0  HIT:          0  MISS:          0
cpu0_L1D TOTAL     ACCESS:    7573168  HIT:    6614237  MISS:     958931
cpu0_L1D LOAD      ACCESS:    4807832  HIT:    4118409  MISS:     689423
cpu0_L1D RFO       ACCESS:    2519384  HIT:    2251988  MISS:     267396
cpu0_L1D PREFETCH  ACCESS:          0  HIT:          0  MISS:          0
cpu0_L1D WRITEBACK ACCESS:          0  HIT:          0  MISS:          0
cpu0_L2C TOTAL     ACCESS:    1389100  HIT:     731285  MISS:     657815
cpu0_L2C LOAD      ACCESS:     689428  HIT:     279773  MISS:     409655
cpu0_L2C RFO       ACCESS:     267396  HIT:      19479  MISS:     247917
cpu0_L2C PREFETCH  ACCESS:          0  HIT:          0  MISS:          0
cpu0_L2C WRITEBACK ACCESS:     430164  HIT:     430132  MISS:         32
LLC TOTAL     ACCESS:    1064833  HIT:     383735  MISS:     681098
LLC LOAD      ACCESS:     409655  HIT:      11786  MISS:     397869
LLC RFO       ACCESS:     247916  HIT:      38272  MISS:     209644
LLC PREFETCH  ACCESS:          0  HIT:          0  MISS:          0
LLC WRITEBACK ACCESS:     407051  HIT:     333585  MISS:      73466
Heartbeat CPU 0 instructions: 72000003 cycles: 146523890 heartbeat IPC: 0.170108 cumulative IPC: 0.171099 (Simulation time: 1 hr 32 min 42 sec) 

Region of Interest Statistics
cpu0_DTLB TOTAL     ACCESS:    7184228  HIT:    6490878  MISS:     693350
cpu0_DTLB LOAD      ACCESS:    5356219  HIT:    4821604  MISS:     534615
cpu0_DTLB RFO       ACCESS:    1828009  HIT:    1669274  MISS:     158735
cpu0_DTLB PREFETCH  ACCESS:          0  HIT:          0  MISS:          0
cpu0_DTLB WRITEBACK ACCESS:          0  HIT:          0  MISS:          0
cpu0_ITLB TOTAL     ACCESS:    2561699  HIT:    2561699  MISS:          0
cpu0_ITLB LOAD      ACCESS:    2561699  HIT:    2561699  MISS:          0
cpu0_ITLB RFO       ACCESS:          0  HIT:          0  MISS:          0
cpu0_ITLB PREFETCH  ACCESS:          0  HIT:          0  MISS:          0
cpu0_ITLB WRITEBACK ACCESS:          0  HIT:          0  MISS:          0
cpu0_L1I TOTAL     ACCESS:         23  HIT:         16  MISS:          7
cpu0_L1I LOAD      ACCESS:         23  HIT:         16  MISS:          7
cpu0_L1I RFO       ACCESS:          0  HIT:          0  MISS:          0
cpu0_L1I PREFETCH  ACCESS:          0  HIT:          0  MISS:          0
cpu0_L1I WRITEBACK ACCESS:          0  HIT:          0  MISS:          0
cpu0_STLB TOTAL     ACCESS:     693350  HIT:     362079  MISS:     331271
cpu0_STLB LOAD      ACCESS:     534615  HIT:     347956  MISS:     186659
cpu0_STLB RFO       ACCESS:     158735  HIT:      14123  MISS:     144612
cpu0_STLB PREFETCH  ACCESS:          0  HIT:          0  MISS:          0
cpu0_STLB WRITEBACK ACCESS:          0  HIT:          0  MISS:          0
cpu0_L1D TOTAL     ACCESS:    8330627  HIT:    7285354  MISS:    1045273
cpu0_L1D LOAD      ACCESS:    5294923  HIT:    4539787  MISS:     755136
cpu0_L1D RFO       ACCESS:    2772471  HIT:    2484638  MISS:     287833
cpu0_L1D PREFETCH  ACCESS:          0  HIT:          0  MISS:          0
cpu0_L1D WRITEBACK ACCESS:          0  HIT:          0  MISS:          0
cpu0_L2C TOTAL     ACCESS:    1513330  HIT:     795677  MISS:     717653
cpu0_L2C LOAD      ACCESS:     755141  HIT:     304540  MISS:     450601
cpu0_L2C RFO       ACCESS:     287833  HIT:      21050  MISS:     266783
cpu0_L2C PREFETCH  ACCESS:          0  HIT:          0  MISS:          0
cpu0_L2C WRITEBACK ACCESS:     468052  HIT:     468018  MISS:         34
LLC TOTAL     ACCESS:    1163843  HIT:     415630  MISS:     748213
LLC LOAD      ACCESS:     450601  HIT:      13542  MISS:     437059
LLC RFO       ACCESS:     266782  HIT:      38348  MISS:     228434
LLC PREFETCH  ACCESS:          0  HIT:          0  MISS:          0
LLC WRITEBACK ACCESS:     446225  HIT:     363639  MISS:      82586
Heartbeat CPU 0 instructions: 74000000 cycles: 160246520 heartbeat IPC: 0.145744 cumulative IPC: 0.168654 (Simulation time: 1 hr 40 min 29 sec) 

Region of Interest Statistics
cpu0_DTLB TOTAL     ACCESS:    7813124  HIT:    7039315  MISS:     773809
cpu0_DTLB LOAD      ACCESS:    5814782  HIT:    5239169  MISS:     575613
cpu0_DTLB RFO       ACCESS:    1998342  HIT:    1800146  MISS:     198196
cpu0_DTLB PREFETCH  ACCESS:          0  HIT:          0  MISS:          0
cpu0_DTLB WRITEBACK ACCESS:          0  HIT:          0  MISS:          0
cpu0_ITLB TOTAL     ACCESS:    2761122  HIT:    2761122  MISS:          0
cpu0_ITLB LOAD      ACCESS:    2761122  HIT:    2761122  MISS:          0
cpu0_ITLB RFO       ACCESS:          0  HIT:          0  MISS:          0
cpu0_ITLB PREFETCH  ACCESS:          0  HIT:          0  MISS:          0
cpu0_ITLB WRITEBACK ACCESS:          0  HIT:          0  MISS:          0
cpu0_L1I TOTAL     ACCESS:         25  HIT:         18  MISS:          7
cpu0_L1I LOAD      ACCESS:         25  HIT:         18  MISS:          7
cpu0_L1I RFO       ACCESS:          0  HIT:          0  MISS:          0
cpu0_L1I PREFETCH  ACCESS:          0  HIT:          0  MISS:          0
cpu0_L1I WRITEBACK ACCESS:          0  HIT:          0  MISS:          0
cpu0_STLB TOTAL     ACCESS:     773809  HIT:     395008  MISS:     378801
cpu0_STLB LOAD      ACCESS:     575613  HIT:     377553  MISS:     198060
cpu0_STLB RFO       ACCESS:     198196  HIT:      17455  MISS:     180741
cpu0_STLB PREFETCH  ACCESS:          0  HIT:          0  MISS:          0
cpu0_STLB WRITEBACK ACCESS:          0  HIT:          0  MISS:          0
cpu0_L1D TOTAL     ACCESS:    9049603  HIT:    7879440  MISS:    1170163
cpu0_L1D LOAD      ACCESS:    5724480  HIT:    4912784  MISS:     811696
cpu0_L1D RFO       ACCESS:    3031181  HIT:    2675233  MISS:     355948
cpu0_L1D PREFETCH  ACCESS:          0  HIT:          0  MISS:          0
cpu0_L1D WRITEBACK ACCESS:          0  HIT:          0  MISS:          0
cpu0_L2C TOTAL     ACCESS:    1720281  HIT:     895443  MISS:     824838
cpu0_L2C LOAD      ACCESS:     811701  HIT:     320846  MISS:     490855
cpu0_L2C RFO       ACCESS:     355948  HIT:      22284  MISS:     333664
cpu0_L2C PREFETCH  ACCESS:          0  HIT:          0  MISS:          0
cpu0_L2C WRITEBACK ACCESS:     550113  HIT:     550070  MISS:         43
LLC TOTAL     ACCESS:    1351645  HIT:     489182  MISS:     862463
LLC LOAD      ACCESS:     490855  HIT:      15198  MISS:     475657
LLC RFO       ACCESS:     333663  HIT:      47674  MISS:     285989
LLC PREFETCH  ACCESS:          0  HIT:          0  MISS:          0
LLC WRITEBACK ACCESS:     526851  HIT:     426189  MISS:     100662
Heartbeat CPU 0 instructions: 76000003 cycles: 170713790 heartbeat IPC: 0.191072 cumulative IPC: 0.17019 (Simulation time: 1 hr 43 min 7 sec) 

Region of Interest Statistics
cpu0_DTLB TOTAL     ACCESS:    8492071  HIT:    7664786  MISS:     827285
cpu0_DTLB LOAD      ACCESS:    6329640  HIT:    5700687  MISS:     628953
cpu0_DTLB RFO       ACCESS:    2162431  HIT:    1964099  MISS:     198332
cpu0_DTLB PREFETCH  ACCESS:          0  HIT:          0  MISS:          0
cpu0_DTLB WRITEBACK ACCESS:          0  HIT:          0  MISS:          0
cpu0_ITLB TOTAL     ACCESS:    3009612  HIT:    3009612  MISS:          0
cpu0_ITLB LOAD      ACCESS:    3009612  HIT:    3009612  MISS:          0
cpu0_ITLB RFO       ACCESS:          0  HIT:          0  MISS:          0
cpu0_ITLB PREFETCH  ACCESS:          0  HIT:          0  MISS:          0
cpu0_ITLB WRITEBACK ACCESS:          0  HIT:          0  MISS:          0
cpu0_L1I TOTAL     ACCESS:         25  HIT:         18  MISS:          7
cpu0_L1I LOAD      ACCESS:         25  HIT:         18  MISS:          7
cpu0_L1I RFO       ACCESS:          0  HIT:          0  MISS:          0
cpu0_L1I PREFETCH  ACCESS:          0  HIT:          0  MISS:          0
cpu0_L1I WRITEBACK ACCESS:          0  HIT:          0  MISS:          0
cpu0_STLB TOTAL     ACCESS:     827285  HIT:     431654  MISS:     395631
cpu0_STLB LOAD      ACCESS:     628953  HIT:     414066  MISS:     214887
cpu0_STLB RFO       ACCESS:     198332  HIT:      17588  MISS:     180744
cpu0_STLB PREFETCH  ACCESS:          0  HIT:          0  MISS:          0
cpu0_STLB WRITEBACK ACCESS:          0  HIT:          0  MISS:          0
cpu0_L1D TOTAL     ACCESS:    9826715  HIT:    8578057  MISS:    1248658
cpu0_L1D LOAD      ACCESS:    6236028  HIT:    5348310  MISS:     887718
cpu0_L1D RFO       ACCESS:    3279959  HIT:    2921769  MISS:     358190
cpu0_L1D PREFETCH  ACCESS:          0  HIT:          0  MISS:          0
cpu0_L1D WRITEBACK ACCESS:          0  HIT:          0  MISS:          0
cpu0_L2C TOTAL     ACCESS:    1818778  HIT:     952741  MISS:     866037
cpu0_L2C LOAD      ACCESS:     887723  HIT:     355699  MISS:     532024
cpu0_L2C RFO       ACCESS:     358190  HIT:      24508  MISS:     333682
cpu0_L2C PREFETCH  ACCESS:          0  HIT:          0  MISS:          0
cpu0_L2C WRITEBACK ACCESS:     570115  HIT:     570072  MISS:         43
LLC TOTAL     ACCESS:    1410530  HIT:     505874  MISS:     904656
LLC LOAD      ACCESS:     532024  HIT:      15741  MISS:     516283
LLC RFO       ACCESS:     333681  HIT:      47677  MISS:     286004
LLC PREFETCH  ACCESS:          0  HIT:          0  MISS:          0
LLC WRITEBACK ACCESS:     544537  HIT:     442327  MISS:     102210
Heartbeat CPU 0 instructions: 78000003 cycles: 181044380 heartbeat IPC: 0.1936 cumulative IPC: 0.171673 (Simulation time: 1 hr 45 min 41 sec) 

Region of Interest Statistics
cpu0_DTLB TOTAL     ACCESS:    9178600  HIT:    8299455  MISS:     879145
cpu0_DTLB LOAD      ACCESS:    6851846  HIT:    6171188  MISS:     680658
cpu0_DTLB RFO       ACCESS:    2326754  HIT:    2128267  MISS:     198487
cpu0_DTLB PREFETCH  ACCESS:          0  HIT:          0  MISS:          0
cpu0_DTLB WRITEBACK ACCESS:          0  HIT:          0  MISS:          0
cpu0_ITLB TOTAL     ACCESS:    3256311  HIT:    3256311  MISS:          0
cpu0_ITLB LOAD      ACCESS:    3256311  HIT:    3256311  MISS:          0
cpu0_ITLB RFO       ACCESS:          0  HIT:          0  MISS:          0
cpu0_ITLB PREFETCH  ACCESS:          0  HIT:          0  MISS:          0
cpu0_ITLB WRITEBACK ACCESS:          0  HIT:          0  MISS:          0
cpu0_L1I TOTAL     ACCESS:         25  HIT:         18  MISS:          7
cpu0_L1I LOAD      ACCESS:         25  HIT:         18  MISS:          7
cpu0_L1I RFO       ACCESS:          0  HIT:          0  MISS:          0
cpu0_L1I PREFETCH  ACCESS:          0  HIT:          0  MISS:          0
cpu0_L1I WRITEBACK ACCESS:          0  HIT:          0  MISS:          0
cpu0_STLB TOTAL     ACCESS:     879145  HIT:     469948  MISS:     409197
cpu0_STLB LOAD      ACCESS:     680658  HIT:     452207  MISS:     228451
cpu0_STLB RFO       ACCESS:     198487  HIT:      17741  MISS:     180746
cpu0_STLB PREFETCH  ACCESS:          0  HIT:          0  MISS:          0
cpu0_STLB WRITEBACK ACCESS:          0  HIT:          0  MISS:          0
cpu0_L1D TOTAL     ACCESS:   10600792  HIT:    9275574  MISS:    1325218
cpu0_L1D LOAD      ACCESS:    6748200  HIT:    5786327  MISS:     961873
cpu0_L1D RFO       ACCESS:    3528310  HIT:    3167946  MISS:     360364
cpu0_L1D PREFETCH  ACCESS:          0  HIT:          0  MISS:          0
cpu0_L1D WRITEBACK ACCESS:          0  HIT:          0  MISS:          0
cpu0_L2C TOTAL     ACCESS:    1915287  HIT:    1008341  MISS:     906946
cpu0_L2C LOAD      ACCESS:     961878  HIT:     388961  MISS:     572917
cpu0_L2C RFO       ACCESS:     360364  HIT:      26675  MISS:     333689
cpu0_L2C PREFETCH  ACCESS:          0  HIT:          0  MISS:          0
cpu0_L2C WRITEBACK ACCESS:     590064  HIT:     590021  MISS:         43
LLC TOTAL     ACCESS:    1469292  HIT:     522482  MISS:     946810
LLC LOAD      ACCESS:     572917  HIT:      15920  MISS:     556997
LLC RFO       ACCESS:     333688  HIT:      47684  MISS:     286004
LLC PREFETCH  ACCESS:          0  HIT:          0  MISS:          0
LLC WRITEBACK ACCESS:     562390  HIT:     458745  MISS:     103645
Heartbeat CPU 0 instructions: 80000000 cycles: 194689561 heartbeat IPC: 0.146572 cumulative IPC: 0.169735 (Simulation time: 1 hr 53 min 34 sec) 

Region of Interest Statistics
cpu0_DTLB TOTAL     ACCESS:    9802361  HIT:    8843196  MISS:     959165
cpu0_DTLB LOAD      ACCESS:    7305950  HIT:    6584762  MISS:     721188
cpu0_DTLB RFO       ACCESS:    2496411  HIT:    2258434  MISS:     237977
cpu0_DTLB PREFETCH  ACCESS:          0  HIT:          0  MISS:          0
cpu0_DTLB WRITEBACK ACCESS:          0  HIT:          0  MISS:          0
cpu0_ITLB TOTAL     ACCESS:    3457732  HIT:    3457732  MISS:          0
cpu0_ITLB LOAD      ACCESS:    3457732  HIT:    3457732  MISS:          0
cpu0_ITLB RFO       ACCESS:          0  HIT:          0  MISS:          0
cpu0_ITLB PREFETCH  ACCESS:          0  HIT:          0  MISS:          0
cpu0_ITLB WRITEBACK ACCESS:          0  HIT:          0  MISS:          0
cpu0_L1I TOTAL     ACCESS:         35  HIT:         28  MISS:          7
cpu0_L1I LOAD      ACCESS:         35  HIT:         28  MISS:          7
cpu0_L1I RFO       ACCESS:          0  HIT:          0  MISS:          0
cpu0_L1I PREFETCH  ACCESS:          0  HIT:          0  MISS:          0
cpu0_L1I WRITEBACK ACCESS:          0  HIT:          0  MISS:          0
cpu0_STLB TOTAL     ACCESS:     959165  HIT:     501448  MISS:     457717
cpu0_STLB LOAD      ACCESS:     721188  HIT:     480359  MISS:     240829
cpu0_STLB RFO       ACCESS:     237977  HIT:      21089  MISS:     216888
cpu0_STLB PREFETCH  ACCESS:          0  HIT:          0  MISS:          0
cpu0_STLB WRITEBACK ACCESS:          0  HIT:          0  MISS:          0
cpu0_L1D TOTAL     ACCESS:   11318569  HIT:    9863253  MISS:    1455316
cpu0_L1D LOAD      ACCESS:    7177001  HIT:    6153690  MISS:    1023311
cpu0_L1D RFO       ACCESS:    3785602  HIT:    3356833  MISS:     428769
cpu0_L1D PREFETCH  ACCESS:          0  HIT:          0  MISS:          0
cpu0_L1D WRITEBACK ACCESS:          0  HIT:          0  MISS:          0
cpu0_L2C TOTAL     ACCESS:    2127523  HIT:    1113065  MISS:    1014458
cpu0_L2C LOAD      ACCESS:    1023316  HIT:     409818  MISS:     613498
cpu0_L2C RFO       ACCESS:     428769  HIT:      28195  MISS:     400574
cpu0_L2C PREFETCH  ACCESS:          0  HIT:          0  MISS:          0
cpu0_L2C WRITEBACK ACCESS:     672202  HIT:     672151  MISS:         51
LLC TOTAL     ACCESS:    1657262  HIT:     596533  MISS:    1060729
LLC LOAD      ACCESS:     613498  HIT:      19225  MISS:     594273
LLC RFO       ACCESS:     400573  HIT:      55445  MISS:     345128
LLC PREFETCH  ACCESS:          0  HIT:          0  MISS:          0
LLC WRITEBACK ACCESS:     642856  HIT:     521721  MISS:     121135
Heartbeat CPU 0 instructions: 82000000 cycles: 208762526 heartbeat IPC: 0.142116 cumulative IPC: 0.167698 (Simulation time: 2 hr 1 min 27 sec) 

Region of Interest Statistics
cpu0_DTLB TOTAL     ACCESS:   10422155  HIT:    9382561  MISS:    1039594
cpu0_DTLB LOAD      ACCESS:    7755791  HIT:    6993642  MISS:     762149
cpu0_DTLB RFO       ACCESS:    2666364  HIT:    2388919  MISS:     277445
cpu0_DTLB PREFETCH  ACCESS:          0  HIT:          0  MISS:          0
cpu0_DTLB WRITEBACK ACCESS:          0  HIT:          0  MISS:          0
cpu0_ITLB TOTAL     ACCESS:    3659223  HIT:    3659223  MISS:          0
cpu0_ITLB LOAD      ACCESS:    3659223  HIT:    3659223  MISS:          0
cpu0_ITLB RFO       ACCESS:          0  HIT:          0  MISS:          0
cpu0_ITLB PREFETCH  ACCESS:          0  HIT:          0  MISS:          0
cpu0_ITLB WRITEBACK ACCESS:          0  HIT:          0  MISS:          0
cpu0_L1I TOTAL     ACCESS:         37  HIT:         30  MISS:          7
cpu0_L1I LOAD      ACCESS:         37  HIT:         30  MISS:          7
cpu0_L1I RFO       ACCESS:          0  HIT:          0  MISS:          0
cpu0_L1I PREFETCH  ACCESS:          0  HIT:          0  MISS:          0
cpu0_L1I WRITEBACK ACCESS:          0  HIT:          0  MISS:          0
cpu0_STLB TOTAL     ACCESS:    1039594  HIT:     530948  MISS:     508646
cpu0_STLB LOAD      ACCESS:     762149  HIT:     506529  MISS:     255620
cpu0_STLB RFO       ACCESS:     277445  HIT:      24419  MISS:     253026
cpu0_STLB PREFETCH  ACCESS:          0  HIT:          0  MISS:          0
cpu0_STLB WRITEBACK ACCESS:          0  HIT:          0  MISS:          0
cpu0_L1D TOTAL     ACCESS:   12039180  HIT:   10454020  MISS:    1585160
cpu0_L1D LOAD      ACCESS:    7605682  HIT:    6521166  MISS:    1084516
cpu0_L1D RFO       ACCESS:    4043507  HIT:    3546345  MISS:     497162
cpu0_L1D PREFETCH  ACCESS:          0  HIT:          0  MISS:          0
cpu0_L1D WRITEBACK ACCESS:          0  HIT:          0  MISS:          0
cpu0_L2C TOTAL     ACCESS:    2339273  HIT:    1217548  MISS:    1121725
cpu0_L2C LOAD      ACCESS:    1084521  HIT:     430698  MISS:     653823
cpu0_L2C RFO       ACCESS:     497162  HIT:      29697  MISS:     467465
cpu0_L2C PREFETCH  ACCESS:          0  HIT:          0  MISS:          0
cpu0_L2C WRITEBACK ACCESS:     754108  HIT:     754051  MISS:         57
LLC TOTAL     ACCESS:    1844659  HIT:     667082  MISS:    1177577
LLC LOAD      ACCESS:     653823  HIT:      20519  MISS:     633304
LLC RFO       ACCESS:     467464  HIT:      62639  MISS:     404825
LLC PREFETCH  ACCESS:          0  HIT:          0  MISS:          0
LLC WRITEBACK ACCESS:     722992  HIT:     583761  MISS:     139231
Heartbeat CPU 0 instructions: 84000004 cycles: 219126198 heartbeat IPC: 0.192982 cumulative IPC: 0.169001 (Simulation time: 2 hr 4 min 5 sec) 

Region of Interest Statistics
cpu0_DTLB TOTAL     ACCESS:   11099708  HIT:   10006788  MISS:    1092920
cpu0_DTLB LOAD      ACCESS:    8268856  HIT:    7453511  MISS:     815345
cpu0_DTLB RFO       ACCESS:    2830852  HIT:    2553277  MISS:     277575
cpu0_DTLB PREFETCH  ACCESS:          0  HIT:          0  MISS:          0
cpu0_DTLB WRITEBACK ACCESS:          0  HIT:          0  MISS:          0
cpu0_ITLB TOTAL     ACCESS:    3908145  HIT:    3908145  MISS:          0
cpu0_ITLB LOAD      ACCESS:    3908145  HIT:    3908145  MISS:          0
cpu0_ITLB RFO       ACCESS:          0  HIT:          0  MISS:          0
cpu0_ITLB PREFETCH  ACCESS:          0  HIT:          0  MISS:          0
cpu0_ITLB WRITEBACK ACCESS:          0  HIT:          0  MISS:          0
cpu0_L1I TOTAL     ACCESS:         37  HIT:         30  MISS:          7
cpu0_L1I LOAD      ACCESS:         37  HIT:         30  MISS:          7
cpu0_L1I RFO       ACCESS:          0  HIT:          0  MISS:          0
cpu0_L1I PREFETCH  ACCESS:          0  HIT:          0  MISS:          0
cpu0_L1I WRITEBACK ACCESS:          0  HIT:          0  MISS:          0
cpu0_STLB TOTAL     ACCESS:    1092920  HIT:     569119  MISS:     523801
cpu0_STLB LOAD      ACCESS:     815345  HIT:     544574  MISS:     270771
cpu0_STLB RFO       ACCESS:     277575  HIT:      24545  MISS:     253030
cpu0_STLB PREFETCH  ACCESS:          0  HIT:          0  MISS:          0
cpu0_STLB WRITEBACK ACCESS:          0  HIT:          0  MISS:          0
cpu0_L1D TOTAL     ACCESS:   12815995  HIT:   11157195  MISS:    1658800
cpu0_L1D LOAD      ACCESS:    8117400  HIT:    6961395  MISS:    1156005
cpu0_L1D RFO       ACCESS:    4293464  HIT:    3794362  MISS:     499102
cpu0_L1D PREFETCH  ACCESS:          0  HIT:          0  MISS:          0
cpu0_L1D WRITEBACK ACCESS:          0  HIT:          0  MISS:          0
cpu0_L2C TOTAL     ACCESS:    2433102  HIT:    1270017  MISS:    1163085
cpu0_L2C LOAD      ACCESS:    1156009  HIT:     460882  MISS:     695127
cpu0_L2C RFO       ACCESS:     499102  HIT:      31594  MISS:     467508
cpu0_L2C PREFETCH  ACCESS:          0  HIT:          0  MISS:          0
cpu0_L2C WRITEBACK ACCESS:     774298  HIT:     774239  MISS:         59
LLC TOTAL     ACCESS:    1904426  HIT:     684387  MISS:    1220039
LLC LOAD      ACCESS:     695127  HIT:      21709  MISS:     673418
LLC RFO       ACCESS:     467507  HIT:      62640  MISS:     404867
LLC PREFETCH  ACCESS:          0  HIT:          0  MISS:          0
LLC WRITEBACK ACCESS:     741401  HIT:     599865  MISS:     141536
Heartbeat CPU 0 instructions: 86000002 cycles: 229547892 heartbeat IPC: 0.191907 cumulative IPC: 0.170129 (Simulation time: 2 hr 6 min 38 sec) 

Region of Interest Statistics
cpu0_DTLB TOTAL     ACCESS:   11782461  HIT:   10636887  MISS:    1145574
cpu0_DTLB LOAD      ACCESS:    8787345  HIT:    7919484  MISS:     867861
cpu0_DTLB RFO       ACCESS:    2995116  HIT:    2717403  MISS:     277713
cpu0_DTLB PREFETCH  ACCESS:          0  HIT:          0  MISS:          0
cpu0_DTLB WRITEBACK ACCESS:          0  HIT:          0  MISS:          0
cpu0_ITLB TOTAL     ACCESS:    4155622  HIT:    4155622  MISS:          0
cpu0_ITLB LOAD      ACCESS:    4155622  HIT:    4155622  MISS:          0
cpu0_ITLB RFO       ACCESS:          0  HIT:          0  MISS:          0
cpu0_ITLB PREFETCH  ACCESS:          0  HIT:          0  MISS:          0
cpu0_ITLB WRITEBACK ACCESS:          0  HIT:          0  MISS:          0
cpu0_L1I TOTAL     ACCESS:         37  HIT:         30  MISS:          7
cpu0_L1I LOAD      ACCESS:         37  HIT:         30  MISS:          7
cpu0_L1I RFO       ACCESS:          0  HIT:          0  MISS:          0
cpu0_L1I PREFETCH  ACCESS:          0  HIT:          0  MISS:          0
cpu0_L1I WRITEBACK ACCESS:          0  HIT:          0  MISS:          0
cpu0_STLB TOTAL     ACCESS:    1145574  HIT:     605975  MISS:     539599
cpu0_STLB LOAD      ACCESS:     867861  HIT:     581297  MISS:     286564
cpu0_STLB RFO       ACCESS:     277713  HIT:      24678  MISS:     253035
cpu0_STLB PREFETCH  ACCESS:          0  HIT:          0  MISS:          0
cpu0_STLB WRITEBACK ACCESS:          0  HIT:          0  MISS:          0
cpu0_L1D TOTAL     ACCESS:   13591648  HIT:   11855163  MISS:    1736485
cpu0_L1D LOAD      ACCESS:    8628755  HIT:    7397470  MISS:    1231285
cpu0_L1D RFO       ACCESS:    4542006  HIT:    4040684  MISS:     501322
cpu0_L1D PREFETCH  ACCESS:          0  HIT:          0  MISS:          0
cpu0_L1D WRITEBACK ACCESS:          0  HIT:          0  MISS:          0
cpu0_L2C TOTAL     ACCESS:    2530749  HIT:    1326668  MISS:    1204081
cpu0_L2C LOAD      ACCESS:    1231289  HIT:     495186  MISS:     736103
cpu0_L2C RFO       ACCESS:     501322  HIT:      33805  MISS:     467517
cpu0_L2C PREFETCH  ACCESS:          0  HIT:          0  MISS:          0
cpu0_L2C WRITEBACK ACCESS:     794260  HIT:     794201  MISS:         59
LLC TOTAL     ACCESS:    1963111  HIT:     700840  MISS:    1262271
LLC LOAD      ACCESS:     736103  HIT:      21966  MISS:     714137
LLC RFO       ACCESS:     467516  HIT:      62643  MISS:     404873
LLC PREFETCH  ACCESS:          0  HIT:          0  MISS:          0
LLC WRITEBACK ACCESS:     759090  HIT:     616051  MISS:     143039
Heartbeat CPU 0 instructions: 88000000 cycles: 243363840 heartbeat IPC: 0.14476 cumulative IPC: 0.168574 (Simulation time: 2 hr 14 min 38 sec) 

Region of Interest Statistics
cpu0_DTLB TOTAL     ACCESS:   12418473  HIT:   11193901  MISS:    1224572
cpu0_DTLB LOAD      ACCESS:    9253917  HIT:    8346551  MISS:     907366
cpu0_DTLB RFO       ACCESS:    3164556  HIT:    2847350  MISS:     317206
cpu0_DTLB PREFETCH  ACCESS:          0  HIT:          0  MISS:          0
cpu0_DTLB WRITEBACK ACCESS:          0  HIT:          0  MISS:          0
cpu0_ITLB TOTAL     ACCESS:    4352680  HIT:    4352680  MISS:          0
cpu0_ITLB LOAD      ACCESS:    4352680  HIT:    4352680  MISS:          0
cpu0_ITLB RFO       ACCESS:          0  HIT:          0  MISS:          0
cpu0_ITLB PREFETCH  ACCESS:          0  HIT:          0  MISS:          0
cpu0_ITLB WRITEBACK ACCESS:          0  HIT:          0  MISS:          0
cpu0_L1I TOTAL     ACCESS:         39  HIT:         32  MISS:          7
cpu0_L1I LOAD      ACCESS:         39  HIT:         32  MISS:          7
cpu0_L1I RFO       ACCESS:          0  HIT:          0  MISS:          0
cpu0_L1I PREFETCH  ACCESS:          0  HIT:          0  MISS:          0
cpu0_L1I WRITEBACK ACCESS:          0  HIT:          0  MISS:          0
cpu0_STLB TOTAL     ACCESS:    1224572  HIT:     638200  MISS:     586372
cpu0_STLB LOAD      ACCESS:     907366  HIT:     610163  MISS:     297203
cpu0_STLB RFO       ACCESS:     317206  HIT:      28037  MISS:     289169
cpu0_STLB PREFETCH  ACCESS:          0  HIT:          0  MISS:          0
cpu0_STLB WRITEBACK ACCESS:          0  HIT:          0  MISS:          0
cpu0_L1D TOTAL     ACCESS:   14306766  HIT:   12439386  MISS:    1867380
cpu0_L1D LOAD      ACCESS:    9057849  HIT:    7764408  MISS:    1293441
cpu0_L1D RFO       ACCESS:    4798121  HIT:    4228325  MISS:     569796
cpu0_L1D PREFETCH  ACCESS:          0  HIT:          0  MISS:          0
cpu0_L1D WRITEBACK ACCESS:          0  HIT:          0  MISS:          0
cpu0_L2C TOTAL     ACCESS:    2743538  HIT:    1432250  MISS:    1311288
cpu0_L2C LOAD      ACCESS:    1293445  HIT:     516879  MISS:     776566
cpu0_L2C RFO       ACCESS:     569796  HIT:      35580  MISS:     534216
cpu0_L2C PREFETCH  ACCESS:          0  HIT:          0  MISS:          0
cpu0_L2C WRITEBACK ACCESS:     876154  HIT:     876092  MISS:         62
LLC TOTAL     ACCESS:    2149191  HIT:     771971  MISS:    1377220
LLC LOAD      ACCESS:     776566  HIT:      22708  MISS:     753858
LLC RFO       ACCESS:     534215  HIT:      70611  MISS:     463604
LLC PREFETCH  ACCESS:          0  HIT:          0  MISS:          0
LLC WRITEBACK ACCESS:     837966  HIT:     678461  MISS:     159505
Heartbeat CPU 0 instructions: 90000003 cycles: 253667443 heartbeat IPC: 0.194107 cumulative IPC: 0.16969 (Simulation time: 2 hr 17 min 16 sec) 

Region of Interest Statistics
cpu0_DTLB TOTAL     ACCESS:   13092454  HIT:   11814660  MISS:    1277794
cpu0_DTLB LOAD      ACCESS:    9763505  HIT:    8803014  MISS:     960491
cpu0_DTLB RFO       ACCESS:    3328949  HIT:    3011646  MISS:     317303
cpu0_DTLB PREFETCH  ACCESS:          0  HIT:          0  MISS:          0
cpu0_DTLB WRITEBACK ACCESS:          0  HIT:          0  MISS:          0
cpu0_ITLB TOTAL     ACCESS:    4602743  HIT:    4602743  MISS:          0
cpu0_ITLB LOAD      ACCESS:    4602743  HIT:    4602743  MISS:          0
cpu0_ITLB RFO       ACCESS:          0  HIT:          0  MISS:          0
cpu0_ITLB PREFETCH  ACCESS:          0  HIT:          0  MISS:          0
cpu0_ITLB WRITEBACK ACCESS:          0  HIT:          0  MISS:          0
cpu0_L1I TOTAL     ACCESS:         39  HIT:         32  MISS:          7
cpu0_L1I LOAD      ACCESS:         39  HIT:         32  MISS:          7
cpu0_L1I RFO       ACCESS:          0  HIT:          0  MISS:          0
cpu0_L1I PREFETCH  ACCESS:          0  HIT:          0  MISS:          0
cpu0_L1I WRITEBACK ACCESS:          0  HIT:          0  MISS:          0
cpu0_STLB TOTAL     ACCESS:    1277794  HIT:     676074  MISS:     601720
cpu0_STLB LOAD      ACCESS:     960491  HIT:     647951  MISS:     312540
cpu0_STLB RFO       ACCESS:     317303  HIT:      28123  MISS:     289180
cpu0_STLB PREFETCH  ACCESS:          0  HIT:          0  MISS:          0
cpu0_STLB WRITEBACK ACCESS:          0  HIT:          0  MISS:          0
cpu0_L1D TOTAL     ACCESS:   15083372  HIT:   13147654  MISS:    1935718
cpu0_L1D LOAD      ACCESS:    9569283  HIT:    8209328  MISS:    1359955
cpu0_L1D RFO       ACCESS:    5047949  HIT:    4476531  MISS:     571418
cpu0_L1D PREFETCH  ACCESS:          0  HIT:          0  MISS:          0
cpu0_L1D WRITEBACK ACCESS:          0  HIT:          0  MISS:          0
cpu0_L2C TOTAL     ACCESS:    2831813  HIT:    1479346  MISS:    1352467
cpu0_L2C LOAD      ACCESS:    1359959  HIT:     542255  MISS:     817704
cpu0_L2C RFO       ACCESS:     571418  HIT:      37173  MISS:     534245
cpu0_L2C PREFETCH  ACCESS:          0  HIT:          0  MISS:          0
cpu0_L2C WRITEBACK ACCESS:     896091  HIT:     896029  MISS:         62
LLC TOTAL     ACCESS:    2209720  HIT:     790124  MISS:    1419596
LLC LOAD      ACCESS:     817704  HIT:      24276  MISS:     793428
LLC RFO       ACCESS:     534244  HIT:      70615  MISS:     463629
LLC PREFETCH  ACCESS:          0  HIT:          0  MISS:          0
LLC WRITEBACK ACCESS:     857316  HIT:     695035  MISS:     162281
Heartbeat CPU 0 instructions: 92000000 cycles: 264158907 heartbeat IPC: 0.190631 cumulative IPC: 0.170582 (Simulation time: 2 hr 19 min 58 sec) 

Region of Interest Statistics
cpu0_DTLB TOTAL     ACCESS:   13767328  HIT:   12436581  MISS:    1330747
cpu0_DTLB LOAD      ACCESS:   10274364  HIT:    9261047  MISS:    1013317
cpu0_DTLB RFO       ACCESS:    3492964  HIT:    3175534  MISS:     317430
cpu0_DTLB PREFETCH  ACCESS:          0  HIT:          0  MISS:          0
cpu0_DTLB WRITEBACK ACCESS:          0  HIT:          0  MISS:          0
cpu0_ITLB TOTAL     ACCESS:    4852146  HIT:    4852146  MISS:          0
cpu0_ITLB LOAD      ACCESS:    4852146  HIT:    4852146  MISS:          0
cpu0_ITLB RFO       ACCESS:          0  HIT:          0  MISS:          0
cpu0_ITLB PREFETCH  ACCESS:          0  HIT:          0  MISS:          0
cpu0_ITLB WRITEBACK ACCESS:          0  HIT:          0  MISS:          0
cpu0_L1I TOTAL     ACCESS:         39  HIT:         32  MISS:          7
cpu0_L1I LOAD      ACCESS:         39  HIT:         32  MISS:          7
cpu0_L1I RFO       ACCESS:          0  HIT:          0  MISS:          0
cpu0_L1I PREFETCH  ACCESS:          0  HIT:          0  MISS:          0
cpu0_L1I WRITEBACK ACCESS:          0  HIT:          0  MISS:          0
cpu0_STLB TOTAL     ACCESS:    1330747  HIT:     710407  MISS:     620340
cpu0_STLB LOAD      ACCESS:    1013317  HIT:     682165  MISS:     331152
cpu0_STLB RFO       ACCESS:     317430  HIT:      28242  MISS:     289188
cpu0_STLB PREFETCH  ACCESS:          0  HIT:          0  MISS:          0
cpu0_STLB WRITEBACK ACCESS:          0  HIT:          0  MISS:          0
cpu0_L1D TOTAL     ACCESS:   15861545  HIT:   13847710  MISS:    2013835
cpu0_L1D LOAD      ACCESS:   10080059  HIT:    8644458  MISS:    1435601
cpu0_L1D RFO       ACCESS:    5296789  HIT:    4723149  MISS:     573640
cpu0_L1D PREFETCH  ACCESS:          0  HIT:          0  MISS:          0
cpu0_L1D WRITEBACK ACCESS:          0  HIT:          0  MISS:          0
cpu0_L2C TOTAL     ACCESS:    2929992  HIT:    1536337  MISS:    1393655
cpu0_L2C LOAD      ACCESS:    1435605  HIT:     576750  MISS:     858855
cpu0_L2C RFO       ACCESS:     573640  HIT:      39367  MISS:     534273
cpu0_L2C PREFETCH  ACCESS:          0  HIT:          0  MISS:          0
cpu0_L2C WRITEBACK ACCESS:     916153  HIT:     916091  MISS:         62
LLC TOTAL     ACCESS:    2268599  HIT:     806519  MISS:    1462080
LLC LOAD      ACCESS:     858855  HIT:      24559  MISS:     834296
LLC RFO       ACCESS:     534272  HIT:      70617  MISS:     463655
LLC PREFETCH  ACCESS:          0  HIT:          0  MISS:          0
LLC WRITEBACK ACCESS:     875007  HIT:     711142  MISS:     163865
Heartbeat CPU 0 instructions: 94000003 cycles: 277925810 heartbeat IPC: 0.145276 cumulative IPC: 0.169242 (Simulation time: 2 hr 27 min 41 sec) 

Region of Interest Statistics
cpu0_DTLB TOTAL     ACCESS:   14394249  HIT:   12983682  MISS:    1410567
cpu0_DTLB LOAD      ACCESS:   10732086  HIT:    9678413  MISS:    1053673
cpu0_DTLB RFO       ACCESS:    3662163  HIT:    3305269  MISS:     356894
cpu0_DTLB PREFETCH  ACCESS:          0  HIT:          0  MISS:          0
cpu0_DTLB WRITEBACK ACCESS:          0  HIT:          0  MISS:          0
cpu0_ITLB TOTAL     ACCESS:    5051473  HIT:    5051473  MISS:          0
cpu0_ITLB LOAD      ACCESS:    5051473  HIT:    5051473  MISS:          0
cpu0_ITLB RFO       ACCESS:          0  HIT:          0  MISS:          0
cpu0_ITLB PREFETCH  ACCESS:          0  HIT:          0  MISS:          0
cpu0_ITLB WRITEBACK ACCESS:          0  HIT:          0  MISS:          0
cpu0_L1I TOTAL     ACCESS:         41  HIT:         34  MISS:          7
cpu0_L1I LOAD      ACCESS:         41  HIT:         34  MISS:          7
cpu0_L1I RFO       ACCESS:          0  HIT:          0  MISS:          0
cpu0_L1I PREFETCH  ACCESS:          0  HIT:          0  MISS:          0
cpu0_L1I WRITEBACK ACCESS:          0  HIT:          0  MISS:          0
cpu0_STLB TOTAL     ACCESS:    1410567  HIT:     739809  MISS:     670758
cpu0_STLB LOAD      ACCESS:    1053673  HIT:     708243  MISS:     345430
cpu0_STLB RFO       ACCESS:     356894  HIT:      31566  MISS:     325328
cpu0_STLB PREFETCH  ACCESS:          0  HIT:          0  MISS:          0
cpu0_STLB WRITEBACK ACCESS:          0  HIT:          0  MISS:          0
cpu0_L1D TOTAL     ACCESS:   16578865  HIT:   14434665  MISS:    2144200
cpu0_L1D LOAD      ACCESS:   10508103  HIT:    9010783  MISS:    1497320
cpu0_L1D RFO       ACCESS:    5552521  HIT:    4910483  MISS:     642038
cpu0_L1D PREFETCH  ACCESS:          0  HIT:          0  MISS:          0
cpu0_L1D WRITEBACK ACCESS:          0  HIT:          0  MISS:          0
cpu0_L2C TOTAL     ACCESS:    3141972  HIT:    1641023  MISS:    1500949
cpu0_L2C LOAD      ACCESS:    1497324  HIT:     598004  MISS:     899320
cpu0_L2C RFO       ACCESS:     642038  HIT:      40979  MISS:     601059
cpu0_L2C PREFETCH  ACCESS:          0  HIT:          0  MISS:          0
cpu0_L2C WRITEBACK ACCESS:     997768  HIT:     997703  MISS:         65
LLC TOTAL     ACCESS:    2454974  HIT:     879141  MISS:    1575833
LLC LOAD      ACCESS:     899320  HIT:      25421  MISS:     873899
LLC RFO       ACCESS:     601058  HIT:      80059  MISS:     520999
LLC PREFETCH  ACCESS:          0  HIT:          0  MISS:          0
LLC WRITEBACK ACCESS:     954091  HIT:     773444  MISS:     180647
Heartbeat CPU 0 instructions: 96000000 cycles: 291819268 heartbeat IPC: 0.143952 cumulative IPC: 0.167959 (Simulation time: 2 hr 35 min 43 sec) 

Region of Interest Statistics
cpu0_DTLB TOTAL     ACCESS:   15009467  HIT:   13518722  MISS:    1490745
cpu0_DTLB LOAD      ACCESS:   11177361  HIT:   10082989  MISS:    1094372
cpu0_DTLB RFO       ACCESS:    3832106  HIT:    3435733  MISS:     396373
cpu0_DTLB PREFETCH  ACCESS:          0  HIT:          0  MISS:          0
cpu0_DTLB WRITEBACK ACCESS:          0  HIT:          0  MISS:          0
cpu0_ITLB TOTAL     ACCESS:    5254466  HIT:    5254466  MISS:          0
cpu0_ITLB LOAD      ACCESS:    5254466  HIT:    5254466  MISS:          0
cpu0_ITLB RFO       ACCESS:          0  HIT:          0  MISS:          0
cpu0_ITLB PREFETCH  ACCESS:          0  HIT:          0  MISS:          0
cpu0_ITLB WRITEBACK ACCESS:          0  HIT:          0  MISS:          0
cpu0_L1I TOTAL     ACCESS:         43  HIT:         36  MISS:          7
cpu0_L1I LOAD      ACCESS:         43  HIT:         36  MISS:          7
cpu0_L1I RFO       ACCESS:          0  HIT:          0  MISS:          0
cpu0_L1I PREFETCH  ACCESS:          0  HIT:          0  MISS:          0
cpu0_L1I WRITEBACK ACCESS:          0  HIT:          0  MISS:          0
cpu0_STLB TOTAL     ACCESS:    1490745  HIT:     772886  MISS:     717859
cpu0_STLB LOAD      ACCESS:    1094372  HIT:     737977  MISS:     356395
cpu0_STLB RFO       ACCESS:     396373  HIT:      34909  MISS:     361464
cpu0_STLB PREFETCH  ACCESS:          0  HIT:          0  MISS:          0
cpu0_STLB WRITEBACK ACCESS:          0  HIT:          0  MISS:          0
cpu0_L1D TOTAL     ACCESS:   17294595  HIT:   15025096  MISS:    2269499
cpu0_L1D LOAD      ACCESS:   10935715  HIT:    9381426  MISS:    1554289
cpu0_L1D RFO       ACCESS:    5810443  HIT:    5100304  MISS:     710139
cpu0_L1D PREFETCH  ACCESS:          0  HIT:          0  MISS:          0
cpu0_L1D WRITEBACK ACCESS:          0  HIT:          0  MISS:          0
cpu0_L2C TOTAL     ACCESS:    3349213  HIT:    1741296  MISS:    1607917
cpu0_L2C LOAD      ACCESS:    1554292  HIT:     614884  MISS:     939408
cpu0_L2C RFO       ACCESS:     710139  HIT:      42256  MISS:     667883
cpu0_L2C PREFETCH  ACCESS:          0  HIT:          0  MISS:          0
cpu0_L2C WRITEBACK ACCESS:    1079711  HIT:    1079630  MISS:         81
LLC TOTAL     ACCESS:    2641996  HIT:     950179  MISS:    1691817
LLC LOAD      ACCESS:     939408  HIT:      28099  MISS:     911309
LLC RFO       ACCESS:     667882  HIT:      86604  MISS:     581278
LLC PREFETCH  ACCESS:          0  HIT:          0  MISS:          0
LLC WRITEBACK ACCESS:    1034161  HIT:     835246  MISS:     198915
Heartbeat CPU 0 instructions: 98000002 cycles: 306045766 heartbeat IPC: 0.140583 cumulative IPC: 0.166607 (Simulation time: 2 hr 44 min 14 sec) 

Region of Interest Statistics
cpu0_DTLB TOTAL     ACCESS:   15634642  HIT:   14064186  MISS:    1570456
cpu0_DTLB LOAD      ACCESS:   11632273  HIT:   10497582  MISS:    1134691
cpu0_DTLB RFO       ACCESS:    4002369  HIT:    3566604  MISS:     435765
cpu0_DTLB PREFETCH  ACCESS:          0  HIT:          0  MISS:          0
cpu0_DTLB WRITEBACK ACCESS:          0  HIT:          0  MISS:          0
cpu0_ITLB TOTAL     ACCESS:    5454488  HIT:    5454488  MISS:          0
cpu0_ITLB LOAD      ACCESS:    5454488  HIT:    5454488  MISS:          0
cpu0_ITLB RFO       ACCESS:          0  HIT:          0  MISS:          0
cpu0_ITLB PREFETCH  ACCESS:          0  HIT:          0  MISS:          0
cpu0_ITLB WRITEBACK ACCESS:          0  HIT:          0  MISS:          0
cpu0_L1I TOTAL     ACCESS:         45  HIT:         38  MISS:          7
cpu0_L1I LOAD      ACCESS:         45  HIT:         38  MISS:          7
cpu0_L1I RFO       ACCESS:          0  HIT:          0  MISS:          0
cpu0_L1I PREFETCH  ACCESS:          0  HIT:          0  MISS:          0
cpu0_L1I WRITEBACK ACCESS:          0  HIT:          0  MISS:          0
cpu0_STLB TOTAL     ACCESS:    1570456  HIT:     805570  MISS:     764886
cpu0_STLB LOAD      ACCESS:    1134691  HIT:     767403  MISS:     367288
cpu0_STLB RFO       ACCESS:     435765  HIT:      38167  MISS:     397598
cpu0_STLB PREFETCH  ACCESS:          0  HIT:          0  MISS:          0
cpu0_STLB WRITEBACK ACCESS:          0  HIT:          0  MISS:          0
cpu0_L1D TOTAL     ACCESS:   18011602  HIT:   15627843  MISS:    2383759
cpu0_L1D LOAD      ACCESS:   11363918  HIT:    9763052  MISS:    1600866
cpu0_L1D RFO       ACCESS:    6069092  HIT:    5291479  MISS:     777613
cpu0_L1D PREFETCH  ACCESS:          0  HIT:          0  MISS:          0
cpu0_L1D WRITEBACK ACCESS:          0  HIT:          0  MISS:          0
cpu0_L2C TOTAL     ACCESS:    3544969  HIT:    1830369  MISS:    1714600
cpu0_L2C LOAD      ACCESS:    1600869  HIT:     621627  MISS:     979242
cpu0_L2C RFO       ACCESS:     777613  HIT:      42939  MISS:     734674
cpu0_L2C PREFETCH  ACCESS:          0  HIT:          0  MISS:          0
cpu0_L2C WRITEBACK ACCESS:    1161207  HIT:    1161106  MISS:        101
LLC TOTAL     ACCESS:    2831005  HIT:    1017241  MISS:    1813764
LLC LOAD      ACCESS:     979242  HIT:      30520  MISS:     948722
LLC RFO       ACCESS:     734673  HIT:      89781  MISS:     644892
LLC PREFETCH  ACCESS:          0  HIT:          0  MISS:          0
LLC WRITEBACK ACCESS:    1116507  HIT:     896698  MISS:     219809
Heartbeat CPU 0 instructions: 100000001 cycles: 316491993 heartbeat IPC: 0.191457 cumulative IPC: 0.167477 (Simulation time: 2 hr 46 min 50 sec) 

Region of Interest Statistics
cpu0_DTLB TOTAL     ACCESS:   16308944  HIT:   14684998  MISS:    1623946
cpu0_DTLB LOAD      ACCESS:   12142304  HIT:   10954268  MISS:    1188036
cpu0_DTLB RFO       ACCESS:    4166640  HIT:    3730730  MISS:     435910
cpu0_DTLB PREFETCH  ACCESS:          0  HIT:          0  MISS:          0
cpu0_DTLB WRITEBACK ACCESS:          0  HIT:          0  MISS:          0
cpu0_ITLB TOTAL     ACCESS:    5704258  HIT:    5704258  MISS:          0
cpu0_ITLB LOAD      ACCESS:    5704258  HIT:    5704258  MISS:          0
cpu0_ITLB RFO       ACCESS:          0  HIT:          0  MISS:          0
cpu0_ITLB PREFETCH  ACCESS:          0  HIT:          0  MISS:          0
cpu0_ITLB WRITEBACK ACCESS:          0  HIT:          0  MISS:          0
cpu0_L1I TOTAL     ACCESS:         45  HIT:         38  MISS:          7
cpu0_L1I LOAD      ACCESS:         45  HIT:         38  MISS:          7
cpu0_L1I RFO       ACCESS:          0  HIT:          0  MISS:          0
cpu0_L1I PREFETCH  ACCESS:          0  HIT:          0  MISS:          0
cpu0_L1I WRITEBACK ACCESS:          0  HIT:          0  MISS:          0
cpu0_STLB TOTAL     ACCESS:    1623946  HIT:     841127  MISS:     782819
cpu0_STLB LOAD      ACCESS:    1188036  HIT:     802820  MISS:     385216
cpu0_STLB RFO       ACCESS:     435910  HIT:      38307  MISS:     397603
cpu0_STLB PREFETCH  ACCESS:          0  HIT:          0  MISS:          0
cpu0_STLB WRITEBACK ACCESS:          0  HIT:          0  MISS:          0
cpu0_L1D TOTAL     ACCESS:   18790356  HIT:   16331697  MISS:    2458659
cpu0_L1D LOAD      ACCESS:   11875109  HIT:   10201578  MISS:    1673531
cpu0_L1D RFO       ACCESS:    6318740  HIT:    5539099  MISS:     779641
cpu0_L1D PREFETCH  ACCESS:          0  HIT:          0  MISS:          0
cpu0_L1D WRITEBACK ACCESS:          0  HIT:          0  MISS:          0
cpu0_L2C TOTAL     ACCESS:    3640047  HIT:    1884146  MISS:    1755901
cpu0_L2C LOAD      ACCESS:    1673534  HIT:     653034  MISS:    1020500
cpu0_L2C RFO       ACCESS:     779641  HIT:      44933  MISS:     734708
cpu0_L2C PREFETCH  ACCESS:          0  HIT:          0  MISS:          0
cpu0_L2C WRITEBACK ACCESS:    1181385  HIT:    1181284  MISS:        101
LLC TOTAL     ACCESS:    2889989  HIT:    1034191  MISS:    1855798
LLC LOAD      ACCESS:    1020500  HIT:      31207  MISS:     989293
LLC RFO       ACCESS:     734707  HIT:      89783  MISS:     644924
LLC PREFETCH  ACCESS:          0  HIT:          0  MISS:          0
LLC WRITEBACK ACCESS:    1134190  HIT:     912955  MISS:     221235
Heartbeat CPU 0 instructions: 102000003 cycles: 327005843 heartbeat IPC: 0.190225 cumulative IPC: 0.168251 (Simulation time: 2 hr 49 min 31 sec) 

Region of Interest Statistics
cpu0_DTLB TOTAL     ACCESS:   16982988  HIT:   15305565  MISS:    1677423
cpu0_DTLB LOAD      ACCESS:   12652469  HIT:   11411076  MISS:    1241393
cpu0_DTLB RFO       ACCESS:    4330519  HIT:    3894489  MISS:     436030
cpu0_DTLB PREFETCH  ACCESS:          0  HIT:          0  MISS:          0
cpu0_DTLB WRITEBACK ACCESS:          0  HIT:          0  MISS:          0
cpu0_ITLB TOTAL     ACCESS:    5953758  HIT:    5953758  MISS:          0
cpu0_ITLB LOAD      ACCESS:    5953758  HIT:    5953758  MISS:          0
cpu0_ITLB RFO       ACCESS:          0  HIT:          0  MISS:          0
cpu0_ITLB PREFETCH  ACCESS:          0  HIT:          0  MISS:          0
cpu0_ITLB WRITEBACK ACCESS:          0  HIT:          0  MISS:          0
cpu0_L1I TOTAL     ACCESS:         45  HIT:         38  MISS:          7
cpu0_L1I LOAD      ACCESS:         45  HIT:         38  MISS:          7
cpu0_L1I RFO       ACCESS:          0  HIT:          0  MISS:          0
cpu0_L1I PREFETCH  ACCESS:          0  HIT:          0  MISS:          0
cpu0_L1I WRITEBACK ACCESS:          0  HIT:          0  MISS:          0
cpu0_STLB TOTAL     ACCESS:    1677423  HIT:     874194  MISS:     803229
cpu0_STLB LOAD      ACCESS:    1241393  HIT:     835773  MISS:     405620
cpu0_STLB RFO       ACCESS:     436030  HIT:      38421  MISS:     397609
cpu0_STLB PREFETCH  ACCESS:          0  HIT:          0  MISS:          0
cpu0_STLB WRITEBACK ACCESS:          0  HIT:          0  MISS:          0
cpu0_L1D TOTAL     ACCESS:   19569560  HIT:   17032436  MISS:    2537124
cpu0_L1D LOAD      ACCESS:   12385735  HIT:   10636167  MISS:    1749568
cpu0_L1D RFO       ACCESS:    6566983  HIT:    5785106  MISS:     781877
cpu0_L1D PREFETCH  ACCESS:          0  HIT:          0  MISS:          0
cpu0_L1D WRITEBACK ACCESS:          0  HIT:          0  MISS:          0
cpu0_L2C TOTAL     ACCESS:    3738404  HIT:    1941316  MISS:    1797088
cpu0_L2C LOAD      ACCESS:    1749571  HIT:     687911  MISS:    1061660
cpu0_L2C RFO       ACCESS:     781877  HIT:      47154  MISS:     734723
cpu0_L2C PREFETCH  ACCESS:          0  HIT:          0  MISS:          0
cpu0_L2C WRITEBACK ACCESS:    1201277  HIT:    1201176  MISS:        101
LLC TOTAL     ACCESS:    2948869  HIT:    1050618  MISS:    1898251
LLC LOAD      ACCESS:    1061660  HIT:      31486  MISS:    1030174
LLC RFO       ACCESS:     734722  HIT:      89784  MISS:     644938
LLC PREFETCH  ACCESS:          0  HIT:          0  MISS:          0
LLC WRITEBACK ACCESS:    1151883  HIT:     929094  MISS:     222789
Heartbeat CPU 0 instructions: 104000001 cycles: 345045424 heartbeat IPC: 0.110867 cumulative IPC: 0.165086 (Simulation time: 3 hr 3 min 42 sec) 

Region of Interest Statistics
cpu0_DTLB TOTAL     ACCESS:   17563763  HIT:   15779092  MISS:    1784671
cpu0_DTLB LOAD      ACCESS:   13057747  HIT:   11787929  MISS:    1269818
cpu0_DTLB RFO       ACCESS:    4506016  HIT:    3991163  MISS:     514853
cpu0_DTLB PREFETCH  ACCESS:          0  HIT:          0  MISS:          0
cpu0_DTLB WRITEBACK ACCESS:          0  HIT:          0  MISS:          0
cpu0_ITLB TOTAL     ACCESS:    6103689  HIT:    6103689  MISS:          0
cpu0_ITLB LOAD      ACCESS:    6103689  HIT:    6103689  MISS:          0
cpu0_ITLB RFO       ACCESS:          0  HIT:          0  MISS:          0
cpu0_ITLB PREFETCH  ACCESS:          0  HIT:          0  MISS:          0
cpu0_ITLB WRITEBACK ACCESS:          0  HIT:          0  MISS:          0
cpu0_L1I TOTAL     ACCESS:         68  HIT:         54  MISS:         14
cpu0_L1I LOAD      ACCESS:         68  HIT:         54  MISS:         14
cpu0_L1I RFO       ACCESS:          0  HIT:          0  MISS:          0
cpu0_L1I PREFETCH  ACCESS:          0  HIT:          0  MISS:          0
cpu0_L1I WRITEBACK ACCESS:          0  HIT:          0  MISS:          0
cpu0_STLB TOTAL     ACCESS:    1784671  HIT:     900530  MISS:     884141
cpu0_STLB LOAD      ACCESS:    1269818  HIT:     855562  MISS:     414256
cpu0_STLB RFO       ACCESS:     514853  HIT:      44968  MISS:     469885
cpu0_STLB PREFETCH  ACCESS:          0  HIT:          0  MISS:          0
cpu0_STLB WRITEBACK ACCESS:          0  HIT:          0  MISS:          0
cpu0_L1D TOTAL     ACCESS:   20229358  HIT:   17509348  MISS:    2720010
cpu0_L1D LOAD      ACCESS:   12732621  HIT:   10935100  MISS:    1797521
cpu0_L1D RFO       ACCESS:    6832759  HIT:    5916255  MISS:     916504
cpu0_L1D PREFETCH  ACCESS:          0  HIT:          0  MISS:          0
cpu0_L1D WRITEBACK ACCESS:          0  HIT:          0  MISS:          0
cpu0_L2C TOTAL     ACCESS:    4065538  HIT:    2095179  MISS:    1970359
cpu0_L2C LOAD      ACCESS:    1797529  HIT:     696513  MISS:    1101016
cpu0_L2C RFO       ACCESS:     916504  HIT:      47938  MISS:     868566
cpu0_L2C PREFETCH  ACCESS:          0  HIT:          0  MISS:          0
cpu0_L2C WRITEBACK ACCESS:    1345520  HIT:    1345413  MISS:        107
LLC TOTAL     ACCESS:    3265504  HIT:    1170846  MISS:    2094658
LLC LOAD      ACCESS:    1101016  HIT:      34328  MISS:    1066688
LLC RFO       ACCESS:     868565  HIT:     100454  MISS:     768111
LLC PREFETCH  ACCESS:          0  HIT:          0  MISS:          0
LLC WRITEBACK ACCESS:    1295253  HIT:    1035791  MISS:     259462
Heartbeat CPU 0 instructions: 106000003 cycles: 359256791 heartbeat IPC: 0.140733 cumulative IPC: 0.164072 (Simulation time: 3 hr 12 min 6 sec) 

Region of Interest Statistics
cpu0_DTLB TOTAL     ACCESS:   18179968  HIT:   16315423  MISS:    1864545
cpu0_DTLB LOAD      ACCESS:   13503586  HIT:   12193323  MISS:    1310263
cpu0_DTLB RFO       ACCESS:    4676382  HIT:    4122100  MISS:     554282
cpu0_DTLB PREFETCH  ACCESS:          0  HIT:          0  MISS:          0
cpu0_DTLB WRITEBACK ACCESS:          0  HIT:          0  MISS:          0
cpu0_ITLB TOTAL     ACCESS:    6306801  HIT:    6306801  MISS:          0
cpu0_ITLB LOAD      ACCESS:    6306801  HIT:    6306801  MISS:          0
cpu0_ITLB RFO       ACCESS:          0  HIT:          0  MISS:          0
cpu0_ITLB PREFETCH  ACCESS:          0  HIT:          0  MISS:          0
cpu0_ITLB WRITEBACK ACCESS:          0  HIT:          0  MISS:          0
cpu0_L1I TOTAL     ACCESS:         94  HIT:         80  MISS:         14
cpu0_L1I LOAD      ACCESS:         94  HIT:         80  MISS:         14
cpu0_L1I RFO       ACCESS:          0  HIT:          0  MISS:          0
cpu0_L1I PREFETCH  ACCESS:          0  HIT:          0  MISS:          0
cpu0_L1I WRITEBACK ACCESS:          0  HIT:          0  MISS:          0
cpu0_STLB TOTAL     ACCESS:    1864545  HIT:     933280  MISS:     931265
cpu0_STLB LOAD      ACCESS:    1310263  HIT:     885024  MISS:     425239
cpu0_STLB RFO       ACCESS:     554282  HIT:      48256  MISS:     506026
cpu0_STLB PREFETCH  ACCESS:          0  HIT:          0  MISS:          0
cpu0_STLB WRITEBACK ACCESS:          0  HIT:          0  MISS:          0
cpu0_L1D TOTAL     ACCESS:   20945508  HIT:   18106354  MISS:    2839154
cpu0_L1D LOAD      ACCESS:   13160002  HIT:   11311316  MISS:    1848686
cpu0_L1D RFO       ACCESS:    7091286  HIT:    6107026  MISS:     984260
cpu0_L1D PREFETCH  ACCESS:          0  HIT:          0  MISS:          0
cpu0_L1D WRITEBACK ACCESS:          0  HIT:          0  MISS:          0
cpu0_L2C TOTAL     ACCESS:    4266228  HIT:    2189016  MISS:    2077212
cpu0_L2C LOAD      ACCESS:    1848694  HIT:     707807  MISS:    1140887
cpu0_L2C RFO       ACCESS:     984260  HIT:      48773  MISS:     935487
cpu0_L2C PREFETCH  ACCESS:          0  HIT:          0  MISS:          0
cpu0_L2C WRITEBACK ACCESS:    1427066  HIT:    1426939  MISS:        127
LLC TOTAL     ACCESS:    3453109  HIT:    1238136  MISS:    2214973
LLC LOAD      ACCESS:    1140887  HIT:      37362  MISS:    1103525
LLC RFO       ACCESS:     935486  HIT:     103902  MISS:     831584
LLC PREFETCH  ACCESS:          0  HIT:          0  MISS:          0
[...]
cpu0_DTLB AVERAGE MISS LATENCY: 150.141 cycles
cpu0_ITLB TOTAL     ACCESS:  167561399  HIT:  167561398  MISS:          1
cpu0_ITLB LOAD      ACCESS:  167561399  HIT:  167561398  MISS:          1
cpu0_ITLB RFO       ACCESS:          0  HIT:          0  MISS:          0
cpu0_ITLB PREFETCH  ACCESS:          0  HIT:          0  MISS:          0
cpu0_ITLB WRITEBACK ACCESS:          0  HIT:          0  MISS:          0
cpu0_ITLB TRANSLATION ACCESS:          0  HIT:          0  MISS:          0
cpu0_ITLB PREFETCH  REQUESTED:          0  ISSUED:          0  USEFUL:          0  USELESS:          0
cpu0_ITLB AVERAGE MISS LATENCY: 217 cycles
cpu0_L1I TOTAL     ACCESS:       2107  HIT:       2076  MISS:         31
cpu0_L1I LOAD      ACCESS:       2107  HIT:       2076  MISS:         31
cpu0_L1I RFO       ACCESS:          0  HIT:          0  MISS:          0
cpu0_L1I PREFETCH  ACCESS:          0  HIT:          0  MISS:          0
cpu0_L1I WRITEBACK ACCESS:          0  HIT:          0  MISS:          0
cpu0_L1I TRANSLATION ACCESS:          0  HIT:          0  MISS:          0
cpu0_L1I PREFETCH  REQUESTED:          0  ISSUED:          0  USEFUL:          0  USELESS:          0
cpu0_L1I AVERAGE MISS LATENCY: 185.548 cycles
cpu0_STLB TOTAL     ACCESS:   51305551  HIT:   24273057  MISS:   27032494
cpu0_STLB LOAD      ACCESS:   34610208  HIT:   22829148  MISS:   11781060
cpu0_STLB RFO       ACCESS:   16695343  HIT:    1443909  MISS:   15251434
cpu0_STLB PREFETCH  ACCESS:          0  HIT:          0  MISS:          0
cpu0_STLB WRITEBACK ACCESS:          0  HIT:          0  MISS:          0
cpu0_STLB TRANSLATION ACCESS:          0  HIT:          0  MISS:          0
cpu0_STLB PREFETCH  REQUESTED:          0  ISSUED:          0  USEFUL:          0  USELESS:          0
cpu0_STLB AVERAGE MISS LATENCY: 267.593 cycles
cpu0_L1D TOTAL     ACCESS:  558962652  HIT:  480002450  MISS:   78960202
cpu0_L1D LOAD      ACCESS:  348594409  HIT:  299298135  MISS:   49296274
cpu0_L1D RFO       ACCESS:  190483569  HIT:  160981775  MISS:   29501794
cpu0_L1D PREFETCH  ACCESS:          0  HIT:          0  MISS:          0
cpu0_L1D WRITEBACK ACCESS:          0  HIT:          0  MISS:          0
cpu0_L1D TRANSLATION ACCESS:   19884674  HIT:   19722540  MISS:     162134
cpu0_L1D PREFETCH  REQUESTED:          0  ISSUED:          0  USEFUL:          0  USELESS:          0
cpu0_L1D AVERAGE MISS LATENCY: 569.858 cycles
cpu0_L2C TOTAL     ACCESS:  120138584  HIT:   61364617  MISS:   58773967
cpu0_L2C LOAD      ACCESS:   49296163  HIT:   18754219  MISS:   30541944
cpu0_L2C RFO       ACCESS:   29501793  HIT:    1292994  MISS:   28208799
cpu0_L2C PREFETCH  ACCESS:          0  HIT:          0  MISS:          0
cpu0_L2C WRITEBACK ACCESS:   41178494  HIT:   41175415  MISS:       3079
cpu0_L2C TRANSLATION ACCESS:     162134  HIT:     141989  MISS:      20145
cpu0_L2C PREFETCH  REQUESTED:          0  ISSUED:          0  USEFUL:          0  USELESS:          0
cpu0_L2C AVERAGE MISS LATENCY: 750.775 cycles
LLC TOTAL     ACCESS:   98591691  HIT:   36164371  MISS:   62427320
LLC LOAD      ACCESS:   30541944  HIT:    1244383  MISS:   29297561
LLC RFO       ACCESS:   28208773  HIT:    3334918  MISS:   24873855
LLC PREFETCH  ACCESS:          0  HIT:          0  MISS:          0
LLC WRITEBACK ACCESS:   39820829  HIT:   31577802  MISS:    8243027
LLC TRANSLATION ACCESS:      20145  HIT:       7268  MISS:      12877
LLC PREFETCH  REQUESTED:          0  ISSUED:          0  USEFUL:          0  USELESS:          0
LLC AVERAGE MISS LATENCY: 687.068 cycles
~~~~~~~~~~Reuse Distance Profiler output~~~~~~~~~~
0	81165024	17678560
1	61830752	44316640
2	44527168	37316480
3	28335456	19019744
4	20267712	13797520
5	20843744	16993440
6	23076464	15728256
7	21912832	15002128
8	26635648	14570768
9	15196544	9490592
10	7550384	5057952
11	10462608	3325616
12	6837584	3683184
13	5221360	2345296
14	2483168	2202960
15	3977280	3664208
16	6435600	6132864
17	5613072	5030144
18	5243216	5146064
19	5883232	5664208
20	3556272	3465312
21	3771056	3469168
22	2771680	2671360
23	1841424	1786384
24	2389040	2355072
25	2658000	2577040
26	2656864	2451104
27	2010784	1826832
28	2286736	2004864
29	1687392	1520208
30	1291792	1150912
31	1378208	1183488
32	1472992	1211680
33	1229408	1067696
34	1095312	935136
35	824944	695888
36	988656	781280
37	1430784	1165312
38	1226976	1049264
39	1267728	1085728
40	1129056	991056
41	1235072	1015456
42	1056336	856704
43	1410256	1111760
44	1458496	1187216
45	1170096	971344
46	1089616	871872
47	1018704	810432
48	1062960	795856
49	929792	739696
50	833648	673328
51	761184	601856
52	731024	578928
53	670624	540544
54	611824	494384
55	680176	560960
56	558912	449136
57	729408	620896
58	601360	502368
59	590544	494960
60	570784	479872
61	548528	460336
62	517472	420576
63	495872	406784
64	976880	805552
66	815008	651808
68	758032	603264
70	645488	512896
72	565760	446848
74	527024	426480
76	475248	389888
78	394304	319616
80	350736	285632
82	327008	268624
84	286544	235712
86	239840	192016
88	221648	179120
90	190800	152400
92	176304	139344
94	157520	127968
96	145232	118608
98	121040	97712
100	106992	87952
102	100288	82704
104	87456	73520
106	80608	67008
108	76720	64864
110	69344	59040
112	66320	56720
114	62096	54448
116	59968	52160
118	52608	45872
120	50144	44336
122	46800	42304
124	44352	40144
126	40496	36880
128	80944	75392
132	68736	64432
136	67952	65056
140	58960	56272
144	56304	54176
148	55056	53600
152	50944	49712
156	47296	46192
160	44912	44208
164	43168	42480
168	42848	42400
172	37168	36800
176	38928	38608
180	36768	36512
184	34256	34128
188	33296	33152
192	31616	31440
196	29776	29680
200	28064	27984
204	27120	27088
208	27104	27024
212	27104	26976
216	25264	25264
220	24944	24928
224	22272	22208
228	23920	23856
232	23088	23056
236	21264	21168
240	19984	19968
244	19840	19776
248	19296	19248
252	18464	18416
256	35216	35184
264	35296	35200
272	33344	33312
280	32448	32384
288	28560	28512
296	27104	27040
304	26688	26560
312	26144	26080
320	25072	24944
328	24240	24176
336	24128	24096
344	21504	21472
352	20624	20608
360	21328	21216
368	20512	20496
376	18256	18224
384	18688	18640
392	16480	16432
400	16624	16560
408	15856	15824
416	15952	15904
424	15168	15136
432	14608	14592
440	14000	14000
448	13376	13328
456	14016	13984
464	13200	13168
472	12064	12000
480	12688	12624
488	11696	11632
496	11536	11504
504	11808	11760
512	21440	21216
528	20608	20512
544	21008	20816
560	19760	19616
576	19664	19536
592	18960	18864
608	15936	15776
624	16256	16096
640	15808	15696
656	15360	15200
672	14944	14816
688	13520	13312
704	12336	12240
720	12768	12704
736	12128	12064
752	12352	12304
768	11264	11120
784	11616	11488
800	10224	10096
816	10576	10336
832	10240	10096
848	9520	9392
864	9168	9088
880	8384	8256
896	9024	8816
912	9088	8896
928	8752	8608
944	8960	8800
960	8416	8288
976	8816	8736
992	7792	7648
1008	7600	7312
1024	14080	13808
1056	15856	15568
1088	14368	14112
1120	13984	13680
1152	13184	12688
1184	12736	12288
1216	12912	12544
1248	12192	11632
1280	13120	12672
1312	12832	12320
1344	12848	12416
1376	13120	12608
1408	12736	12368
1440	12224	11824
1472	11920	11472
1504	12288	11936
1536	11168	10672
1568	10928	10448
1600	12240	11840
1632	12016	11520
1664	11120	10848
1696	11136	10704
1728	11232	10784
1760	10656	10080
1792	10672	9984
1824	10896	10320
1856	11056	10592
1888	11056	10576
1920	10896	10464
1952	11632	11120
1984	12096	11536
2016	11904	11360
2048	23600	22256
2112	22704	21504
2176	23296	21936
2240	23984	22592
2304	23504	22208
2368	23488	22048
2432	25040	23792
2496	24224	23008
2560	25744	24544
2624	25952	24576
2688	26048	24560
2752	26384	25040
2816	26192	24352
2880	27488	25968
2944	27488	25760
3008	27040	25312
3072	27712	25872
3136	29568	27824
3200	29232	27328
3264	29632	27952
3328	31168	29424
3392	32912	30912
3456	33056	30960
3520	32736	30800
3584	35456	33264
3648	34032	31712
3712	33888	31760
3776	35392	33088
3840	37104	34736
3904	38512	36272
3968	37760	35456
4032	38336	36080
4096	78576	73040
4224	79920	75040
4352	83184	77616
4480	88896	83008
4608	94112	87920
4736	95888	89632
4864	95072	88752
4992	98576	92016
5120	101696	94912
5248	102896	96608
5376	104864	97856
5504	109968	102656
5632	114000	105872
5760	122160	113744
5888	135040	126528
6016	140928	132400
6144	144272	135360
6272	139424	131488
6400	140416	130992
6528	147072	137536
6656	154800	145008
6784	148768	139648
6912	145552	136672
7040	148592	139168
7168	152352	141904
7296	154576	143776
7424	165264	154272
7552	173904	162480
7680	174016	163280
7808	178400	167504
7936	183200	171920
8064	183328	171760
8192	368400	345232
8448	385904	360832
8704	406048	378480
8960	442944	415776
9216	471056	442096
9472	483664	452912
9728	549152	510400
9984	626672	587152
10240	708448	665056
10496	744416	698224
10752	765904	717328
11008	782272	733776
11264	811024	762624
11520	770128	722256
11776	752144	704656
12032	747200	701040
12288	744320	699552
12544	738976	694800
12800	703664	662256
13056	693104	653808
13312	635744	600064
13568	575552	541984
13824	509264	477040
14080	494432	467984
14336	446048	419952
14592	366272	344560
14848	328048	310112
15104	303488	287312
15360	261168	245168
15616	204848	192160
15872	172384	161104
16128	155904	146160
16384	275088	256640
16896	252240	234624
17408	275392	258576
17920	227120	211776
18432	186512	172288
18944	197184	183088
19456	169936	157984
19968	145648	133504
20480	149920	139440
20992	112576	103680
21504	72288	65216
22016	59104	52368
22528	56464	49968
23040	51328	44912
23552	56656	51296
24064	35920	30448
24576	36512	31248
25088	32112	27440
25600	25328	20752
26112	23488	18320
26624	21680	16704
27136	21056	16400
27648	15216	11120
28160	12368	8160
28672	9968	5584
29184	8688	3984
29696	7584	3504
30208	8576	4256
30720	7984	4080
31232	8064	3904
31744	8288	4208
32256	8160	4128
32768	17040	8784
33792	15696	7232
34816	17232	7776
35840	17072	8384
36864	18192	8656
37888	17808	8368
38912	19424	9120
39936	18416	9216
40960	19040	8112
41984	18288	8224
43008	18352	8432
44032	18832	8480
45056	18912	8672
46080	18480	8256
47104	19520	8528
48128	18432	7728
49152	18896	8176
50176	18768	7904
51200	19872	8112
52224	21136	9360
53248	21312	9200
54272	20576	9152
55296	20864	9024
56320	21392	9584
57344	22128	9136
58368	21440	9392
59392	21872	9072
60416	23024	9648
61440	21952	9328
62464	22192	9376
63488	21280	8896
64512	20896	8336
65536	44928	18976
67584	45136	19312
69632	45024	19376
71680	44976	20464
73728	42944	19760
75776	44672	20352
77824	44544	19808
79872	46528	20032
81920	46672	21344
83968	49872	22752
86016	50160	22208
88064	48896	22320
90112	46160	22688
92160	46768	23264
94208	44672	23424
96256	45200	24048
98304	43392	23552
100352	46976	26064
102400	45408	25584
104448	48544	28240
106496	48080	27776
108544	117408	34288
110592	52032	26544
112640	45472	25008
114688	44928	25232
116736	116336	33968
118784	51600	26736
120832	46144	25200
122880	46128	25216
124928	119680	32944
126976	45056	24368
129024	44464	24256
131072	88160	48768
135168	162800	57600
139264	88912	48880
143360	227200	64208
147456	100208	50960
151552	227888	65088
155648	171408	57040
159744	86576	46896
163840	87792	47040
167936	158256	54464
172032	86848	47376
176128	235536	64496
180224	84560	46176
184320	233184	63536
188416	142432	53616
192512	100432	46784
196608	134800	50064
200704	180976	57152
204800	159824	55744
208896	228896	62480
212992	227408	63616
217088	230272	63056
221184	157008	55168
225280	82224	44432
229376	84496	46272
233472	155872	53312
237568	100544	46512
241664	137952	51152
245760	154992	54416
249856	230160	62464
253952	151760	52480
258048	83520	45952
262144	307456	105488
270336	304496	106080
278528	306336	106272
286720	165728	89024
294912	209216	95248
303104	184736	89904
311296	432112	119552
319488	446976	120256
327680	160528	88784
335872	370928	114368
344064	158864	88272
352256	159232	88656
360448	209600	94784
368640	246192	98160
376832	365264	111808
385024	364528	114720
393216	225088	96304
401408	293488	105776
409600	230032	98176
417792	156352	86592
425984	359008	112496
434176	208448	93152
442368	303696	107760
450560	222064	95568
458752	289840	105168
466944	223136	96048
475136	225520	96832
483328	154912	88544
491520	154464	87760
499712	219968	95808
507904	217584	96576
516096	222784	97968
524288	372512	184000
540672	756400	232256
557056	417760	187024
573440	385024	187072
589824	497328	203920
606208	401376	190768
622592	394768	185584
638976	366016	186624
655360	489056	205744
671744	427776	195984
688128	548864	214192
704512	434512	198240
720896	589872	217248
737280	419232	195328
753664	415552	194688
770048	442480	201056
786432	509232	210480
802816	414544	197152
819200	415392	199888
835584	408288	198144
851968	520672	212624
868352	571888	219248
884736	592896	225536
901120	325184	184928
917504	490016	207696
933888	416720	201392
950272	398000	199152
966656	393840	198144
983040	332800	184288
999424	446672	207232
1015808	441584	202432
1032192	490784	215632
1048576	969520	419920
1081344	904352	411104
1114112	685152	377344
1146880	1002768	426208
1179648	983920	425360
1212416	902544	410880
1245184	883248	409104
1277952	787216	393616
1310720	933424	408880
1343488	781696	388768
1376256	755024	389664
1409024	678880	366688
1441792	578592	339840
1474560	787504	388592
1507328	642560	355232
1540096	745104	375200
1572864	676624	371056
1605632	683664	363104
1638400	622816	340960
1671168	486320	303136
1703936	700672	351344
1736704	649360	339840
1769472	634256	333024
1802240	440688	284592
1835008	569552	314800
1867776	412256	272576
1900544	564464	309856
1933312	481568	286048
1966080	590832	311952
1998848	410768	255440
2031616	437376	263552
2064384	503456	286672
2097152	696240	468768
2162688	862224	506496
2228224	693632	454288
2293760	630080	425520
2359296	333456	291888
2424832	256080	256032
2490368	241488	241488
2555904	226208	226176
2621440	215536	215520
2686976	203184	203120
2752512	200464	200384
2818048	204592	204560
2883584	207344	207280
2949120	184880	184800
3014656	179760	179728
3080192	172032	171920
3145728	189056	189024
3211264	225216	225168
3276800	168416	168368
3342336	146752	146736
3407872	135840	135760
3473408	120400	120384
3538944	111104	111056
3604480	105600	105568
3670016	103680	103664
3735552	102976	102976
3801088	98720	98720
3866624	88944	88928
3932160	90752	90720
3997696	81520	81520
4063232	76768	76720
4128768	67360	67360
4194304	108864	108800
4325376	110384	110336
4456448	98832	98768
4587520	93216	93120
4718592	92688	92624
4849664	74384	74352
4980736	63472	63424
5111808	55360	55360
5242880	56576	56560
5373952	59616	59600
5505024	58032	57952
5636096	44784	44784
5767168	40896	40800
5898240	38000	38000
6029312	59728	59728
6160384	45984	45984
6291456	39904	39888
6422528	38896	38880
6553600	38384	38304
6684672	50240	50240
6815744	37984	37952
6946816	33360	33344
7077888	33840	33840
7208960	28800	28752
7340032	22480	22480
7471104	22624	22624
7602176	22560	22560
7733248	18352	18352
7864320	17920	17888
7995392	14528	14496
8126464	12160	12128
8257536	12480	12480
8388608	20176	20144
8650752	10544	10512
8912896	8464	8432
9175040	10080	10064
9437184	12816	12800
9699328	8128	8048
9961472	7136	7072
10223616	10080	10048
10485760	4592	4544
10747904	3792	3792
11010048	5312	5296
11272192	8720	8624
11534336	8000	7952
11796480	6192	6176
12058624	2816	2768
12320768	3392	3392
12582912	3232	3232
12845056	2544	2544
13107200	1712	1664
13369344	1824	1808
13631488	1840	1808
13893632	1504	1488
14155776	2208	2208
14417920	1216	1200
14680064	560	560
14942208	1792	1776
15204352	688	688
15466496	304	304
15728640	768	768
15990784	704	656
16252928	800	800
16515072	416	416
16777216	1584	1584
17301504	1040	1008
17825792	592	592
18350080	352	272
18874368	352	336
19398656	496	496
19922944	576	512
20447232	272	240
20971520	96	80
21495808	160	160
22020096	400	400
22544384	192	96
23068672	160	112
23592960	256	256
24117248	160	112
24641536	64	64
25165824	160	160
25690112	176	160
26214400	64	48
26738688	16	16
27262976	48	48
27787264	16	0
28311552	48	16
28835840	32	32
29360128	128	32
29884416	128	112
30408704	160	144
30932992	96	96
31457280	80	64
31981568	64	48
32505856	16	0
33030144	80	16
33554432	128	96
34603008	128	128
35651584	144	112
36700160	144	112
37748736	112	96
38797312	144	48
39845888	80	64
40894464	64	16
41943040	192	128
42991616	112	16
44040192	96	64
45088768	128	96
46137344	112	48
47185920	96	80
48234496	16	16
49283072	128	48
50331648	48	48
51380224	112	80
52428800	64	48
53477376	128	96
54525952	48	48
55574528	160	128
56623104	240	112
57671680	224	112
58720256	64	64
59768832	16	16
60817408	80	80
61865984	144	112
62914560	0	0
63963136	112	48
65011712	112	80
66060288	48	48
67108864	144	144
69206016	256	208
71303168	192	112
73400320	208	160
75497472	144	80
77594624	144	144
79691776	128	128
81788928	192	112
83886080	160	96
85983232	112	112
88080384	112	96
90177536	96	96
92274688	80	80
94371840	48	48
96468992	80	64
98566144	80	64
100663296	80	48
102760448	80	64
104857600	64	64
106954752	208	144
109051904	64	48
111149056	64	32
113246208	208	96
115343360	16	16
117440512	80	48
119537664	64	64
121634816	48	48
123731968	32	16
125829120	128	112
127926272	64	48
130023424	64	32
132120576	64	48
134217728	32	32
138412032	192	192
142606336	128	128
146800640	128	96
150994944	208	160
155189248	128	96
159383552	64	64
163577856	96	64
167772160	64	48
171966464	112	64
176160768	32	32
180355072	80	48
184549376	80	48
188743680	32	32
192937984	128	112
197132288	48	32
201326592	48	48
205520896	16	16
209715200	48	32
213909504	32	32
218103808	32	32
222298112	16	16
226492416	16	16
230686720	32	32
234881024	32	32
239075328	48	32
243269632	0	0
247463936	16	16
251658240	16	16
255852544	48	32
260046848	16	16
264241152	16	16
268435456	144	96
276824064	48	32
285212672	32	32
293601280	16	16
301989888	0	0
310378496	64	64
318767104	32	32
327155712	16	16
335544320	16	16
343932928	32	32
352321536	64	64
360710144	48	32
369098752	32	32
377487360	32	32
385875968	16	16
394264576	48	16
402653184	16	16
411041792	16	16
419430400	16	16
427819008	80	16
436207616	16	16
444596224	16	16
452984832	16	0
461373440	0	0
469762048	0	0
478150656	0	0
486539264	0	0
494927872	16	16
503316480	0	0
511705088	32	0
520093696	0	0
528482304	0	0
536870912	0	0
553648128	0	0
570425344	0	0
587202560	0	0
603979776	0	0
620756992	0	0
637534208	0	0
654311424	0	0
671088640	0	0
687865856	0	0
704643072	0	0
721420288	0	0
738197504	0	0
754974720	0	0
771751936	0	0
788529152	0	0
805306368	0	0
822083584	0	0
838860800	0	0
855638016	0	0
872415232	0	0
889192448	0	0
905969664	0	0
922746880	0	0
939524096	0	0
956301312	0	0
973078528	0	0
989855744	0	0
1006632960	0	0
1023410176	0	0
1040187392	0	0
1056964608	0	0
1073741824	0	0
1107296256	0	0
1140850688	0	0
1174405120	0	0
1207959552	0	0
1241513984	0	0
1275068416	0	0
1308622848	0	0
1342177280	0	0
1375731712	0	0
1409286144	0	0
1442840576	0	0
1476395008	0	0
1509949440	0	0
1543503872	0	0
1577058304	0	0
1610612736	0	0
1644167168	0	0
1677721600	0	0
1711276032	0	0
1744830464	0	0
1778384896	0	0
1811939328	0	0
1845493760	0	0
1879048192	0	0
1912602624	0	0
1946157056	0	0
1979711488	0	0
2013265920	0	0
2046820352	0	0
2080374784	0	0
2113929216	0	0
2147483648	0	0
2214592512	0	0
2281701376	0	0
2348810240	0	0
2415919104	0	0
2483027968	0	0
2550136832	0	0
2617245696	0	0
2684354560	0	0
2751463424	0	0
2818572288	0	0
2885681152	0	0
2952790016	0	0
3019898880	0	0
3087007744	0	0
3154116608	0	0
3221225472	0	0
3288334336	0	0
3355443200	0	0
3422552064	0	0
3489660928	0	0
3556769792	0	0
3623878656	0	0
3690987520	0	0
3758096384	0	0
3825205248	0	0
3892314112	0	0
3959422976	0	0
4026531840	0	0
4093640704	0	0
4160749568	0	0
4227858432	0	0
~~~~~~~~~~Reuse Distance Profiler output end~~~~~~~~~~

Sampler size:9377

DRAM Statistics
 CHANNEL 0
 RQ ROW_BUFFER_HIT:     342572  ROW_BUFFER_MISS:   53829390
 DBUS AVG_CONGESTED_CYCLE:    4.00247
 WQ ROW_BUFFER_HIT:    6256506  ROW_BUFFER_MISS:   29245963  FULL:          0


CPU 0 Branch Prediction Accuracy: 89.3481% MPKI: 20.8104 Average ROB Occupancy at Mispredict: 27.527
Branch type MPKI
BRANCH_DIRECT_JUMP: 6e-06
BRANCH_INDIRECT: 0
BRANCH_CONDITIONAL: 20.8104
BRANCH_DIRECT_CALL: 6.66667e-07
BRANCH_INDIRECT_CALL: 3.46667e-05
BRANCH_RETURN: 6.66667e-07

