
*** ChampSim Multicore Out-of-Order Simulator ***

Warmup Instructions: 50000000
Simulation Instructions: 1500000000
Number of CPUs: 1
Off-chip DRAM Size: 4 GiB Channels: 1 Width: 64-bit Data Rate: 3200 MT/s

VirtualMemory physical capacity: 8588881920 num_ppages: 2096895
VirtualMemory page size: 4096 log2_page_size: 12

CPU 0 runs /s/traces/champsim_traces/473.astar-359B.champsimtrace.xz
CPU 0 Bimodal branch predictor
Basic BTB sets: 1024 ways: 8 indirect buffer size: 4096 RAS size: 64
Initializing LRU.
Initializing LRU.
Initializing LRU.
Initializing LRU.
Initializing rdLRU.
Initializing LRU.
Heartbeat CPU 0 instructions: 2000003 cycles: 700237 heartbeat IPC: 2.85618 cumulative IPC: 2.85618 (Simulation time: 0 hr 1 min 36 sec) 
Heartbeat CPU 0 instructions: 4000001 cycles: 1434882 heartbeat IPC: 2.7224 cumulative IPC: 2.78769 (Simulation time: 0 hr 3 min 15 sec) 
Heartbeat CPU 0 instructions: 6000003 cycles: 2169509 heartbeat IPC: 2.72247 cumulative IPC: 2.7656 (Simulation time: 0 hr 5 min 2 sec) 
Heartbeat CPU 0 instructions: 8000003 cycles: 2868320 heartbeat IPC: 2.862 cumulative IPC: 2.78909 (Simulation time: 0 hr 6 min 47 sec) 
Heartbeat CPU 0 instructions: 10000000 cycles: 3578138 heartbeat IPC: 2.81762 cumulative IPC: 2.79475 (Simulation time: 0 hr 8 min 36 sec) 
Heartbeat CPU 0 instructions: 12000003 cycles: 4301764 heartbeat IPC: 2.76386 cumulative IPC: 2.78955 (Simulation time: 0 hr 10 min 24 sec) 
Heartbeat CPU 0 instructions: 14000001 cycles: 5001727 heartbeat IPC: 2.85729 cumulative IPC: 2.79903 (Simulation time: 0 hr 12 min 2 sec) 
Heartbeat CPU 0 instructions: 16000004 cycles: 5736185 heartbeat IPC: 2.7231 cumulative IPC: 2.78931 (Simulation time: 0 hr 13 min 54 sec) 
Heartbeat CPU 0 instructions: 18000000 cycles: 6471223 heartbeat IPC: 2.72094 cumulative IPC: 2.78155 (Simulation time: 0 hr 15 min 41 sec) 
Heartbeat CPU 0 instructions: 20000004 cycles: 7205956 heartbeat IPC: 2.72208 cumulative IPC: 2.77548 (Simulation time: 0 hr 17 min 31 sec) 
Heartbeat CPU 0 instructions: 22000001 cycles: 7905302 heartbeat IPC: 2.85981 cumulative IPC: 2.78294 (Simulation time: 0 hr 19 min 14 sec) 
Heartbeat CPU 0 instructions: 24000000 cycles: 8605495 heartbeat IPC: 2.85635 cumulative IPC: 2.78892 (Simulation time: 0 hr 20 min 55 sec) 
Heartbeat CPU 0 instructions: 26000003 cycles: 9339351 heartbeat IPC: 2.72533 cumulative IPC: 2.78392 (Simulation time: 0 hr 22 min 48 sec) 
Heartbeat CPU 0 instructions: 28000003 cycles: 10038168 heartbeat IPC: 2.86198 cumulative IPC: 2.78935 (Simulation time: 0 hr 24 min 32 sec) 
Heartbeat CPU 0 instructions: 30000003 cycles: 10772286 heartbeat IPC: 2.72436 cumulative IPC: 2.78492 (Simulation time: 0 hr 26 min 25 sec) 
Heartbeat CPU 0 instructions: 32000003 cycles: 11471758 heartbeat IPC: 2.8593 cumulative IPC: 2.78946 (Simulation time: 0 hr 28 min 9 sec) 
Heartbeat CPU 0 instructions: 34000000 cycles: 12172386 heartbeat IPC: 2.85458 cumulative IPC: 2.79321 (Simulation time: 0 hr 29 min 51 sec) 
Heartbeat CPU 0 instructions: 36000004 cycles: 12907219 heartbeat IPC: 2.72171 cumulative IPC: 2.78914 (Simulation time: 0 hr 31 min 41 sec) 
Heartbeat CPU 0 instructions: 38000000 cycles: 13641589 heartbeat IPC: 2.72342 cumulative IPC: 2.7856 (Simulation time: 0 hr 33 min 31 sec) 
Heartbeat CPU 0 instructions: 40000001 cycles: 14344973 heartbeat IPC: 2.8434 cumulative IPC: 2.78843 (Simulation time: 0 hr 35 min 12 sec) 
Heartbeat CPU 0 instructions: 42000004 cycles: 15074430 heartbeat IPC: 2.74177 cumulative IPC: 2.78618 (Simulation time: 0 hr 36 min 58 sec) 
Heartbeat CPU 0 instructions: 44000003 cycles: 15809476 heartbeat IPC: 2.72092 cumulative IPC: 2.78314 (Simulation time: 0 hr 38 min 44 sec) 
Heartbeat CPU 0 instructions: 46000000 cycles: 16508862 heartbeat IPC: 2.85965 cumulative IPC: 2.78638 (Simulation time: 0 hr 40 min 21 sec) 
Heartbeat CPU 0 instructions: 48000000 cycles: 17208240 heartbeat IPC: 2.85968 cumulative IPC: 2.78936 (Simulation time: 0 hr 41 min 58 sec) 
Heartbeat CPU 0 instructions: 50000004 cycles: 17943384 heartbeat IPC: 2.72056 cumulative IPC: 2.78654 (Simulation time: 0 hr 43 min 43 sec) 

Warmup complete CPU 0 instructions: 50000004 cycles: 17943384 (Simulation time: 0 hr 43 min 43 sec) 

Heartbeat CPU 0 instructions: 52000003 cycles: 28641083 heartbeat IPC: 0.186956 cumulative IPC: 0.186956 (Simulation time: 0 hr 46 min 20 sec) 

Region of Interest Statistics
cpu0_DTLB TOTAL     ACCESS:     665544  HIT:     612438  MISS:      53106
cpu0_DTLB LOAD      ACCESS:     501196  HIT:     448217  MISS:      52979
cpu0_DTLB RFO       ACCESS:     164348  HIT:     164221  MISS:        127
cpu0_DTLB PREFETCH  ACCESS:          0  HIT:          0  MISS:          0
cpu0_DTLB WRITEBACK ACCESS:          0  HIT:          0  MISS:          0
cpu0_ITLB TOTAL     ACCESS:     252532  HIT:     252532  MISS:          0
cpu0_ITLB LOAD      ACCESS:     252532  HIT:     252532  MISS:          0
cpu0_ITLB RFO       ACCESS:          0  HIT:          0  MISS:          0
cpu0_ITLB PREFETCH  ACCESS:          0  HIT:          0  MISS:          0
cpu0_ITLB WRITEBACK ACCESS:          0  HIT:          0  MISS:          0
cpu0_STLB TOTAL     ACCESS:      53106  HIT:      34470  MISS:      18636
cpu0_STLB LOAD      ACCESS:      52979  HIT:      34356  MISS:      18623
cpu0_STLB RFO       ACCESS:        127  HIT:        114  MISS:         13
cpu0_STLB PREFETCH  ACCESS:          0  HIT:          0  MISS:          0
cpu0_STLB WRITEBACK ACCESS:          0  HIT:          0  MISS:          0
cpu0_L1D TOTAL     ACCESS:     778774  HIT:     704090  MISS:      74684
cpu0_L1D LOAD      ACCESS:     510706  HIT:     438200  MISS:      72506
cpu0_L1D RFO       ACCESS:     249461  HIT:     247464  MISS:       1997
cpu0_L1D PREFETCH  ACCESS:          0  HIT:          0  MISS:          0
cpu0_L1D WRITEBACK ACCESS:          0  HIT:          0  MISS:          0
cpu0_L2C TOTAL     ACCESS:      94857  HIT:      53556  MISS:      41301
cpu0_L2C LOAD      ACCESS:      72505  HIT:      31271  MISS:      41234
cpu0_L2C RFO       ACCESS:       1997  HIT:       1946  MISS:         51
cpu0_L2C PREFETCH  ACCESS:          0  HIT:          0  MISS:          0
cpu0_L2C WRITEBACK ACCESS:      20174  HIT:      20173  MISS:          1
LLC TOTAL     ACCESS:      59472  HIT:       9326  MISS:      50146
LLC LOAD      ACCESS:      41234  HIT:        145  MISS:      41089
LLC RFO       ACCESS:         51  HIT:          1  MISS:         50
LLC PREFETCH  ACCESS:          0  HIT:          0  MISS:          0
LLC WRITEBACK ACCESS:      18172  HIT:       9180  MISS:       8992
Heartbeat CPU 0 instructions: 54000000 cycles: 43437727 heartbeat IPC: 0.135166 cumulative IPC: 0.156897 (Simulation time: 0 hr 55 min 5 sec) 

Region of Interest Statistics
cpu0_DTLB TOTAL     ACCESS:    1285132  HIT:    1151805  MISS:     133327
cpu0_DTLB LOAD      ACCESS:     951252  HIT:     857503  MISS:      93749
cpu0_DTLB RFO       ACCESS:     333880  HIT:     294302  MISS:      39578
cpu0_DTLB PREFETCH  ACCESS:          0  HIT:          0  MISS:          0
cpu0_DTLB WRITEBACK ACCESS:          0  HIT:          0  MISS:          0
cpu0_ITLB TOTAL     ACCESS:     454708  HIT:     454708  MISS:          0
cpu0_ITLB LOAD      ACCESS:     454708  HIT:     454708  MISS:          0
cpu0_ITLB RFO       ACCESS:          0  HIT:          0  MISS:          0
cpu0_ITLB PREFETCH  ACCESS:          0  HIT:          0  MISS:          0
cpu0_ITLB WRITEBACK ACCESS:          0  HIT:          0  MISS:          0
cpu0_L1I TOTAL     ACCESS:          2  HIT:          2  MISS:          0
cpu0_L1I LOAD      ACCESS:          2  HIT:          2  MISS:          0
cpu0_L1I RFO       ACCESS:          0  HIT:          0  MISS:          0
cpu0_L1I PREFETCH  ACCESS:          0  HIT:          0  MISS:          0
cpu0_L1I WRITEBACK ACCESS:          0  HIT:          0  MISS:          0
cpu0_STLB TOTAL     ACCESS:     133327  HIT:      64361  MISS:      68966
cpu0_STLB LOAD      ACCESS:      93749  HIT:      60928  MISS:      32821
cpu0_STLB RFO       ACCESS:      39578  HIT:       3433  MISS:      36145
cpu0_STLB PREFETCH  ACCESS:          0  HIT:          0  MISS:          0
cpu0_STLB WRITEBACK ACCESS:          0  HIT:          0  MISS:          0
cpu0_L1D TOTAL     ACCESS:    1497646  HIT:    1299051  MISS:     198595
cpu0_L1D LOAD      ACCESS:     938870  HIT:     810702  MISS:     128168
cpu0_L1D RFO       ACCESS:     506709  HIT:     436684  MISS:      70025
cpu0_L1D PREFETCH  ACCESS:          0  HIT:          0  MISS:          0
cpu0_L1D WRITEBACK ACCESS:          0  HIT:          0  MISS:          0
cpu0_L2C TOTAL     ACCESS:     300248  HIT:     151947  MISS:     148301
cpu0_L2C LOAD      ACCESS:     128166  HIT:      46638  MISS:      81528
cpu0_L2C RFO       ACCESS:      70025  HIT:       3330  MISS:      66695
cpu0_L2C PREFETCH  ACCESS:          0  HIT:          0  MISS:          0
cpu0_L2C WRITEBACK ACCESS:     101655  HIT:     101636  MISS:         19
LLC TOTAL     ACCESS:     246936  HIT:      38522  MISS:     208414
LLC LOAD      ACCESS:      81528  HIT:        479  MISS:      81049
LLC RFO       ACCESS:      66695  HIT:       2835  MISS:      63860
LLC PREFETCH  ACCESS:          0  HIT:          0  MISS:          0
LLC WRITEBACK ACCESS:      98654  HIT:      35208  MISS:      63446
Heartbeat CPU 0 instructions: 56000001 cycles: 54276675 heartbeat IPC: 0.18452 cumulative IPC: 0.165138 (Simulation time: 0 hr 57 min 46 sec) 

Region of Interest Statistics
cpu0_DTLB TOTAL     ACCESS:    1942309  HIT:    1755241  MISS:     187068
cpu0_DTLB LOAD      ACCESS:    1444280  HIT:    1296900  MISS:     147380
cpu0_DTLB RFO       ACCESS:     498029  HIT:     458341  MISS:      39688
cpu0_DTLB PREFETCH  ACCESS:          0  HIT:          0  MISS:          0
cpu0_DTLB WRITEBACK ACCESS:          0  HIT:          0  MISS:          0
cpu0_ITLB TOTAL     ACCESS:     709497  HIT:     709497  MISS:          0
cpu0_ITLB LOAD      ACCESS:     709497  HIT:     709497  MISS:          0
cpu0_ITLB RFO       ACCESS:          0  HIT:          0  MISS:          0
cpu0_ITLB PREFETCH  ACCESS:          0  HIT:          0  MISS:          0
cpu0_ITLB WRITEBACK ACCESS:          0  HIT:          0  MISS:          0
cpu0_L1I TOTAL     ACCESS:          2  HIT:          2  MISS:          0
cpu0_L1I LOAD      ACCESS:          2  HIT:          2  MISS:          0
cpu0_L1I RFO       ACCESS:          0  HIT:          0  MISS:          0
cpu0_L1I PREFETCH  ACCESS:          0  HIT:          0  MISS:          0
cpu0_L1I WRITEBACK ACCESS:          0  HIT:          0  MISS:          0
cpu0_STLB TOTAL     ACCESS:     187069  HIT:     100520  MISS:      86549
cpu0_STLB LOAD      ACCESS:     147381  HIT:      96983  MISS:      50398
cpu0_STLB RFO       ACCESS:      39688  HIT:       3537  MISS:      36151
cpu0_STLB PREFETCH  ACCESS:          0  HIT:          0  MISS:          0
cpu0_STLB WRITEBACK ACCESS:          0  HIT:          0  MISS:          0
cpu0_L1D TOTAL     ACCESS:    2274922  HIT:    2004523  MISS:     270399
cpu0_L1D LOAD      ACCESS:    1449092  HIT:    1251150  MISS:     197942
cpu0_L1D RFO       ACCESS:     756186  HIT:     684290  MISS:      71896
cpu0_L1D PREFETCH  ACCESS:          0  HIT:          0  MISS:          0
cpu0_L1D WRITEBACK ACCESS:          0  HIT:          0  MISS:          0
cpu0_L2C TOTAL     ACCESS:     392128  HIT:     202554  MISS:     189574
cpu0_L2C LOAD      ACCESS:     197940  HIT:      75187  MISS:     122753
cpu0_L2C RFO       ACCESS:      71896  HIT:       5167  MISS:      66729
cpu0_L2C PREFETCH  ACCESS:          0  HIT:          0  MISS:          0
cpu0_L2C WRITEBACK ACCESS:     121731  HIT:     121712  MISS:         19
LLC TOTAL     ACCESS:     305833  HIT:      48127  MISS:     257706
LLC LOAD      ACCESS:     122753  HIT:        581  MISS:     122172
LLC RFO       ACCESS:      66729  HIT:       2835  MISS:      63894
LLC PREFETCH  ACCESS:          0  HIT:          0  MISS:          0
LLC WRITEBACK ACCESS:     116278  HIT:      44709  MISS:      71569
Heartbeat CPU 0 instructions: 58000000 cycles: 69221927 heartbeat IPC: 0.133822 cumulative IPC: 0.156011 (Simulation time: 1 hr 6 min 18 sec) 

Region of Interest Statistics
cpu0_DTLB TOTAL     ACCESS:    2557084  HIT:    2289671  MISS:     267413
cpu0_DTLB LOAD      ACCESS:    1889532  HIT:    1700957  MISS:     188575
cpu0_DTLB RFO       ACCESS:     667552  HIT:     588714  MISS:      78838
cpu0_DTLB PREFETCH  ACCESS:          0  HIT:          0  MISS:          0
cpu0_DTLB WRITEBACK ACCESS:          0  HIT:          0  MISS:          0
cpu0_ITLB TOTAL     ACCESS:     913849  HIT:     913849  MISS:          0
cpu0_ITLB LOAD      ACCESS:     913849  HIT:     913849  MISS:          0
cpu0_ITLB RFO       ACCESS:          0  HIT:          0  MISS:          0
cpu0_ITLB PREFETCH  ACCESS:          0  HIT:          0  MISS:          0
cpu0_ITLB WRITEBACK ACCESS:          0  HIT:          0  MISS:          0
cpu0_L1I TOTAL     ACCESS:          4  HIT:          4  MISS:          0
cpu0_L1I LOAD      ACCESS:          4  HIT:          4  MISS:          0
cpu0_L1I RFO       ACCESS:          0  HIT:          0  MISS:          0
cpu0_L1I PREFETCH  ACCESS:          0  HIT:          0  MISS:          0
cpu0_L1I WRITEBACK ACCESS:          0  HIT:          0  MISS:          0
cpu0_STLB TOTAL     ACCESS:     267413  HIT:     128574  MISS:     138839
cpu0_STLB LOAD      ACCESS:     188575  HIT:     121811  MISS:      66764
cpu0_STLB RFO       ACCESS:      78838  HIT:       6763  MISS:      72075
cpu0_STLB PREFETCH  ACCESS:          0  HIT:          0  MISS:          0
cpu0_STLB WRITEBACK ACCESS:          0  HIT:          0  MISS:          0
cpu0_L1D TOTAL     ACCESS:    2994861  HIT:    2589414  MISS:     405447
cpu0_L1D LOAD      ACCESS:    1877662  HIT:    1612214  MISS:     265448
cpu0_L1D RFO       ACCESS:    1012094  HIT:     872903  MISS:     139191
cpu0_L1D PREFETCH  ACCESS:          0  HIT:          0  MISS:          0
cpu0_L1D WRITEBACK ACCESS:          0  HIT:          0  MISS:          0
cpu0_L2C TOTAL     ACCESS:     607638  HIT:     312222  MISS:     295416
cpu0_L2C LOAD      ACCESS:     265446  HIT:     101984  MISS:     163462
cpu0_L2C RFO       ACCESS:     139191  HIT:       7366  MISS:     131825
cpu0_L2C PREFETCH  ACCESS:          0  HIT:          0  MISS:          0
cpu0_L2C WRITEBACK ACCESS:     202193  HIT:     202171  MISS:         22
LLC TOTAL     ACCESS:     486904  HIT:      76321  MISS:     410583
LLC LOAD      ACCESS:     163462  HIT:        731  MISS:     162731
LLC RFO       ACCESS:     131825  HIT:       5579  MISS:     126246
LLC PREFETCH  ACCESS:          0  HIT:          0  MISS:          0
LLC WRITEBACK ACCESS:     191510  HIT:      70007  MISS:     121503
Heartbeat CPU 0 instructions: 60000000 cycles: 79879960 heartbeat IPC: 0.187652 cumulative IPC: 0.161455 (Simulation time: 1 hr 9 min 2 sec) 

Region of Interest Statistics
cpu0_DTLB TOTAL     ACCESS:    3230522  HIT:    2909795  MISS:     320727
cpu0_DTLB LOAD      ACCESS:    2398736  HIT:    2157304  MISS:     241432
cpu0_DTLB RFO       ACCESS:     831786  HIT:     752491  MISS:      79295
cpu0_DTLB PREFETCH  ACCESS:          0  HIT:          0  MISS:          0
cpu0_DTLB WRITEBACK ACCESS:          0  HIT:          0  MISS:          0
cpu0_ITLB TOTAL     ACCESS:    1162752  HIT:    1162752  MISS:          0
cpu0_ITLB LOAD      ACCESS:    1162752  HIT:    1162752  MISS:          0
cpu0_ITLB RFO       ACCESS:          0  HIT:          0  MISS:          0
cpu0_ITLB PREFETCH  ACCESS:          0  HIT:          0  MISS:          0
cpu0_ITLB WRITEBACK ACCESS:          0  HIT:          0  MISS:          0
cpu0_L1I TOTAL     ACCESS:          4  HIT:          4  MISS:          0
cpu0_L1I LOAD      ACCESS:          4  HIT:          4  MISS:          0
cpu0_L1I RFO       ACCESS:          0  HIT:          0  MISS:          0
cpu0_L1I PREFETCH  ACCESS:          0  HIT:          0  MISS:          0
cpu0_L1I WRITEBACK ACCESS:          0  HIT:          0  MISS:          0
cpu0_STLB TOTAL     ACCESS:     320727  HIT:     166903  MISS:     153824
cpu0_STLB LOAD      ACCESS:     241432  HIT:     159903  MISS:      81529
cpu0_STLB RFO       ACCESS:      79295  HIT:       7000  MISS:      72295
cpu0_STLB PREFETCH  ACCESS:          0  HIT:          0  MISS:          0
cpu0_STLB WRITEBACK ACCESS:          0  HIT:          0  MISS:          0
cpu0_L1D TOTAL     ACCESS:    3770203  HIT:    3296243  MISS:     473960
cpu0_L1D LOAD      ACCESS:    2387278  HIT:    2056546  MISS:     330732
cpu0_L1D RFO       ACCESS:    1262930  HIT:    1120698  MISS:     142232
cpu0_L1D PREFETCH  ACCESS:          0  HIT:          0  MISS:          0
cpu0_L1D WRITEBACK ACCESS:          0  HIT:          0  MISS:          0
cpu0_L2C TOTAL     ACCESS:     697737  HIT:     359595  MISS:     338142
cpu0_L2C LOAD      ACCESS:     330730  HIT:     126081  MISS:     204649
cpu0_L2C RFO       ACCESS:     142232  HIT:       8887  MISS:     133345
cpu0_L2C PREFETCH  ACCESS:          0  HIT:          0  MISS:          0
cpu0_L2C WRITEBACK ACCESS:     223779  HIT:     223753  MISS:         26
LLC TOTAL     ACCESS:     552565  HIT:      86607  MISS:     465958
LLC LOAD      ACCESS:     204649  HIT:        961  MISS:     203688
LLC RFO       ACCESS:     133345  HIT:       5583  MISS:     127762
LLC PREFETCH  ACCESS:          0  HIT:          0  MISS:          0
LLC WRITEBACK ACCESS:     214449  HIT:      80059  MISS:     134390
Heartbeat CPU 0 instructions: 62000000 cycles: 90406770 heartbeat IPC: 0.189991 cumulative IPC: 0.165601 (Simulation time: 1 hr 11 min 39 sec) 

Region of Interest Statistics
cpu0_DTLB TOTAL     ACCESS:    3908436  HIT:    3535102  MISS:     373334
cpu0_DTLB LOAD      ACCESS:    2912391  HIT:    2618480  MISS:     293911
cpu0_DTLB RFO       ACCESS:     996045  HIT:     916622  MISS:      79423
cpu0_DTLB PREFETCH  ACCESS:          0  HIT:          0  MISS:          0
cpu0_DTLB WRITEBACK ACCESS:          0  HIT:          0  MISS:          0
cpu0_ITLB TOTAL     ACCESS:    1411543  HIT:    1411543  MISS:          0
cpu0_ITLB LOAD      ACCESS:    1411543  HIT:    1411543  MISS:          0
cpu0_ITLB RFO       ACCESS:          0  HIT:          0  MISS:          0
cpu0_ITLB PREFETCH  ACCESS:          0  HIT:          0  MISS:          0
cpu0_ITLB WRITEBACK ACCESS:          0  HIT:          0  MISS:          0
cpu0_L1I TOTAL     ACCESS:          4  HIT:          4  MISS:          0
cpu0_L1I LOAD      ACCESS:          4  HIT:          4  MISS:          0
cpu0_L1I RFO       ACCESS:          0  HIT:          0  MISS:          0
cpu0_L1I PREFETCH  ACCESS:          0  HIT:          0  MISS:          0
cpu0_L1I WRITEBACK ACCESS:          0  HIT:          0  MISS:          0
cpu0_STLB TOTAL     ACCESS:     373334  HIT:     201916  MISS:     171418
cpu0_STLB LOAD      ACCESS:     293911  HIT:     194792  MISS:      99119
cpu0_STLB RFO       ACCESS:      79423  HIT:       7124  MISS:      72299
cpu0_STLB PREFETCH  ACCESS:          0  HIT:          0  MISS:          0
cpu0_STLB WRITEBACK ACCESS:          0  HIT:          0  MISS:          0
cpu0_L1D TOTAL     ACCESS:    4548299  HIT:    3996130  MISS:     552169
cpu0_L1D LOAD      ACCESS:    2898703  HIT:    2492224  MISS:     406479
cpu0_L1D RFO       ACCESS:    1512050  HIT:    1367592  MISS:     144458
cpu0_L1D PREFETCH  ACCESS:          0  HIT:          0  MISS:          0
cpu0_L1D WRITEBACK ACCESS:          0  HIT:          0  MISS:          0
cpu0_L2C TOTAL     ACCESS:     796019  HIT:     416619  MISS:     379400
cpu0_L2C LOAD      ACCESS:     406477  HIT:     160599  MISS:     245878
cpu0_L2C RFO       ACCESS:     144458  HIT:      11094  MISS:     133364
cpu0_L2C PREFETCH  ACCESS:          0  HIT:          0  MISS:          0
cpu0_L2C WRITEBACK ACCESS:     243852  HIT:     243826  MISS:         26
LLC TOTAL     ACCESS:     611561  HIT:      95464  MISS:     516097
LLC LOAD      ACCESS:     245878  HIT:       1044  MISS:     244834
LLC RFO       ACCESS:     133364  HIT:       5584  MISS:     127780
LLC PREFETCH  ACCESS:          0  HIT:          0  MISS:          0
LLC WRITEBACK ACCESS:     232187  HIT:      88832  MISS:     143355
Heartbeat CPU 0 instructions: 64000004 cycles: 104963496 heartbeat IPC: 0.137394 cumulative IPC: 0.160882 (Simulation time: 1 hr 20 min 15 sec) 

Region of Interest Statistics
cpu0_DTLB TOTAL     ACCESS:    4544875  HIT:    4092457  MISS:     452418
cpu0_DTLB LOAD      ACCESS:    3379224  HIT:    3045184  MISS:     334040
cpu0_DTLB RFO       ACCESS:    1165651  HIT:    1047273  MISS:     118378
cpu0_DTLB PREFETCH  ACCESS:          0  HIT:          0  MISS:          0
cpu0_DTLB WRITEBACK ACCESS:          0  HIT:          0  MISS:          0
cpu0_ITLB TOTAL     ACCESS:    1610697  HIT:    1610697  MISS:          0
cpu0_ITLB LOAD      ACCESS:    1610697  HIT:    1610697  MISS:          0
cpu0_ITLB RFO       ACCESS:          0  HIT:          0  MISS:          0
cpu0_ITLB PREFETCH  ACCESS:          0  HIT:          0  MISS:          0
cpu0_ITLB WRITEBACK ACCESS:          0  HIT:          0  MISS:          0
cpu0_L1I TOTAL     ACCESS:          6  HIT:          6  MISS:          0
cpu0_L1I LOAD      ACCESS:          6  HIT:          6  MISS:          0
cpu0_L1I RFO       ACCESS:          0  HIT:          0  MISS:          0
cpu0_L1I PREFETCH  ACCESS:          0  HIT:          0  MISS:          0
cpu0_L1I WRITEBACK ACCESS:          0  HIT:          0  MISS:          0
cpu0_STLB TOTAL     ACCESS:     452418  HIT:     233405  MISS:     219013
cpu0_STLB LOAD      ACCESS:     334040  HIT:     223120  MISS:     110920
cpu0_STLB RFO       ACCESS:     118378  HIT:      10285  MISS:     108093
cpu0_STLB PREFETCH  ACCESS:          0  HIT:          0  MISS:          0
cpu0_STLB WRITEBACK ACCESS:          0  HIT:          0  MISS:          0
cpu0_L1D TOTAL     ACCESS:    5264646  HIT:    4579200  MISS:     685446
cpu0_L1D LOAD      ACCESS:    3329495  HIT:    2856482  MISS:     473013
cpu0_L1D RFO       ACCESS:    1766740  HIT:    1555837  MISS:     210903
cpu0_L1D PREFETCH  ACCESS:          0  HIT:          0  MISS:          0
cpu0_L1D WRITEBACK ACCESS:          0  HIT:          0  MISS:          0
cpu0_L2C TOTAL     ACCESS:    1008822  HIT:     524679  MISS:     484143
cpu0_L2C LOAD      ACCESS:     473011  HIT:     186804  MISS:     286207
cpu0_L2C RFO       ACCESS:     210904  HIT:      13160  MISS:     197744
cpu0_L2C PREFETCH  ACCESS:          0  HIT:          0  MISS:          0
cpu0_L2C WRITEBACK ACCESS:     323377  HIT:     323348  MISS:         29
LLC TOTAL     ACCESS:     790718  HIT:     122049  MISS:     668669
LLC LOAD      ACCESS:     286207  HIT:       1170  MISS:     285037
LLC RFO       ACCESS:     197744  HIT:       7450  MISS:     190294
LLC PREFETCH  ACCESS:          0  HIT:          0  MISS:          0
LLC WRITEBACK ACCESS:     306604  HIT:     113425  MISS:     193179
Heartbeat CPU 0 instructions: 66000000 cycles: 115877340 heartbeat IPC: 0.183253 cumulative IPC: 0.163375 (Simulation time: 1 hr 23 min 13 sec) 

Region of Interest Statistics
cpu0_DTLB TOTAL     ACCESS:    5209491  HIT:    4703573  MISS:     505918
cpu0_DTLB LOAD      ACCESS:    3879465  HIT:    3492575  MISS:     386890
cpu0_DTLB RFO       ACCESS:    1330026  HIT:    1210998  MISS:     119028
cpu0_DTLB PREFETCH  ACCESS:          0  HIT:          0  MISS:          0
cpu0_DTLB WRITEBACK ACCESS:          0  HIT:          0  MISS:          0
cpu0_ITLB TOTAL     ACCESS:    1861495  HIT:    1861495  MISS:          0
cpu0_ITLB LOAD      ACCESS:    1861495  HIT:    1861495  MISS:          0
cpu0_ITLB RFO       ACCESS:          0  HIT:          0  MISS:          0
cpu0_ITLB PREFETCH  ACCESS:          0  HIT:          0  MISS:          0
cpu0_ITLB WRITEBACK ACCESS:          0  HIT:          0  MISS:          0
cpu0_L1I TOTAL     ACCESS:          6  HIT:          6  MISS:          0
cpu0_L1I LOAD      ACCESS:          6  HIT:          6  MISS:          0
cpu0_L1I RFO       ACCESS:          0  HIT:          0  MISS:          0
cpu0_L1I PREFETCH  ACCESS:          0  HIT:          0  MISS:          0
cpu0_L1I WRITEBACK ACCESS:          0  HIT:          0  MISS:          0
cpu0_STLB TOTAL     ACCESS:     505918  HIT:     268093  MISS:     237825
cpu0_STLB LOAD      ACCESS:     386890  HIT:     257513  MISS:     129377
cpu0_STLB RFO       ACCESS:     119028  HIT:      10580  MISS:     108448
cpu0_STLB PREFETCH  ACCESS:          0  HIT:          0  MISS:          0
cpu0_STLB WRITEBACK ACCESS:          0  HIT:          0  MISS:          0
cpu0_L1D TOTAL     ACCESS:    6042607  HIT:    5282405  MISS:     760202
cpu0_L1D LOAD      ACCESS:    3837408  HIT:    3293985  MISS:     543423
cpu0_L1D RFO       ACCESS:    2018222  HIT:    1803138  MISS:     215084
cpu0_L1D PREFETCH  ACCESS:          0  HIT:          0  MISS:          0
cpu0_L1D WRITEBACK ACCESS:          0  HIT:          0  MISS:          0
cpu0_L2C TOTAL     ACCESS:    1106245  HIT:     578349  MISS:     527896
cpu0_L2C LOAD      ACCESS:     543421  HIT:     215841  MISS:     327580
cpu0_L2C RFO       ACCESS:     215084  HIT:      14974  MISS:     200110
cpu0_L2C PREFETCH  ACCESS:          0  HIT:          0  MISS:          0
cpu0_L2C WRITEBACK ACCESS:     346045  HIT:     346016  MISS:         29
LLC TOTAL     ACCESS:     858082  HIT:     132342  MISS:     725740
LLC LOAD      ACCESS:     327580  HIT:       1403  MISS:     326177
LLC RFO       ACCESS:     200110  HIT:       7451  MISS:     192659
LLC PREFETCH  ACCESS:          0  HIT:          0  MISS:          0
LLC WRITEBACK ACCESS:     330215  HIT:     123483  MISS:     206732
Heartbeat CPU 0 instructions: 68000000 cycles: 126628505 heartbeat IPC: 0.186026 cumulative IPC: 0.165616 (Simulation time: 1 hr 25 min 58 sec) 

Region of Interest Statistics
cpu0_DTLB TOTAL     ACCESS:    5877564  HIT:    5317907  MISS:     559657
cpu0_DTLB LOAD      ACCESS:    4383604  HIT:    3943072  MISS:     440532
cpu0_DTLB RFO       ACCESS:    1493960  HIT:    1374835  MISS:     119125
cpu0_DTLB PREFETCH  ACCESS:          0  HIT:          0  MISS:          0
cpu0_DTLB WRITEBACK ACCESS:          0  HIT:          0  MISS:          0
cpu0_ITLB TOTAL     ACCESS:    2112815  HIT:    2112815  MISS:          0
cpu0_ITLB LOAD      ACCESS:    2112815  HIT:    2112815  MISS:          0
cpu0_ITLB RFO       ACCESS:          0  HIT:          0  MISS:          0
cpu0_ITLB PREFETCH  ACCESS:          0  HIT:          0  MISS:          0
cpu0_ITLB WRITEBACK ACCESS:          0  HIT:          0  MISS:          0
cpu0_L1I TOTAL     ACCESS:          6  HIT:          6  MISS:          0
cpu0_L1I LOAD      ACCESS:          6  HIT:          6  MISS:          0
cpu0_L1I RFO       ACCESS:          0  HIT:          0  MISS:          0
cpu0_L1I PREFETCH  ACCESS:          0  HIT:          0  MISS:          0
cpu0_L1I WRITEBACK ACCESS:          0  HIT:          0  MISS:          0
cpu0_STLB TOTAL     ACCESS:     559657  HIT:     294456  MISS:     265201
cpu0_STLB LOAD      ACCESS:     440532  HIT:     283805  MISS:     156727
cpu0_STLB RFO       ACCESS:     119125  HIT:      10651  MISS:     108474
cpu0_STLB PREFETCH  ACCESS:          0  HIT:          0  MISS:          0
cpu0_STLB WRITEBACK ACCESS:          0  HIT:          0  MISS:          0
cpu0_L1D TOTAL     ACCESS:    6828963  HIT:    5989741  MISS:     839222
cpu0_L1D LOAD      ACCESS:    4348465  HIT:    3728442  MISS:     620023
cpu0_L1D RFO       ACCESS:    2266634  HIT:    2049305  MISS:     217329
cpu0_L1D PREFETCH  ACCESS:          0  HIT:          0  MISS:          0
cpu0_L1D WRITEBACK ACCESS:          0  HIT:          0  MISS:          0
cpu0_L2C TOTAL     ACCESS:    1205232  HIT:     635884  MISS:     569348
cpu0_L2C LOAD      ACCESS:     620021  HIT:     251020  MISS:     369001
cpu0_L2C RFO       ACCESS:     217329  HIT:      17201  MISS:     200128
cpu0_L2C PREFETCH  ACCESS:          0  HIT:          0  MISS:          0
cpu0_L2C WRITEBACK ACCESS:     366012  HIT:     365983  MISS:         29
LLC TOTAL     ACCESS:     917296  HIT:     140666  MISS:     776630
LLC LOAD      ACCESS:     369001  HIT:       1566  MISS:     367435
LLC RFO       ACCESS:     200128  HIT:       7458  MISS:     192670
LLC PREFETCH  ACCESS:          0  HIT:          0  MISS:          0
LLC WRITEBACK ACCESS:     347977  HIT:     131633  MISS:     216344
Heartbeat CPU 0 instructions: 70000001 cycles: 139991851 heartbeat IPC: 0.149663 cumulative IPC: 0.163869 (Simulation time: 1 hr 32 min 53 sec) 

Region of Interest Statistics
cpu0_DTLB TOTAL     ACCESS:    6523036  HIT:    5887267  MISS:     635769
cpu0_DTLB LOAD      ACCESS:    4858752  HIT:    4373932  MISS:     484820
cpu0_DTLB RFO       ACCESS:    1664284  HIT:    1513335  MISS:     150949
cpu0_DTLB PREFETCH  ACCESS:          0  HIT:          0  MISS:          0
cpu0_DTLB WRITEBACK ACCESS:          0  HIT:          0  MISS:          0
cpu0_ITLB TOTAL     ACCESS:    2324618  HIT:    2324618  MISS:          0
cpu0_ITLB LOAD      ACCESS:    2324618  HIT:    2324618  MISS:          0
cpu0_ITLB RFO       ACCESS:          0  HIT:          0  MISS:          0
cpu0_ITLB PREFETCH  ACCESS:          0  HIT:          0  MISS:          0
cpu0_ITLB WRITEBACK ACCESS:          0  HIT:          0  MISS:          0
cpu0_L1I TOTAL     ACCESS:         23  HIT:         16  MISS:          7
cpu0_L1I LOAD      ACCESS:         23  HIT:         16  MISS:          7
cpu0_L1I RFO       ACCESS:          0  HIT:          0  MISS:          0
cpu0_L1I PREFETCH  ACCESS:          0  HIT:          0  MISS:          0
cpu0_L1I WRITEBACK ACCESS:          0  HIT:          0  MISS:          0
cpu0_STLB TOTAL     ACCESS:     635769  HIT:     323744  MISS:     312025
cpu0_STLB LOAD      ACCESS:     484820  HIT:     312608  MISS:     172212
cpu0_STLB RFO       ACCESS:     150949  HIT:      11136  MISS:     139813
cpu0_STLB PREFETCH  ACCESS:          0  HIT:          0  MISS:          0
cpu0_STLB WRITEBACK ACCESS:          0  HIT:          0  MISS:          0
cpu0_L1D TOTAL     ACCESS:    7567765  HIT:    6608810  MISS:     958955
cpu0_L1D LOAD      ACCESS:    4802699  HIT:    4113275  MISS:     689424
cpu0_L1D RFO       ACCESS:    2519418  HIT:    2252005  MISS:     267413
cpu0_L1D PREFETCH  ACCESS:          0  HIT:          0  MISS:          0
cpu0_L1D WRITEBACK ACCESS:          0  HIT:          0  MISS:          0
cpu0_L2C TOTAL     ACCESS:    1389139  HIT:     731304  MISS:     657835
cpu0_L2C LOAD      ACCESS:     689429  HIT:     279773  MISS:     409656
cpu0_L2C RFO       ACCESS:     267413  HIT:      19479  MISS:     247934
cpu0_L2C PREFETCH  ACCESS:          0  HIT:          0  MISS:          0
cpu0_L2C WRITEBACK ACCESS:     430179  HIT:     430147  MISS:         32
LLC TOTAL     ACCESS:    1064868  HIT:     163657  MISS:     901211
LLC LOAD      ACCESS:     409656  HIT:       1720  MISS:     407936
LLC RFO       ACCESS:     247933  HIT:       9796  MISS:     238137
LLC PREFETCH  ACCESS:          0  HIT:          0  MISS:          0
LLC WRITEBACK ACCESS:     407066  HIT:     152127  MISS:     254939
Heartbeat CPU 0 instructions: 72000003 cycles: 152029612 heartbeat IPC: 0.166144 cumulative IPC: 0.164074 (Simulation time: 1 hr 37 min 28 sec) 

Region of Interest Statistics
cpu0_DTLB TOTAL     ACCESS:    7180975  HIT:    6487581  MISS:     693394
cpu0_DTLB LOAD      ACCESS:    5353043  HIT:    4818398  MISS:     534645
cpu0_DTLB RFO       ACCESS:    1827932  HIT:    1669183  MISS:     158749
cpu0_DTLB PREFETCH  ACCESS:          0  HIT:          0  MISS:          0
cpu0_DTLB WRITEBACK ACCESS:          0  HIT:          0  MISS:          0
cpu0_ITLB TOTAL     ACCESS:    2561661  HIT:    2561661  MISS:          0
cpu0_ITLB LOAD      ACCESS:    2561661  HIT:    2561661  MISS:          0
cpu0_ITLB RFO       ACCESS:          0  HIT:          0  MISS:          0
cpu0_ITLB PREFETCH  ACCESS:          0  HIT:          0  MISS:          0
cpu0_ITLB WRITEBACK ACCESS:          0  HIT:          0  MISS:          0
cpu0_L1I TOTAL     ACCESS:         23  HIT:         16  MISS:          7
cpu0_L1I LOAD      ACCESS:         23  HIT:         16  MISS:          7
cpu0_L1I RFO       ACCESS:          0  HIT:          0  MISS:          0
cpu0_L1I PREFETCH  ACCESS:          0  HIT:          0  MISS:          0
cpu0_L1I WRITEBACK ACCESS:          0  HIT:          0  MISS:          0
cpu0_STLB TOTAL     ACCESS:     693394  HIT:     362120  MISS:     331274
cpu0_STLB LOAD      ACCESS:     534645  HIT:     347983  MISS:     186662
cpu0_STLB RFO       ACCESS:     158749  HIT:      14137  MISS:     144612
cpu0_STLB PREFETCH  ACCESS:          0  HIT:          0  MISS:          0
cpu0_STLB WRITEBACK ACCESS:          0  HIT:          0  MISS:          0
cpu0_L1D TOTAL     ACCESS:    8325113  HIT:    7279834  MISS:    1045279
cpu0_L1D LOAD      ACCESS:    5289648  HIT:    4534512  MISS:     755136
cpu0_L1D RFO       ACCESS:    2772493  HIT:    2484660  MISS:     287833
cpu0_L1D PREFETCH  ACCESS:          0  HIT:          0  MISS:          0
cpu0_L1D WRITEBACK ACCESS:          0  HIT:          0  MISS:          0
cpu0_L2C TOTAL     ACCESS:    1513336  HIT:     795680  MISS:     717656
cpu0_L2C LOAD      ACCESS:     755141  HIT:     304540  MISS:     450601
cpu0_L2C RFO       ACCESS:     287833  HIT:      21050  MISS:     266783
cpu0_L2C PREFETCH  ACCESS:          0  HIT:          0  MISS:          0
cpu0_L2C WRITEBACK ACCESS:     468052  HIT:     468018  MISS:         34
LLC TOTAL     ACCESS:    1163846  HIT:     178333  MISS:     985513
LLC LOAD      ACCESS:     450601  HIT:       1915  MISS:     448686
LLC RFO       ACCESS:     266782  HIT:       9802  MISS:     256980
LLC PREFETCH  ACCESS:          0  HIT:          0  MISS:          0
LLC WRITEBACK ACCESS:     446225  HIT:     166602  MISS:     279623
Heartbeat CPU 0 instructions: 74000000 cycles: 166905170 heartbeat IPC: 0.134449 cumulative IPC: 0.161115 (Simulation time: 1 hr 46 min 14 sec) 

Region of Interest Statistics
cpu0_DTLB TOTAL     ACCESS:    7809265  HIT:    7035401  MISS:     773864
cpu0_DTLB LOAD      ACCESS:    5810952  HIT:    5235297  MISS:     575655
cpu0_DTLB RFO       ACCESS:    1998313  HIT:    1800104  MISS:     198209
cpu0_DTLB PREFETCH  ACCESS:          0  HIT:          0  MISS:          0
cpu0_DTLB WRITEBACK ACCESS:          0  HIT:          0  MISS:          0
cpu0_ITLB TOTAL     ACCESS:    2761013  HIT:    2761013  MISS:          0
cpu0_ITLB LOAD      ACCESS:    2761013  HIT:    2761013  MISS:          0
cpu0_ITLB RFO       ACCESS:          0  HIT:          0  MISS:          0
cpu0_ITLB PREFETCH  ACCESS:          0  HIT:          0  MISS:          0
cpu0_ITLB WRITEBACK ACCESS:          0  HIT:          0  MISS:          0
cpu0_L1I TOTAL     ACCESS:         25  HIT:         18  MISS:          7
cpu0_L1I LOAD      ACCESS:         25  HIT:         18  MISS:          7
cpu0_L1I RFO       ACCESS:          0  HIT:          0  MISS:          0
cpu0_L1I PREFETCH  ACCESS:          0  HIT:          0  MISS:          0
cpu0_L1I WRITEBACK ACCESS:          0  HIT:          0  MISS:          0
cpu0_STLB TOTAL     ACCESS:     773864  HIT:     395059  MISS:     378805
cpu0_STLB LOAD      ACCESS:     575655  HIT:     377592  MISS:     198063
cpu0_STLB RFO       ACCESS:     198209  HIT:      17467  MISS:     180742
cpu0_STLB PREFETCH  ACCESS:          0  HIT:          0  MISS:          0
cpu0_STLB WRITEBACK ACCESS:          0  HIT:          0  MISS:          0
cpu0_L1D TOTAL     ACCESS:    9042595  HIT:    7872428  MISS:    1170167
cpu0_L1D LOAD      ACCESS:    5717789  HIT:    4906093  MISS:     811696
cpu0_L1D RFO       ACCESS:    3031208  HIT:    2675260  MISS:     355948
cpu0_L1D PREFETCH  ACCESS:          0  HIT:          0  MISS:          0
cpu0_L1D WRITEBACK ACCESS:          0  HIT:          0  MISS:          0
cpu0_L2C TOTAL     ACCESS:    1720284  HIT:     895440  MISS:     824844
cpu0_L2C LOAD      ACCESS:     811701  HIT:     320846  MISS:     490855
cpu0_L2C RFO       ACCESS:     355948  HIT:      22285  MISS:     333663
cpu0_L2C PREFETCH  ACCESS:          0  HIT:          0  MISS:          0
cpu0_L2C WRITEBACK ACCESS:     550112  HIT:     550069  MISS:         43
LLC TOTAL     ACCESS:    1351649  HIT:     206938  MISS:    1144711
LLC LOAD      ACCESS:     490855  HIT:       2194  MISS:     488661
LLC RFO       ACCESS:     333662  HIT:      11945  MISS:     321717
LLC PREFETCH  ACCESS:          0  HIT:          0  MISS:          0
LLC WRITEBACK ACCESS:     526849  HIT:     192784  MISS:     334065
Heartbeat CPU 0 instructions: 76000003 cycles: 177434130 heartbeat IPC: 0.189953 cumulative IPC: 0.163019 (Simulation time: 1 hr 48 min 51 sec) 

Region of Interest Statistics
cpu0_DTLB TOTAL     ACCESS:    8488215  HIT:    7660875  MISS:     827340
cpu0_DTLB LOAD      ACCESS:    6325812  HIT:    5696817  MISS:     628995
cpu0_DTLB RFO       ACCESS:    2162403  HIT:    1964058  MISS:     198345
cpu0_DTLB PREFETCH  ACCESS:          0  HIT:          0  MISS:          0
cpu0_DTLB WRITEBACK ACCESS:          0  HIT:          0  MISS:          0
cpu0_ITLB TOTAL     ACCESS:    3009503  HIT:    3009503  MISS:          0
cpu0_ITLB LOAD      ACCESS:    3009503  HIT:    3009503  MISS:          0
cpu0_ITLB RFO       ACCESS:          0  HIT:          0  MISS:          0
cpu0_ITLB PREFETCH  ACCESS:          0  HIT:          0  MISS:          0
cpu0_ITLB WRITEBACK ACCESS:          0  HIT:          0  MISS:          0
cpu0_L1I TOTAL     ACCESS:         25  HIT:         18  MISS:          7
cpu0_L1I LOAD      ACCESS:         25  HIT:         18  MISS:          7
cpu0_L1I RFO       ACCESS:          0  HIT:          0  MISS:          0
cpu0_L1I PREFETCH  ACCESS:          0  HIT:          0  MISS:          0
cpu0_L1I WRITEBACK ACCESS:          0  HIT:          0  MISS:          0
cpu0_STLB TOTAL     ACCESS:     827340  HIT:     431705  MISS:     395635
cpu0_STLB LOAD      ACCESS:     628995  HIT:     414105  MISS:     214890
cpu0_STLB RFO       ACCESS:     198345  HIT:      17600  MISS:     180745
cpu0_STLB PREFETCH  ACCESS:          0  HIT:          0  MISS:          0
cpu0_STLB WRITEBACK ACCESS:          0  HIT:          0  MISS:          0
cpu0_L1D TOTAL     ACCESS:    9819707  HIT:    8571045  MISS:    1248662
cpu0_L1D LOAD      ACCESS:    6229337  HIT:    5341619  MISS:     887718
cpu0_L1D RFO       ACCESS:    3279986  HIT:    2921796  MISS:     358190
cpu0_L1D PREFETCH  ACCESS:          0  HIT:          0  MISS:          0
cpu0_L1D WRITEBACK ACCESS:          0  HIT:          0  MISS:          0
cpu0_L2C TOTAL     ACCESS:    1818781  HIT:     952738  MISS:     866043
cpu0_L2C LOAD      ACCESS:     887723  HIT:     355699  MISS:     532024
cpu0_L2C RFO       ACCESS:     358190  HIT:      24509  MISS:     333681
cpu0_L2C PREFETCH  ACCESS:          0  HIT:          0  MISS:          0
cpu0_L2C WRITEBACK ACCESS:     570114  HIT:     570071  MISS:         43
LLC TOTAL     ACCESS:    1410534  HIT:     215744  MISS:    1194790
LLC LOAD      ACCESS:     532024  HIT:       2269  MISS:     529755
LLC RFO       ACCESS:     333680  HIT:      11948  MISS:     321732
LLC PREFETCH  ACCESS:          0  HIT:          0  MISS:          0
LLC WRITEBACK ACCESS:     544535  HIT:     201509  MISS:     343026
Heartbeat CPU 0 instructions: 78000003 cycles: 187778455 heartbeat IPC: 0.193343 cumulative IPC: 0.164866 (Simulation time: 1 hr 51 min 24 sec) 

Region of Interest Statistics
cpu0_DTLB TOTAL     ACCESS:    9174749  HIT:    8295549  MISS:     879200
cpu0_DTLB LOAD      ACCESS:    6848023  HIT:    6167323  MISS:     680700
cpu0_DTLB RFO       ACCESS:    2326726  HIT:    2128226  MISS:     198500
cpu0_DTLB PREFETCH  ACCESS:          0  HIT:          0  MISS:          0
cpu0_DTLB WRITEBACK ACCESS:          0  HIT:          0  MISS:          0
cpu0_ITLB TOTAL     ACCESS:    3256202  HIT:    3256202  MISS:          0
cpu0_ITLB LOAD      ACCESS:    3256202  HIT:    3256202  MISS:          0
cpu0_ITLB RFO       ACCESS:          0  HIT:          0  MISS:          0
cpu0_ITLB PREFETCH  ACCESS:          0  HIT:          0  MISS:          0
cpu0_ITLB WRITEBACK ACCESS:          0  HIT:          0  MISS:          0
cpu0_L1I TOTAL     ACCESS:         25  HIT:         18  MISS:          7
cpu0_L1I LOAD      ACCESS:         25  HIT:         18  MISS:          7
cpu0_L1I RFO       ACCESS:          0  HIT:          0  MISS:          0
cpu0_L1I PREFETCH  ACCESS:          0  HIT:          0  MISS:          0
cpu0_L1I WRITEBACK ACCESS:          0  HIT:          0  MISS:          0
cpu0_STLB TOTAL     ACCESS:     879200  HIT:     469999  MISS:     409201
cpu0_STLB LOAD      ACCESS:     680700  HIT:     452246  MISS:     228454
cpu0_STLB RFO       ACCESS:     198500  HIT:      17753  MISS:     180747
cpu0_STLB PREFETCH  ACCESS:          0  HIT:          0  MISS:          0
cpu0_STLB WRITEBACK ACCESS:          0  HIT:          0  MISS:          0
cpu0_L1D TOTAL     ACCESS:   10593784  HIT:    9268562  MISS:    1325222
cpu0_L1D LOAD      ACCESS:    6741509  HIT:    5779636  MISS:     961873
cpu0_L1D RFO       ACCESS:    3528337  HIT:    3167973  MISS:     360364
cpu0_L1D PREFETCH  ACCESS:          0  HIT:          0  MISS:          0
cpu0_L1D WRITEBACK ACCESS:          0  HIT:          0  MISS:          0
cpu0_L2C TOTAL     ACCESS:    1915290  HIT:    1008338  MISS:     906952
cpu0_L2C LOAD      ACCESS:     961878  HIT:     388961  MISS:     572917
cpu0_L2C RFO       ACCESS:     360364  HIT:      26676  MISS:     333688
cpu0_L2C PREFETCH  ACCESS:          0  HIT:          0  MISS:          0
cpu0_L2C WRITEBACK ACCESS:     590063  HIT:     590020  MISS:         43
LLC TOTAL     ACCESS:    1469296  HIT:     224840  MISS:    1244456
LLC LOAD      ACCESS:     572917  HIT:       2335  MISS:     570582
LLC RFO       ACCESS:     333687  HIT:      11955  MISS:     321732
LLC PREFETCH  ACCESS:          0  HIT:          0  MISS:          0
LLC WRITEBACK ACCESS:     562388  HIT:     210531  MISS:     351857
Heartbeat CPU 0 instructions: 80000000 cycles: 202704463 heartbeat IPC: 0.133994 cumulative IPC: 0.162372 (Simulation time: 2 hr 0 min 6 sec) 

Region of Interest Statistics
cpu0_DTLB TOTAL     ACCESS:    9798379  HIT:    8839183  MISS:     959196
cpu0_DTLB LOAD      ACCESS:    7302043  HIT:    6580820  MISS:     721223
cpu0_DTLB RFO       ACCESS:    2496336  HIT:    2258363  MISS:     237973
cpu0_DTLB PREFETCH  ACCESS:          0  HIT:          0  MISS:          0
cpu0_DTLB WRITEBACK ACCESS:          0  HIT:          0  MISS:          0
cpu0_ITLB TOTAL     ACCESS:    3457110  HIT:    3457110  MISS:          0
cpu0_ITLB LOAD      ACCESS:    3457110  HIT:    3457110  MISS:          0
cpu0_ITLB RFO       ACCESS:          0  HIT:          0  MISS:          0
cpu0_ITLB PREFETCH  ACCESS:          0  HIT:          0  MISS:          0
cpu0_ITLB WRITEBACK ACCESS:          0  HIT:          0  MISS:          0
cpu0_L1I TOTAL     ACCESS:         35  HIT:         28  MISS:          7
cpu0_L1I LOAD      ACCESS:         35  HIT:         28  MISS:          7
cpu0_L1I RFO       ACCESS:          0  HIT:          0  MISS:          0
cpu0_L1I PREFETCH  ACCESS:          0  HIT:          0  MISS:          0
cpu0_L1I WRITEBACK ACCESS:          0  HIT:          0  MISS:          0
cpu0_STLB TOTAL     ACCESS:     959196  HIT:     501471  MISS:     457725
cpu0_STLB LOAD      ACCESS:     721223  HIT:     480390  MISS:     240833
cpu0_STLB RFO       ACCESS:     237973  HIT:      21081  MISS:     216892
cpu0_STLB PREFETCH  ACCESS:          0  HIT:          0  MISS:          0
cpu0_STLB WRITEBACK ACCESS:          0  HIT:          0  MISS:          0
cpu0_L1D TOTAL     ACCESS:   11310904  HIT:    9855586  MISS:    1455318
cpu0_L1D LOAD      ACCESS:    7169748  HIT:    6146437  MISS:    1023311
cpu0_L1D RFO       ACCESS:    3785637  HIT:    3356868  MISS:     428769
cpu0_L1D PREFETCH  ACCESS:          0  HIT:          0  MISS:          0
cpu0_L1D WRITEBACK ACCESS:          0  HIT:          0  MISS:          0
cpu0_L2C TOTAL     ACCESS:    2127524  HIT:    1113059  MISS:    1014465
cpu0_L2C LOAD      ACCESS:    1023316  HIT:     409817  MISS:     613499
cpu0_L2C RFO       ACCESS:     428769  HIT:      28196  MISS:     400573
cpu0_L2C PREFETCH  ACCESS:          0  HIT:          0  MISS:          0
cpu0_L2C WRITEBACK ACCESS:     672201  HIT:     672150  MISS:         51
LLC TOTAL     ACCESS:    1657267  HIT:     253044  MISS:    1404223
LLC LOAD      ACCESS:     613499  HIT:       2737  MISS:     610762
LLC RFO       ACCESS:     400572  HIT:      13760  MISS:     386812
LLC PREFETCH  ACCESS:          0  HIT:          0  MISS:          0
LLC WRITEBACK ACCESS:     642854  HIT:     236528  MISS:     406326
Heartbeat CPU 0 instructions: 82000000 cycles: 217834373 heartbeat IPC: 0.132188 cumulative IPC: 0.160087 (Simulation time: 2 hr 8 min 57 sec) 

Region of Interest Statistics
cpu0_DTLB TOTAL     ACCESS:   10417789  HIT:    9378176  MISS:    1039613
cpu0_DTLB LOAD      ACCESS:    7751537  HIT:    6989361  MISS:     762176
cpu0_DTLB RFO       ACCESS:    2666252  HIT:    2388815  MISS:     277437
cpu0_DTLB PREFETCH  ACCESS:          0  HIT:          0  MISS:          0
cpu0_DTLB WRITEBACK ACCESS:          0  HIT:          0  MISS:          0
cpu0_ITLB TOTAL     ACCESS:    3659274  HIT:    3659274  MISS:          0
cpu0_ITLB LOAD      ACCESS:    3659274  HIT:    3659274  MISS:          0
cpu0_ITLB RFO       ACCESS:          0  HIT:          0  MISS:          0
cpu0_ITLB PREFETCH  ACCESS:          0  HIT:          0  MISS:          0
cpu0_ITLB WRITEBACK ACCESS:          0  HIT:          0  MISS:          0
cpu0_L1I TOTAL     ACCESS:         37  HIT:         30  MISS:          7
cpu0_L1I LOAD      ACCESS:         37  HIT:         30  MISS:          7
cpu0_L1I RFO       ACCESS:          0  HIT:          0  MISS:          0
cpu0_L1I PREFETCH  ACCESS:          0  HIT:          0  MISS:          0
cpu0_L1I WRITEBACK ACCESS:          0  HIT:          0  MISS:          0
cpu0_STLB TOTAL     ACCESS:    1039613  HIT:     530958  MISS:     508655
cpu0_STLB LOAD      ACCESS:     762176  HIT:     506554  MISS:     255622
cpu0_STLB RFO       ACCESS:     277437  HIT:      24404  MISS:     253033
cpu0_STLB PREFETCH  ACCESS:          0  HIT:          0  MISS:          0
cpu0_STLB WRITEBACK ACCESS:          0  HIT:          0  MISS:          0
cpu0_L1D TOTAL     ACCESS:   12031102  HIT:   10445939  MISS:    1585163
cpu0_L1D LOAD      ACCESS:    7598019  HIT:    6513503  MISS:    1084516
cpu0_L1D RFO       ACCESS:    4043543  HIT:    3546381  MISS:     497162
cpu0_L1D PREFETCH  ACCESS:          0  HIT:          0  MISS:          0
cpu0_L1D WRITEBACK ACCESS:          0  HIT:          0  MISS:          0
cpu0_L2C TOTAL     ACCESS:    2339275  HIT:    1217542  MISS:    1121733
cpu0_L2C LOAD      ACCESS:    1084521  HIT:     430696  MISS:     653825
cpu0_L2C RFO       ACCESS:     497162  HIT:      29698  MISS:     467464
cpu0_L2C PREFETCH  ACCESS:          0  HIT:          0  MISS:          0
cpu0_L2C WRITEBACK ACCESS:     754107  HIT:     754050  MISS:         57
LLC TOTAL     ACCESS:    1844666  HIT:     279584  MISS:    1565082
LLC LOAD      ACCESS:     653825  HIT:       2965  MISS:     650860
LLC RFO       ACCESS:     467463  HIT:      15074  MISS:     452389
LLC PREFETCH  ACCESS:          0  HIT:          0  MISS:          0
LLC WRITEBACK ACCESS:     722991  HIT:     261525  MISS:     461466
Heartbeat CPU 0 instructions: 84000004 cycles: 228365383 heartbeat IPC: 0.189916 cumulative IPC: 0.16158 (Simulation time: 2 hr 11 min 39 sec) 

Region of Interest Statistics
cpu0_DTLB TOTAL     ACCESS:   11095342  HIT:   10002403  MISS:    1092939
cpu0_DTLB LOAD      ACCESS:    8264601  HIT:    7449229  MISS:     815372
cpu0_DTLB RFO       ACCESS:    2830741  HIT:    2553174  MISS:     277567
cpu0_DTLB PREFETCH  ACCESS:          0  HIT:          0  MISS:          0
cpu0_DTLB WRITEBACK ACCESS:          0  HIT:          0  MISS:          0
cpu0_ITLB TOTAL     ACCESS:    3908196  HIT:    3908196  MISS:          0
cpu0_ITLB LOAD      ACCESS:    3908196  HIT:    3908196  MISS:          0
cpu0_ITLB RFO       ACCESS:          0  HIT:          0  MISS:          0
cpu0_ITLB PREFETCH  ACCESS:          0  HIT:          0  MISS:          0
cpu0_ITLB WRITEBACK ACCESS:          0  HIT:          0  MISS:          0
cpu0_L1I TOTAL     ACCESS:         37  HIT:         30  MISS:          7
cpu0_L1I LOAD      ACCESS:         37  HIT:         30  MISS:          7
cpu0_L1I RFO       ACCESS:          0  HIT:          0  MISS:          0
cpu0_L1I PREFETCH  ACCESS:          0  HIT:          0  MISS:          0
cpu0_L1I WRITEBACK ACCESS:          0  HIT:          0  MISS:          0
cpu0_STLB TOTAL     ACCESS:    1092939  HIT:     569129  MISS:     523810
cpu0_STLB LOAD      ACCESS:     815372  HIT:     544599  MISS:     270773
cpu0_STLB RFO       ACCESS:     277567  HIT:      24530  MISS:     253037
cpu0_STLB PREFETCH  ACCESS:          0  HIT:          0  MISS:          0
cpu0_STLB WRITEBACK ACCESS:          0  HIT:          0  MISS:          0
cpu0_L1D TOTAL     ACCESS:   12807913  HIT:   11149110  MISS:    1658803
cpu0_L1D LOAD      ACCESS:    8109733  HIT:    6953728  MISS:    1156005
cpu0_L1D RFO       ACCESS:    4293500  HIT:    3794398  MISS:     499102
cpu0_L1D PREFETCH  ACCESS:          0  HIT:          0  MISS:          0
cpu0_L1D WRITEBACK ACCESS:          0  HIT:          0  MISS:          0
cpu0_L2C TOTAL     ACCESS:    2433104  HIT:    1270011  MISS:    1163093
cpu0_L2C LOAD      ACCESS:    1156009  HIT:     460880  MISS:     695129
cpu0_L2C RFO       ACCESS:     499102  HIT:      31595  MISS:     467507
cpu0_L2C PREFETCH  ACCESS:          0  HIT:          0  MISS:          0
cpu0_L2C WRITEBACK ACCESS:     774297  HIT:     774238  MISS:         59
LLC TOTAL     ACCESS:    1904432  HIT:     289103  MISS:    1615329
LLC LOAD      ACCESS:     695129  HIT:       3091  MISS:     692038
LLC RFO       ACCESS:     467506  HIT:      15075  MISS:     452431
LLC PREFETCH  ACCESS:          0  HIT:          0  MISS:          0
LLC WRITEBACK ACCESS:     741399  HIT:     270917  MISS:     470482
Heartbeat CPU 0 instructions: 86000002 cycles: 238810082 heartbeat IPC: 0.191484 cumulative IPC: 0.162994 (Simulation time: 2 hr 14 min 11 sec) 

Region of Interest Statistics
cpu0_DTLB TOTAL     ACCESS:   11778096  HIT:   10632503  MISS:    1145593
cpu0_DTLB LOAD      ACCESS:    8783091  HIT:    7915203  MISS:     867888
cpu0_DTLB RFO       ACCESS:    2995005  HIT:    2717300  MISS:     277705
cpu0_DTLB PREFETCH  ACCESS:          0  HIT:          0  MISS:          0
cpu0_DTLB WRITEBACK ACCESS:          0  HIT:          0  MISS:          0
cpu0_ITLB TOTAL     ACCESS:    4155673  HIT:    4155673  MISS:          0
cpu0_ITLB LOAD      ACCESS:    4155673  HIT:    4155673  MISS:          0
cpu0_ITLB RFO       ACCESS:          0  HIT:          0  MISS:          0
cpu0_ITLB PREFETCH  ACCESS:          0  HIT:          0  MISS:          0
cpu0_ITLB WRITEBACK ACCESS:          0  HIT:          0  MISS:          0
cpu0_L1I TOTAL     ACCESS:         37  HIT:         30  MISS:          7
cpu0_L1I LOAD      ACCESS:         37  HIT:         30  MISS:          7
cpu0_L1I RFO       ACCESS:          0  HIT:          0  MISS:          0
cpu0_L1I PREFETCH  ACCESS:          0  HIT:          0  MISS:          0
cpu0_L1I WRITEBACK ACCESS:          0  HIT:          0  MISS:          0
cpu0_STLB TOTAL     ACCESS:    1145593  HIT:     605985  MISS:     539608
cpu0_STLB LOAD      ACCESS:     867888  HIT:     581322  MISS:     286566
cpu0_STLB RFO       ACCESS:     277705  HIT:      24663  MISS:     253042
cpu0_STLB PREFETCH  ACCESS:          0  HIT:          0  MISS:          0
cpu0_STLB WRITEBACK ACCESS:          0  HIT:          0  MISS:          0
cpu0_L1D TOTAL     ACCESS:   13583565  HIT:   11847077  MISS:    1736488
cpu0_L1D LOAD      ACCESS:    8621086  HIT:    7389801  MISS:    1231285
cpu0_L1D RFO       ACCESS:    4542043  HIT:    4040721  MISS:     501322
cpu0_L1D PREFETCH  ACCESS:          0  HIT:          0  MISS:          0
cpu0_L1D WRITEBACK ACCESS:          0  HIT:          0  MISS:          0
cpu0_L2C TOTAL     ACCESS:    2530751  HIT:    1326662  MISS:    1204089
cpu0_L2C LOAD      ACCESS:    1231289  HIT:     495184  MISS:     736105
cpu0_L2C RFO       ACCESS:     501322  HIT:      33806  MISS:     467516
cpu0_L2C PREFETCH  ACCESS:          0  HIT:          0  MISS:          0
cpu0_L2C WRITEBACK ACCESS:     794259  HIT:     794200  MISS:         59
LLC TOTAL     ACCESS:    1963117  HIT:     298167  MISS:    1664950
LLC LOAD      ACCESS:     736105  HIT:       3159  MISS:     732946
LLC RFO       ACCESS:     467515  HIT:      15077  MISS:     452438
LLC PREFETCH  ACCESS:          0  HIT:          0  MISS:          0
LLC WRITEBACK ACCESS:     759088  HIT:     279908  MISS:     479180
Heartbeat CPU 0 instructions: 88000000 cycles: 253552173 heartbeat IPC: 0.135666 cumulative IPC: 0.161284 (Simulation time: 2 hr 22 min 56 sec) 

Region of Interest Statistics
cpu0_DTLB TOTAL     ACCESS:   12413934  HIT:   11189343  MISS:    1224591
cpu0_DTLB LOAD      ACCESS:    9249513  HIT:    8342123  MISS:     907390
cpu0_DTLB RFO       ACCESS:    3164421  HIT:    2847220  MISS:     317201
cpu0_DTLB PREFETCH  ACCESS:          0  HIT:          0  MISS:          0
cpu0_DTLB WRITEBACK ACCESS:          0  HIT:          0  MISS:          0
cpu0_ITLB TOTAL     ACCESS:    4353514  HIT:    4353514  MISS:          0
cpu0_ITLB LOAD      ACCESS:    4353514  HIT:    4353514  MISS:          0
cpu0_ITLB RFO       ACCESS:          0  HIT:          0  MISS:          0
cpu0_ITLB PREFETCH  ACCESS:          0  HIT:          0  MISS:          0
cpu0_ITLB WRITEBACK ACCESS:          0  HIT:          0  MISS:          0
cpu0_L1I TOTAL     ACCESS:         39  HIT:         32  MISS:          7
cpu0_L1I LOAD      ACCESS:         39  HIT:         32  MISS:          7
cpu0_L1I RFO       ACCESS:          0  HIT:          0  MISS:          0
cpu0_L1I PREFETCH  ACCESS:          0  HIT:          0  MISS:          0
cpu0_L1I WRITEBACK ACCESS:          0  HIT:          0  MISS:          0
cpu0_STLB TOTAL     ACCESS:    1224591  HIT:     638211  MISS:     586380
cpu0_STLB LOAD      ACCESS:     907390  HIT:     610186  MISS:     297204
cpu0_STLB RFO       ACCESS:     317201  HIT:      28025  MISS:     289176
cpu0_STLB PREFETCH  ACCESS:          0  HIT:          0  MISS:          0
cpu0_STLB WRITEBACK ACCESS:          0  HIT:          0  MISS:          0
cpu0_L1D TOTAL     ACCESS:   14298827  HIT:   12431451  MISS:    1867376
cpu0_L1D LOAD      ACCESS:    9050351  HIT:    7756910  MISS:    1293441
cpu0_L1D RFO       ACCESS:    4798158  HIT:    4228363  MISS:     569795
cpu0_L1D PREFETCH  ACCESS:          0  HIT:          0  MISS:          0
cpu0_L1D WRITEBACK ACCESS:          0  HIT:          0  MISS:          0
cpu0_L2C TOTAL     ACCESS:    2743532  HIT:    1432238  MISS:    1311294
cpu0_L2C LOAD      ACCESS:    1293445  HIT:     516876  MISS:     776569
cpu0_L2C RFO       ACCESS:     569795  HIT:      35580  MISS:     534215
cpu0_L2C PREFETCH  ACCESS:          0  HIT:          0  MISS:          0
cpu0_L2C WRITEBACK ACCESS:     876152  HIT:     876090  MISS:         62
LLC TOTAL     ACCESS:    2149196  HIT:     325758  MISS:    1823438
LLC LOAD      ACCESS:     776569  HIT:       3388  MISS:     773181
LLC RFO       ACCESS:     534214  HIT:      17006  MISS:     517208
LLC PREFETCH  ACCESS:          0  HIT:          0  MISS:          0
LLC WRITEBACK ACCESS:     837965  HIT:     305340  MISS:     532625
Heartbeat CPU 0 instructions: 90000003 cycles: 264086803 heartbeat IPC: 0.18985 cumulative IPC: 0.162507 (Simulation time: 2 hr 25 min 31 sec) 

Region of Interest Statistics
cpu0_DTLB TOTAL     ACCESS:   13087913  HIT:   11810100  MISS:    1277813
cpu0_DTLB LOAD      ACCESS:    9759099  HIT:    8798584  MISS:     960515
cpu0_DTLB RFO       ACCESS:    3328814  HIT:    3011516  MISS:     317298
cpu0_DTLB PREFETCH  ACCESS:          0  HIT:          0  MISS:          0
cpu0_DTLB WRITEBACK ACCESS:          0  HIT:          0  MISS:          0
cpu0_ITLB TOTAL     ACCESS:    4603577  HIT:    4603577  MISS:          0
cpu0_ITLB LOAD      ACCESS:    4603577  HIT:    4603577  MISS:          0
cpu0_ITLB RFO       ACCESS:          0  HIT:          0  MISS:          0
cpu0_ITLB PREFETCH  ACCESS:          0  HIT:          0  MISS:          0
cpu0_ITLB WRITEBACK ACCESS:          0  HIT:          0  MISS:          0
cpu0_L1I TOTAL     ACCESS:         39  HIT:         32  MISS:          7
cpu0_L1I LOAD      ACCESS:         39  HIT:         32  MISS:          7
cpu0_L1I RFO       ACCESS:          0  HIT:          0  MISS:          0
cpu0_L1I PREFETCH  ACCESS:          0  HIT:          0  MISS:          0
cpu0_L1I WRITEBACK ACCESS:          0  HIT:          0  MISS:          0
cpu0_STLB TOTAL     ACCESS:    1277813  HIT:     676085  MISS:     601728
cpu0_STLB LOAD      ACCESS:     960515  HIT:     647974  MISS:     312541
cpu0_STLB RFO       ACCESS:     317298  HIT:      28111  MISS:     289187
cpu0_STLB PREFETCH  ACCESS:          0  HIT:          0  MISS:          0
cpu0_STLB WRITEBACK ACCESS:          0  HIT:          0  MISS:          0
cpu0_L1D TOTAL     ACCESS:   15075435  HIT:   13139721  MISS:    1935714
cpu0_L1D LOAD      ACCESS:    9561783  HIT:    8201828  MISS:    1359955
cpu0_L1D RFO       ACCESS:    5047990  HIT:    4476573  MISS:     571417
cpu0_L1D PREFETCH  ACCESS:          0  HIT:          0  MISS:          0
cpu0_L1D WRITEBACK ACCESS:          0  HIT:          0  MISS:          0
cpu0_L2C TOTAL     ACCESS:    2831807  HIT:    1479334  MISS:    1352473
cpu0_L2C LOAD      ACCESS:    1359959  HIT:     542252  MISS:     817707
cpu0_L2C RFO       ACCESS:     571417  HIT:      37173  MISS:     534244
cpu0_L2C PREFETCH  ACCESS:          0  HIT:          0  MISS:          0
cpu0_L2C WRITEBACK ACCESS:     896089  HIT:     896027  MISS:         62
LLC TOTAL     ACCESS:    2209724  HIT:     335349  MISS:    1874375
LLC LOAD      ACCESS:     817707  HIT:       3508  MISS:     814199
LLC RFO       ACCESS:     534243  HIT:      17009  MISS:     517234
LLC PREFETCH  ACCESS:          0  HIT:          0  MISS:          0
LLC WRITEBACK ACCESS:     857314  HIT:     314808  MISS:     542506
Heartbeat CPU 0 instructions: 92000000 cycles: 274610772 heartbeat IPC: 0.190042 cumulative IPC: 0.163636 (Simulation time: 2 hr 28 min 11 sec) 

Region of Interest Statistics
cpu0_DTLB TOTAL     ACCESS:   13762795  HIT:   12432029  MISS:    1330766
cpu0_DTLB LOAD      ACCESS:   10269966  HIT:    9256625  MISS:    1013341
cpu0_DTLB RFO       ACCESS:    3492829  HIT:    3175404  MISS:     317425
cpu0_DTLB PREFETCH  ACCESS:          0  HIT:          0  MISS:          0
cpu0_DTLB WRITEBACK ACCESS:          0  HIT:          0  MISS:          0
cpu0_ITLB TOTAL     ACCESS:    4852980  HIT:    4852980  MISS:          0
cpu0_ITLB LOAD      ACCESS:    4852980  HIT:    4852980  MISS:          0
cpu0_ITLB RFO       ACCESS:          0  HIT:          0  MISS:          0
cpu0_ITLB PREFETCH  ACCESS:          0  HIT:          0  MISS:          0
cpu0_ITLB WRITEBACK ACCESS:          0  HIT:          0  MISS:          0
cpu0_L1I TOTAL     ACCESS:         39  HIT:         32  MISS:          7
cpu0_L1I LOAD      ACCESS:         39  HIT:         32  MISS:          7
cpu0_L1I RFO       ACCESS:          0  HIT:          0  MISS:          0
cpu0_L1I PREFETCH  ACCESS:          0  HIT:          0  MISS:          0
cpu0_L1I WRITEBACK ACCESS:          0  HIT:          0  MISS:          0
cpu0_STLB TOTAL     ACCESS:    1330766  HIT:     710418  MISS:     620348
cpu0_STLB LOAD      ACCESS:    1013341  HIT:     682188  MISS:     331153
cpu0_STLB RFO       ACCESS:     317425  HIT:      28230  MISS:     289195
cpu0_STLB PREFETCH  ACCESS:          0  HIT:          0  MISS:          0
cpu0_STLB WRITEBACK ACCESS:          0  HIT:          0  MISS:          0
cpu0_L1D TOTAL     ACCESS:   15853605  HIT:   13839774  MISS:    2013831
cpu0_L1D LOAD      ACCESS:   10072556  HIT:    8636955  MISS:    1435601
cpu0_L1D RFO       ACCESS:    5296830  HIT:    4723191  MISS:     573639
cpu0_L1D PREFETCH  ACCESS:          0  HIT:          0  MISS:          0
cpu0_L1D WRITEBACK ACCESS:          0  HIT:          0  MISS:          0
cpu0_L2C TOTAL     ACCESS:    2929986  HIT:    1536325  MISS:    1393661
cpu0_L2C LOAD      ACCESS:    1435605  HIT:     576747  MISS:     858858
cpu0_L2C RFO       ACCESS:     573639  HIT:      39367  MISS:     534272
cpu0_L2C PREFETCH  ACCESS:          0  HIT:          0  MISS:          0
cpu0_L2C WRITEBACK ACCESS:     916151  HIT:     916089  MISS:         62
LLC TOTAL     ACCESS:    2268603  HIT:     344354  MISS:    1924249
LLC LOAD      ACCESS:     858858  HIT:       3580  MISS:     855278
LLC RFO       ACCESS:     534271  HIT:      17011  MISS:     517260
LLC PREFETCH  ACCESS:          0  HIT:          0  MISS:          0
LLC WRITEBACK ACCESS:     875005  HIT:     323739  MISS:     551266
Heartbeat CPU 0 instructions: 94000003 cycles: 289407012 heartbeat IPC: 0.13517 cumulative IPC: 0.162084 (Simulation time: 2 hr 36 min 57 sec) 

Region of Interest Statistics
cpu0_DTLB TOTAL     ACCESS:   14389286  HIT:   12978705  MISS:    1410581
cpu0_DTLB LOAD      ACCESS:   10727355  HIT:    9673660  MISS:    1053695
cpu0_DTLB RFO       ACCESS:    3661931  HIT:    3305045  MISS:     356886
cpu0_DTLB PREFETCH  ACCESS:          0  HIT:          0  MISS:          0
cpu0_DTLB WRITEBACK ACCESS:          0  HIT:          0  MISS:          0
cpu0_ITLB TOTAL     ACCESS:    5052157  HIT:    5052157  MISS:          0
cpu0_ITLB LOAD      ACCESS:    5052157  HIT:    5052157  MISS:          0
cpu0_ITLB RFO       ACCESS:          0  HIT:          0  MISS:          0
cpu0_ITLB PREFETCH  ACCESS:          0  HIT:          0  MISS:          0
cpu0_ITLB WRITEBACK ACCESS:          0  HIT:          0  MISS:          0
cpu0_L1I TOTAL     ACCESS:         41  HIT:         34  MISS:          7
cpu0_L1I LOAD      ACCESS:         41  HIT:         34  MISS:          7
cpu0_L1I RFO       ACCESS:          0  HIT:          0  MISS:          0
cpu0_L1I PREFETCH  ACCESS:          0  HIT:          0  MISS:          0
cpu0_L1I WRITEBACK ACCESS:          0  HIT:          0  MISS:          0
cpu0_STLB TOTAL     ACCESS:    1410581  HIT:     739818  MISS:     670763
cpu0_STLB LOAD      ACCESS:    1053695  HIT:     708265  MISS:     345430
cpu0_STLB RFO       ACCESS:     356886  HIT:      31553  MISS:     325333
cpu0_STLB PREFETCH  ACCESS:          0  HIT:          0  MISS:          0
cpu0_STLB WRITEBACK ACCESS:          0  HIT:          0  MISS:          0
cpu0_L1D TOTAL     ACCESS:   16570457  HIT:   14426262  MISS:    2144195
cpu0_L1D LOAD      ACCESS:   10500226  HIT:    9002906  MISS:    1497320
cpu0_L1D RFO       ACCESS:    5552564  HIT:    4910527  MISS:     642037
cpu0_L1D PREFETCH  ACCESS:          0  HIT:          0  MISS:          0
cpu0_L1D WRITEBACK ACCESS:          0  HIT:          0  MISS:          0
cpu0_L2C TOTAL     ACCESS:    3141965  HIT:    1641010  MISS:    1500955
cpu0_L2C LOAD      ACCESS:    1497324  HIT:     598001  MISS:     899323
cpu0_L2C RFO       ACCESS:     642037  HIT:      40978  MISS:     601059
cpu0_L2C PREFETCH  ACCESS:          0  HIT:          0  MISS:          0
cpu0_L2C WRITEBACK ACCESS:     997766  HIT:     997701  MISS:         65
LLC TOTAL     ACCESS:    2454979  HIT:     372149  MISS:    2082830
LLC LOAD      ACCESS:     899323  HIT:       3781  MISS:     895542
LLC RFO       ACCESS:     601058  HIT:      19083  MISS:     581975
LLC PREFETCH  ACCESS:          0  HIT:          0  MISS:          0
LLC WRITEBACK ACCESS:     954090  HIT:     349259  MISS:     604831
Heartbeat CPU 0 instructions: 96000000 cycles: 304363596 heartbeat IPC: 0.13372 cumulative IPC: 0.160603 (Simulation time: 2 hr 45 min 49 sec) 

Region of Interest Statistics
cpu0_DTLB TOTAL     ACCESS:   15003841  HIT:   13513091  MISS:    1490750
cpu0_DTLB LOAD      ACCESS:   11171974  HIT:   10077576  MISS:    1094398
cpu0_DTLB RFO       ACCESS:    3831867  HIT:    3435515  MISS:     396352
cpu0_DTLB PREFETCH  ACCESS:          0  HIT:          0  MISS:          0
cpu0_DTLB WRITEBACK ACCESS:          0  HIT:          0  MISS:          0
cpu0_ITLB TOTAL     ACCESS:    5256046  HIT:    5256046  MISS:          0
cpu0_ITLB LOAD      ACCESS:    5256046  HIT:    5256046  MISS:          0
cpu0_ITLB RFO       ACCESS:          0  HIT:          0  MISS:          0
cpu0_ITLB PREFETCH  ACCESS:          0  HIT:          0  MISS:          0
cpu0_ITLB WRITEBACK ACCESS:          0  HIT:          0  MISS:          0
cpu0_L1I TOTAL     ACCESS:         43  HIT:         36  MISS:          7
cpu0_L1I LOAD      ACCESS:         43  HIT:         36  MISS:          7
cpu0_L1I RFO       ACCESS:          0  HIT:          0  MISS:          0
cpu0_L1I PREFETCH  ACCESS:          0  HIT:          0  MISS:          0
cpu0_L1I WRITEBACK ACCESS:          0  HIT:          0  MISS:          0
cpu0_STLB TOTAL     ACCESS:    1490750  HIT:     772880  MISS:     717870
cpu0_STLB LOAD      ACCESS:    1094398  HIT:     737998  MISS:     356400
cpu0_STLB RFO       ACCESS:     396352  HIT:      34882  MISS:     361470
cpu0_STLB PREFETCH  ACCESS:          0  HIT:          0  MISS:          0
cpu0_STLB WRITEBACK ACCESS:          0  HIT:          0  MISS:          0
cpu0_L1D TOTAL     ACCESS:   17286187  HIT:   15016693  MISS:    2269494
cpu0_L1D LOAD      ACCESS:   10927823  HIT:    9373534  MISS:    1554289
cpu0_L1D RFO       ACCESS:    5810489  HIT:    5100351  MISS:     710138
cpu0_L1D PREFETCH  ACCESS:          0  HIT:          0  MISS:          0
cpu0_L1D WRITEBACK ACCESS:          0  HIT:          0  MISS:          0
cpu0_L2C TOTAL     ACCESS:    3349206  HIT:    1741282  MISS:    1607924
cpu0_L2C LOAD      ACCESS:    1554292  HIT:     614881  MISS:     939411
cpu0_L2C RFO       ACCESS:     710138  HIT:      42254  MISS:     667884
cpu0_L2C PREFETCH  ACCESS:          0  HIT:          0  MISS:          0
cpu0_L2C WRITEBACK ACCESS:    1079709  HIT:    1079628  MISS:         81
LLC TOTAL     ACCESS:    2642003  HIT:     399814  MISS:    2242189
LLC LOAD      ACCESS:     939411  HIT:       4114  MISS:     935297
LLC RFO       ACCESS:     667883  HIT:      20893  MISS:     646990
LLC PREFETCH  ACCESS:          0  HIT:          0  MISS:          0
LLC WRITEBACK ACCESS:    1034161  HIT:     374781  MISS:     659380
Heartbeat CPU 0 instructions: 98000002 cycles: 319236791 heartbeat IPC: 0.13447 cumulative IPC: 0.159313 (Simulation time: 2 hr 54 min 47 sec) 

Region of Interest Statistics
cpu0_DTLB TOTAL     ACCESS:   15628653  HIT:   14058184  MISS:    1570469
cpu0_DTLB LOAD      ACCESS:   11626446  HIT:   10491731  MISS:    1134715
cpu0_DTLB RFO       ACCESS:    4002207  HIT:    3566453  MISS:     435754
cpu0_DTLB PREFETCH  ACCESS:          0  HIT:          0  MISS:          0
cpu0_DTLB WRITEBACK ACCESS:          0  HIT:          0  MISS:          0
cpu0_ITLB TOTAL     ACCESS:    5456553  HIT:    5456553  MISS:          0
cpu0_ITLB LOAD      ACCESS:    5456553  HIT:    5456553  MISS:          0
cpu0_ITLB RFO       ACCESS:          0  HIT:          0  MISS:          0
cpu0_ITLB PREFETCH  ACCESS:          0  HIT:          0  MISS:          0
cpu0_ITLB WRITEBACK ACCESS:          0  HIT:          0  MISS:          0
cpu0_L1I TOTAL     ACCESS:         45  HIT:         38  MISS:          7
cpu0_L1I LOAD      ACCESS:         45  HIT:         38  MISS:          7
cpu0_L1I RFO       ACCESS:          0  HIT:          0  MISS:          0
cpu0_L1I PREFETCH  ACCESS:          0  HIT:          0  MISS:          0
cpu0_L1I WRITEBACK ACCESS:          0  HIT:          0  MISS:          0
cpu0_STLB TOTAL     ACCESS:    1570469  HIT:     805569  MISS:     764900
cpu0_STLB LOAD      ACCESS:    1134715  HIT:     767421  MISS:     367294
cpu0_STLB RFO       ACCESS:     435754  HIT:      38148  MISS:     397606
cpu0_STLB PREFETCH  ACCESS:          0  HIT:          0  MISS:          0
cpu0_STLB WRITEBACK ACCESS:          0  HIT:          0  MISS:          0
cpu0_L1D TOTAL     ACCESS:   18003052  HIT:   15619299  MISS:    2383753
cpu0_L1D LOAD      ACCESS:   11355932  HIT:    9755066  MISS:    1600866
cpu0_L1D RFO       ACCESS:    6069137  HIT:    5291525  MISS:     777612
cpu0_L1D PREFETCH  ACCESS:          0  HIT:          0  MISS:          0
cpu0_L1D WRITEBACK ACCESS:          0  HIT:          0  MISS:          0
cpu0_L2C TOTAL     ACCESS:    3544961  HIT:    1830353  MISS:    1714608
cpu0_L2C LOAD      ACCESS:    1600869  HIT:     621624  MISS:     979245
cpu0_L2C RFO       ACCESS:     777612  HIT:      42937  MISS:     734675
cpu0_L2C PREFETCH  ACCESS:          0  HIT:          0  MISS:          0
cpu0_L2C WRITEBACK ACCESS:    1161205  HIT:    1161104  MISS:        101
LLC TOTAL     ACCESS:    2831013  HIT:     428127  MISS:    2402886
LLC LOAD      ACCESS:     979245  HIT:       4436  MISS:     974809
LLC RFO       ACCESS:     734674  HIT:      22262  MISS:     712412
LLC PREFETCH  ACCESS:          0  HIT:          0  MISS:          0
LLC WRITEBACK ACCESS:    1116507  HIT:     401402  MISS:     715105
Heartbeat CPU 0 instructions: 100000001 cycles: 329774363 heartbeat IPC: 0.189797 cumulative IPC: 0.160343 (Simulation time: 2 hr 57 min 28 sec) 

Region of Interest Statistics
cpu0_DTLB TOTAL     ACCESS:   16302961  HIT:   14679002  MISS:    1623959
cpu0_DTLB LOAD      ACCESS:   12136483  HIT:   10948423  MISS:    1188060
cpu0_DTLB RFO       ACCESS:    4166478  HIT:    3730579  MISS:     435899
cpu0_DTLB PREFETCH  ACCESS:          0  HIT:          0  MISS:          0
cpu0_DTLB WRITEBACK ACCESS:          0  HIT:          0  MISS:          0
cpu0_ITLB TOTAL     ACCESS:    5706323  HIT:    5706323  MISS:          0
cpu0_ITLB LOAD      ACCESS:    5706323  HIT:    5706323  MISS:          0
cpu0_ITLB RFO       ACCESS:          0  HIT:          0  MISS:          0
cpu0_ITLB PREFETCH  ACCESS:          0  HIT:          0  MISS:          0
cpu0_ITLB WRITEBACK ACCESS:          0  HIT:          0  MISS:          0
cpu0_L1I TOTAL     ACCESS:         45  HIT:         38  MISS:          7
cpu0_L1I LOAD      ACCESS:         45  HIT:         38  MISS:          7
cpu0_L1I RFO       ACCESS:          0  HIT:          0  MISS:          0
cpu0_L1I PREFETCH  ACCESS:          0  HIT:          0  MISS:          0
cpu0_L1I WRITEBACK ACCESS:          0  HIT:          0  MISS:          0
cpu0_STLB TOTAL     ACCESS:    1623959  HIT:     841126  MISS:     782833
cpu0_STLB LOAD      ACCESS:    1188060  HIT:     802838  MISS:     385222
cpu0_STLB RFO       ACCESS:     435899  HIT:      38288  MISS:     397611
cpu0_STLB PREFETCH  ACCESS:          0  HIT:          0  MISS:          0
cpu0_STLB WRITEBACK ACCESS:          0  HIT:          0  MISS:          0
cpu0_L1D TOTAL     ACCESS:   18781805  HIT:   16323152  MISS:    2458653
cpu0_L1D LOAD      ACCESS:   11867121  HIT:   10193590  MISS:    1673531
cpu0_L1D RFO       ACCESS:    6318786  HIT:    5539146  MISS:     779640
cpu0_L1D PREFETCH  ACCESS:          0  HIT:          0  MISS:          0
cpu0_L1D WRITEBACK ACCESS:          0  HIT:          0  MISS:          0
cpu0_L2C TOTAL     ACCESS:    3640039  HIT:    1884130  MISS:    1755909
cpu0_L2C LOAD      ACCESS:    1673534  HIT:     653031  MISS:    1020503
cpu0_L2C RFO       ACCESS:     779640  HIT:      44931  MISS:     734709
cpu0_L2C PREFETCH  ACCESS:          0  HIT:          0  MISS:          0
cpu0_L2C WRITEBACK ACCESS:    1181383  HIT:    1181282  MISS:        101
LLC TOTAL     ACCESS:    2889997  HIT:     437358  MISS:    2452639
LLC LOAD      ACCESS:    1020503  HIT:       4506  MISS:    1015997
LLC RFO       ACCESS:     734708  HIT:      22264  MISS:     712444
LLC PREFETCH  ACCESS:          0  HIT:          0  MISS:          0
LLC WRITEBACK ACCESS:    1134190  HIT:     410561  MISS:     723629
Heartbeat CPU 0 instructions: 102000003 cycles: 340317545 heartbeat IPC: 0.189696 cumulative IPC: 0.161303 (Simulation time: 3 hr 0 min 4 sec) 

Region of Interest Statistics
cpu0_DTLB TOTAL     ACCESS:   16977007  HIT:   15299571  MISS:    1677436
cpu0_DTLB LOAD      ACCESS:   12646650  HIT:   11405233  MISS:    1241417
cpu0_DTLB RFO       ACCESS:    4330357  HIT:    3894338  MISS:     436019
cpu0_DTLB PREFETCH  ACCESS:          0  HIT:          0  MISS:          0
cpu0_DTLB WRITEBACK ACCESS:          0  HIT:          0  MISS:          0
cpu0_ITLB TOTAL     ACCESS:    5955823  HIT:    5955823  MISS:          0
cpu0_ITLB LOAD      ACCESS:    5955823  HIT:    5955823  MISS:          0
cpu0_ITLB RFO       ACCESS:          0  HIT:          0  MISS:          0
cpu0_ITLB PREFETCH  ACCESS:          0  HIT:          0  MISS:          0
cpu0_ITLB WRITEBACK ACCESS:          0  HIT:          0  MISS:          0
cpu0_L1I TOTAL     ACCESS:         45  HIT:         38  MISS:          7
cpu0_L1I LOAD      ACCESS:         45  HIT:         38  MISS:          7
cpu0_L1I RFO       ACCESS:          0  HIT:          0  MISS:          0
cpu0_L1I PREFETCH  ACCESS:          0  HIT:          0  MISS:          0
cpu0_L1I WRITEBACK ACCESS:          0  HIT:          0  MISS:          0
cpu0_STLB TOTAL     ACCESS:    1677436  HIT:     874193  MISS:     803243
cpu0_STLB LOAD      ACCESS:    1241417  HIT:     835791  MISS:     405626
cpu0_STLB RFO       ACCESS:     436019  HIT:      38402  MISS:     397617
cpu0_STLB PREFETCH  ACCESS:          0  HIT:          0  MISS:          0
cpu0_STLB WRITEBACK ACCESS:          0  HIT:          0  MISS:          0
cpu0_L1D TOTAL     ACCESS:   19561007  HIT:   17023889  MISS:    2537118
cpu0_L1D LOAD      ACCESS:   12377745  HIT:   10628177  MISS:    1749568
cpu0_L1D RFO       ACCESS:    6567029  HIT:    5785153  MISS:     781876
cpu0_L1D PREFETCH  ACCESS:          0  HIT:          0  MISS:          0
cpu0_L1D WRITEBACK ACCESS:          0  HIT:          0  MISS:          0
cpu0_L2C TOTAL     ACCESS:    3738396  HIT:    1941300  MISS:    1797096
cpu0_L2C LOAD      ACCESS:    1749571  HIT:     687908  MISS:    1061663
cpu0_L2C RFO       ACCESS:     781876  HIT:      47152  MISS:     734724
cpu0_L2C PREFETCH  ACCESS:          0  HIT:          0  MISS:          0
cpu0_L2C WRITEBACK ACCESS:    1201275  HIT:    1201174  MISS:        101
LLC TOTAL     ACCESS:    2948877  HIT:     446179  MISS:    2502698
LLC LOAD      ACCESS:    1061663  HIT:       4595  MISS:    1057068
LLC RFO       ACCESS:     734723  HIT:      22265  MISS:     712458
LLC PREFETCH  ACCESS:          0  HIT:          0  MISS:          0
LLC WRITEBACK ACCESS:    1151883  HIT:     419290  MISS:     732593
Heartbeat CPU 0 instructions: 104000001 cycles: 359834630 heartbeat IPC: 0.102474 cumulative IPC: 0.157945 (Simulation time: 3 hr 15 min 22 sec) 

Region of Interest Statistics
cpu0_DTLB TOTAL     ACCESS:   17556723  HIT:   15772052  MISS:    1784671
cpu0_DTLB LOAD      ACCESS:   13050922  HIT:   11781087  MISS:    1269835
cpu0_DTLB RFO       ACCESS:    4505801  HIT:    3990965  MISS:     514836
cpu0_DTLB PREFETCH  ACCESS:          0  HIT:          0  MISS:          0
cpu0_DTLB WRITEBACK ACCESS:          0  HIT:          0  MISS:          0
cpu0_ITLB TOTAL     ACCESS:    6105475  HIT:    6105475  MISS:          0
cpu0_ITLB LOAD      ACCESS:    6105475  HIT:    6105475  MISS:          0
cpu0_ITLB RFO       ACCESS:          0  HIT:          0  MISS:          0
cpu0_ITLB PREFETCH  ACCESS:          0  HIT:          0  MISS:          0
cpu0_ITLB WRITEBACK ACCESS:          0  HIT:          0  MISS:          0
cpu0_L1I TOTAL     ACCESS:         68  HIT:         54  MISS:         14
cpu0_L1I LOAD      ACCESS:         68  HIT:         54  MISS:         14
cpu0_L1I RFO       ACCESS:          0  HIT:          0  MISS:          0
cpu0_L1I PREFETCH  ACCESS:          0  HIT:          0  MISS:          0
cpu0_L1I WRITEBACK ACCESS:          0  HIT:          0  MISS:          0
cpu0_STLB TOTAL     ACCESS:    1784671  HIT:     900515  MISS:     884156
cpu0_STLB LOAD      ACCESS:    1269835  HIT:     855569  MISS:     414266
cpu0_STLB RFO       ACCESS:     514836  HIT:      44946  MISS:     469890
cpu0_STLB PREFETCH  ACCESS:          0  HIT:          0  MISS:          0
cpu0_STLB WRITEBACK ACCESS:          0  HIT:          0  MISS:          0
cpu0_L1D TOTAL     ACCESS:   20219438  HIT:   17499436  MISS:    2720002
cpu0_L1D LOAD      ACCESS:   12723364  HIT:   10925842  MISS:    1797522
cpu0_L1D RFO       ACCESS:    6832812  HIT:    5916310  MISS:     916502
cpu0_L1D PREFETCH  ACCESS:          0  HIT:          0  MISS:          0
cpu0_L1D WRITEBACK ACCESS:          0  HIT:          0  MISS:          0
cpu0_L2C TOTAL     ACCESS:    4065527  HIT:    2095159  MISS:    1970368
cpu0_L2C LOAD      ACCESS:    1797530  HIT:     696510  MISS:    1101020
cpu0_L2C RFO       ACCESS:     916502  HIT:      47938  MISS:     868564
cpu0_L2C PREFETCH  ACCESS:          0  HIT:          0  MISS:          0
cpu0_L2C WRITEBACK ACCESS:    1345517  HIT:    1345410  MISS:        107
LLC TOTAL     ACCESS:    3265510  HIT:     491659  MISS:    2773851
LLC LOAD      ACCESS:    1101020  HIT:       5031  MISS:    1095989
LLC RFO       ACCESS:     868563  HIT:      24410  MISS:     844153
LLC PREFETCH  ACCESS:          0  HIT:          0  MISS:          0
LLC WRITEBACK ACCESS:    1295250  HIT:     462189  MISS:     833061
Heartbeat CPU 0 instructions: 106000003 cycles: 374791078 heartbeat IPC: 0.133722 cumulative IPC: 0.15693 (Simulation time: 3 hr 24 min 16 sec) 

Region of Interest Statistics
cpu0_DTLB TOTAL     ACCESS:   18172388  HIT:   16307850  MISS:    1864538
cpu0_DTLB LOAD      ACCESS:   13496275  HIT:   12186005  MISS:    1310270
cpu0_DTLB RFO       ACCESS:    4676113  HIT:    4121845  MISS:     554268
cpu0_DTLB PREFETCH  ACCESS:          0  HIT:          0  MISS:          0
cpu0_DTLB WRITEBACK ACCESS:          0  HIT:          0  MISS:          0
cpu0_ITLB TOTAL     ACCESS:    6309136  HIT:    6309136  MISS:          0
cpu0_ITLB LOAD      ACCESS:    6309136  HIT:    6309136  MISS:          0
cpu0_ITLB RFO       ACCESS:          0  HIT:          0  MISS:          0
cpu0_ITLB PREFETCH  ACCESS:          0  HIT:          0  MISS:          0
cpu0_ITLB WRITEBACK ACCESS:          0  HIT:          0  MISS:          0
cpu0_L1I TOTAL     ACCESS:         94  HIT:         80  MISS:         14
cpu0_L1I LOAD      ACCESS:         94  HIT:         80  MISS:         14
cpu0_L1I RFO       ACCESS:          0  HIT:          0  MISS:          0
cpu0_L1I PREFETCH  ACCESS:          0  HIT:          0  MISS:          0
cpu0_L1I WRITEBACK ACCESS:          0  HIT:          0  MISS:          0
cpu0_STLB TOTAL     ACCESS:    1864538  HIT:     933264  MISS:     931274
cpu0_STLB LOAD      ACCESS:    1310270  HIT:     885026  MISS:     425244
cpu0_STLB RFO       ACCESS:     554268  HIT:      48238  MISS:     506030
cpu0_STLB PREFETCH  ACCESS:          0  HIT:          0  MISS:          0
cpu0_STLB WRITEBACK ACCESS:          0  HIT:          0  MISS:          0
cpu0_L1D TOTAL     ACCESS:   20936381  HIT:   18097242  MISS:    2839139
cpu0_L1D LOAD      ACCESS:   13151490  HIT:   11302803  MISS:    1848687
cpu0_L1D RFO       ACCESS:    7091338  HIT:    6107080  MISS:     984258
cpu0_L1D PREFETCH  ACCESS:          0  HIT:          0  MISS:          0
cpu0_L1D WRITEBACK ACCESS:          0  HIT:          0  MISS:          0
cpu0_L2C TOTAL     ACCESS:    4266211  HIT:    2188993  MISS:    2077218
cpu0_L2C LOAD      ACCESS:    1848695  HIT:     707804  MISS:    1140891
cpu0_L2C RFO       ACCESS:     984258  HIT:      48773  MISS:     935485
cpu0_L2C PREFETCH  ACCESS:          0  HIT:          0  MISS:          0
cpu0_L2C WRITEBACK ACCESS:    1427064  HIT:    1426937  MISS:        127
LLC TOTAL     ACCESS:    3453113  HIT:     519757  MISS:    2933356
LLC LOAD      ACCESS:    1140891  HIT:       5351  MISS:    1135540
LLC RFO       ACCESS:     935484  HIT:      25590  MISS:     909894
LLC PREFETCH  ACCESS:          0  HIT:          0  MISS:          0
[...]
cpu0_DTLB AVERAGE MISS LATENCY: 181.143 cycles
cpu0_ITLB TOTAL     ACCESS:  167685636  HIT:  167685635  MISS:          1
cpu0_ITLB LOAD      ACCESS:  167685636  HIT:  167685635  MISS:          1
cpu0_ITLB RFO       ACCESS:          0  HIT:          0  MISS:          0
cpu0_ITLB PREFETCH  ACCESS:          0  HIT:          0  MISS:          0
cpu0_ITLB WRITEBACK ACCESS:          0  HIT:          0  MISS:          0
cpu0_ITLB TRANSLATION ACCESS:          0  HIT:          0  MISS:          0
cpu0_ITLB PREFETCH  REQUESTED:          0  ISSUED:          0  USEFUL:          0  USELESS:          0
cpu0_ITLB AVERAGE MISS LATENCY: 217 cycles
cpu0_L1I TOTAL     ACCESS:       2107  HIT:       2076  MISS:         31
cpu0_L1I LOAD      ACCESS:       2107  HIT:       2076  MISS:         31
cpu0_L1I RFO       ACCESS:          0  HIT:          0  MISS:          0
cpu0_L1I PREFETCH  ACCESS:          0  HIT:          0  MISS:          0
cpu0_L1I WRITEBACK ACCESS:          0  HIT:          0  MISS:          0
cpu0_L1I TRANSLATION ACCESS:          0  HIT:          0  MISS:          0
cpu0_L1I PREFETCH  REQUESTED:          0  ISSUED:          0  USEFUL:          0  USELESS:          0
cpu0_L1I AVERAGE MISS LATENCY: 185.548 cycles
cpu0_STLB TOTAL     ACCESS:   51305975  HIT:   24273317  MISS:   27032658
cpu0_STLB LOAD      ACCESS:   34610803  HIT:   22829564  MISS:   11781239
cpu0_STLB RFO       ACCESS:   16695172  HIT:    1443753  MISS:   15251419
cpu0_STLB PREFETCH  ACCESS:          0  HIT:          0  MISS:          0
cpu0_STLB WRITEBACK ACCESS:          0  HIT:          0  MISS:          0
cpu0_STLB TRANSLATION ACCESS:          0  HIT:          0  MISS:          0
cpu0_STLB PREFETCH  REQUESTED:          0  ISSUED:          0  USEFUL:          0  USELESS:          0
cpu0_STLB AVERAGE MISS LATENCY: 326.437 cycles
cpu0_L1D TOTAL     ACCESS:  558652495  HIT:  479692154  MISS:   78960341
cpu0_L1D LOAD      ACCESS:  348310686  HIT:  299014354  MISS:   49296332
cpu0_L1D RFO       ACCESS:  190486019  HIT:  160984283  MISS:   29501736
cpu0_L1D PREFETCH  ACCESS:          0  HIT:          0  MISS:          0
cpu0_L1D WRITEBACK ACCESS:          0  HIT:          0  MISS:          0
cpu0_L1D TRANSLATION ACCESS:   19855790  HIT:   19693517  MISS:     162273
cpu0_L1D PREFETCH  REQUESTED:          0  ISSUED:          0  USEFUL:          0  USELESS:          0
cpu0_L1D AVERAGE MISS LATENCY: 636.155 cycles
cpu0_L2C TOTAL     ACCESS:  120138697  HIT:   61364616  MISS:   58774081
cpu0_L2C LOAD      ACCESS:   49296221  HIT:   18754213  MISS:   30542008
cpu0_L2C RFO       ACCESS:   29501736  HIT:    1292986  MISS:   28208750
cpu0_L2C PREFETCH  ACCESS:          0  HIT:          0  MISS:          0
cpu0_L2C WRITEBACK ACCESS:   41178467  HIT:   41175388  MISS:       3079
cpu0_L2C TRANSLATION ACCESS:     162273  HIT:     142029  MISS:      20244
cpu0_L2C PREFETCH  REQUESTED:          0  ISSUED:          0  USEFUL:          0  USELESS:          0
cpu0_L2C AVERAGE MISS LATENCY: 839.843 cycles
LLC TOTAL     ACCESS:   98591788  HIT:   14834974  MISS:   83756814
LLC LOAD      ACCESS:   30542008  HIT:     172370  MISS:   30369638
LLC RFO       ACCESS:   28208727  HIT:     800836  MISS:   27407891
LLC PREFETCH  ACCESS:          0  HIT:          0  MISS:          0
LLC WRITEBACK ACCESS:   39820809  HIT:   13860908  MISS:   25959901
LLC TRANSLATION ACCESS:      20244  HIT:        860  MISS:      19384
LLC PREFETCH  REQUESTED:          0  ISSUED:          0  USEFUL:          0  USELESS:          0
LLC AVERAGE MISS LATENCY: 574.601 cycles
~~~~~~~~~~Reuse Distance Profiler output~~~~~~~~~~
0	81165696	17653584
1	61967408	44464464
2	44382000	37197616
3	28246288	18921152
4	20166848	13710224
5	20785312	16947376
6	23024848	15666928
7	21885952	14974608
8	26661440	14595904
9	15201056	9484848
10	7562848	5047456
11	10526368	3315920
12	6835280	3689760
13	5216544	2346080
14	2450048	2192864
15	3947472	3640144
16	6407840	6109856
17	5590832	5014288
18	5245072	5151616
19	5896288	5679008
20	3549328	3456960
21	3775536	3475744
22	2772096	2671072
23	1828240	1773328
24	2388656	2354288
25	2664192	2580240
26	2663216	2456928
27	2009776	1830288
28	2259680	1982224
29	1682400	1513152
30	1283392	1141952
31	1383840	1189888
32	1470240	1208288
33	1217616	1059200
34	1099728	935680
35	827168	696288
36	992288	779344
37	1436560	1171792
38	1242224	1069024
39	1280992	1098496
40	1140816	1000624
41	1237984	1021024
42	1058336	857104
43	1412448	1109920
44	1465936	1190464
45	1166864	969232
46	1091568	874720
47	1026336	817552
48	1066944	799424
49	928112	736624
50	840112	677184
51	766256	606912
52	730752	578976
53	672064	540496
54	613952	496352
55	680976	558192
56	563328	451936
57	723808	617296
58	602688	503952
59	588320	492752
60	569408	479776
61	543376	454064
62	517664	419760
63	497568	407216
64	972832	803984
66	822640	657184
68	759120	607344
70	652496	520944
72	562208	443552
74	527456	424976
76	474912	388704
78	389744	316496
80	350624	285184
82	327872	270816
84	289104	238560
86	243648	194688
88	219776	177616
90	191296	152160
92	171744	135792
94	159680	129552
96	142288	116208
98	123168	99760
100	108080	88288
102	98912	81600
104	86624	70960
106	82032	69088
108	76512	65088
110	69232	58448
112	63472	54208
114	63280	54960
116	58720	51968
118	53200	46624
120	50288	45248
122	46288	41344
124	44800	40784
126	41680	38368
128	80048	74384
132	69952	65984
136	68064	64144
140	61664	58592
144	59008	56448
148	55552	54192
152	51760	50512
156	47936	46704
160	45072	44400
164	41904	41152
168	40512	40000
172	38992	38624
176	38048	37648
180	36368	36064
184	34800	34544
188	32160	31984
192	32064	31952
196	30752	30688
200	27824	27680
204	27680	27552
208	27216	27120
212	27280	27216
216	25552	25488
220	23408	23376
224	23088	23056
228	24144	24080
232	22592	22560
236	21392	21360
240	20160	20064
244	20192	20128
248	19120	19120
252	18288	18256
256	34832	34736
264	35168	35088
272	33488	33440
280	31440	31328
288	28704	28656
296	28064	28000
304	27376	27328
312	25840	25824
320	24368	24288
328	23136	22976
336	23552	23488
344	22464	22368
352	20192	20144
360	20752	20656
368	18768	18736
376	18112	18080
384	18688	18624
392	16656	16624
400	16736	16688
408	16176	16176
416	15360	15312
424	15120	15104
432	13904	13872
440	14832	14816
448	13184	13152
456	13520	13488
464	12704	12656
472	12496	12448
480	11936	11920
488	12368	12304
496	11360	11264
504	12096	12064
512	21600	21424
528	22080	21904
544	19712	19568
560	18672	18416
576	17904	17744
592	18240	18080
608	16944	16800
624	15392	15264
640	15440	15360
656	14496	14336
672	13840	13760
688	13600	13504
704	13648	13568
720	13056	12928
736	12496	12352
752	11856	11712
768	11968	11856
784	11296	11200
800	10752	10656
816	10016	9856
832	10032	9840
848	8800	8672
864	8992	8800
880	9248	9056
896	8768	8640
912	8768	8608
928	8992	8864
944	8784	8672
960	8640	8480
976	8400	8240
992	8272	8208
1008	8096	7904
1024	15072	14688
1056	15600	15312
1088	13360	13136
1120	14496	14160
1152	13488	13088
1184	13312	12928
1216	12512	12112
1248	12816	12512
1280	13152	12704
1312	12080	11744
1344	12896	12480
1376	13104	12848
1408	13152	12720
1440	11808	11232
1472	11488	10896
1504	11968	11488
1536	11664	11056
1568	10912	10496
1600	12144	11776
1632	11936	11616
1664	11776	11296
1696	10480	9856
1728	11104	10656
1760	11328	10848
1792	11552	10960
1824	10864	10320
1856	11584	11056
1888	11744	11264
1920	10848	10288
1952	11472	10848
1984	11568	10992
2016	11792	11280
2048	24320	23392
2112	23264	22144
2176	23952	22848
2240	23008	21760
2304	23984	22496
2368	23616	22080
2432	24848	23328
2496	24624	23120
2560	24928	23568
2624	26416	24688
2688	25024	23584
2752	26560	25008
2816	25200	23616
2880	27552	25872
2944	27472	25744
3008	27232	25424
3072	29024	27008
3136	29424	27536
3200	29952	28032
3264	30944	29056
3328	31328	29456
3392	33024	31120
3456	33616	31712
3520	33840	31648
3584	35264	32992
3648	33936	31648
3712	33392	31600
3776	35040	32624
3840	36320	33968
3904	37456	34928
3968	40080	37680
4032	37984	35728
4096	80192	75248
4224	79440	73872
4352	82560	77488
4480	89040	83600
4608	95072	88976
4736	97280	91440
4864	94240	88608
4992	99920	93552
5120	102576	96416
5248	102352	95760
5376	105888	98896
5504	110336	103152
5632	109600	102096
5760	120960	112528
5888	136336	126976
6016	140544	131728
6144	140416	132144
6272	139568	130336
6400	141376	131504
6528	144368	135328
6656	153392	144272
6784	149904	141456
6912	148864	139344
7040	148336	139120
7168	146896	136704
7296	154768	144256
7424	167744	156912
7552	173568	162912
7680	175744	164176
7808	175520	163840
7936	185280	173152
8064	184352	173312
8192	363184	339408
8448	388496	363280
8704	413408	385120
8960	442336	414560
9216	480752	450672
9472	487920	456896
9728	551984	515328
9984	627536	586960
10240	711088	666064
10496	741152	694368
10752	766336	717088
11008	791040	741760
11264	800336	753952
11520	771760	725504
11776	749824	704112
12032	745248	700368
12288	746976	700768
12544	733632	688176
12800	708592	667616
13056	687536	647680
13312	633248	597696
13568	579520	545856
13824	508688	477408
14080	499248	470208
14336	448624	423280
14592	367312	346720
14848	327552	309408
15104	300768	283120
15360	256592	240528
15616	207712	194672
15872	172368	161824
16128	158080	147616
16384	277744	258768
16896	248208	229952
17408	275280	258624
17920	227696	212048
18432	184976	171200
18944	196272	182480
19456	170064	158736
19968	149536	137008
20480	150448	138960
20992	113600	104896
21504	71504	63760
22016	59296	51824
22528	56144	49552
23040	49904	44144
23552	57712	51856
24064	35856	30096
24576	35792	30736
25088	32704	27632
25600	24080	19776
26112	24064	18992
26624	21664	16704
27136	20432	15792
27648	15648	10624
28160	11968	7456
28672	9104	5008
29184	8640	4096
29696	8048	3936
30208	8064	4192
30720	8240	3872
31232	7904	3824
31744	8000	3744
32256	8176	4064
32768	16656	8096
33792	18032	8384
34816	18144	8784
35840	17488	8048
36864	18128	8192
37888	18192	8240
38912	18768	8832
39936	18256	8720
40960	18144	7952
41984	18608	8704
43008	18384	8880
44032	18224	8080
45056	19808	8672
46080	19888	8448
47104	18864	8064
48128	18464	8320
49152	19264	8576
50176	19824	8192
51200	19632	8064
52224	20688	9024
53248	21392	9280
54272	21712	9616
55296	20736	8464
56320	22208	9248
57344	20544	8448
58368	19712	8224
59392	21664	8736
60416	21760	9136
61440	21552	9376
62464	21824	8592
63488	22480	9584
64512	22064	9152
65536	44688	18624
67584	47936	19840
69632	44560	19408
71680	45952	20128
73728	43008	19088
75776	46800	20560
77824	46832	20048
79872	46896	21200
81920	48752	21408
83968	49168	21664
86016	49296	22368
88064	46576	22224
90112	45600	22288
92160	45520	22944
94208	45200	24288
96256	47232	25120
98304	44464	24448
100352	47184	26240
102400	46176	25840
104448	46976	26880
106496	77344	30112
108544	93024	31136
110592	47424	25568
112640	46304	25728
114688	44576	24800
116736	121632	33712
118784	45920	25344
120832	45648	25072
122880	46704	24448
124928	113008	31824
126976	51984	25280
129024	45184	24320
131072	89360	49792
135168	164944	57232
139264	90480	48816
143360	233744	66896
147456	94992	48400
151552	205600	61680
155648	193248	60752
159744	88432	49408
163840	87840	47104
167936	131936	53024
172032	115568	49888
176128	235808	65008
180224	117216	49952
184320	202960	60080
188416	105344	49440
192512	138624	52912
196608	230192	61760
200704	83408	46032
204800	157296	55088
208896	230000	62704
212992	230112	62832
217088	227040	62144
221184	155232	54112
225280	83200	44848
229376	82224	44944
233472	154848	53408
237568	156480	54512
241664	84592	46352
245760	152832	51168
249856	239776	64944
253952	141504	51296
258048	82720	45152
262144	307088	107312
270336	307424	106672
278528	304256	105568
286720	160448	88192
294912	228016	97040
303104	164864	89120
311296	448672	124064
319488	440688	123840
327680	176352	88032
335872	350800	111248
344064	161216	89040
352256	158736	87312
360448	228944	97440
368640	224192	96256
376832	365312	111744
385024	365728	113472
393216	226368	96416
401408	294176	104432
409600	226944	98128
417792	202864	90816
425984	315184	109776
434176	223296	95968
442368	287264	101200
450560	222704	97840
458752	289104	105312
466944	224160	97056
475136	226000	97088
483328	156080	89856
491520	154864	87312
499712	221280	96096
507904	217792	96640
516096	219952	96864
524288	374816	184960
540672	757568	234944
557056	433216	191520
573440	368016	183792
589824	495072	200656
606208	430688	192224
622592	367648	185232
638976	366144	186768
655360	485408	202176
671744	422128	194256
688128	543024	210096
704512	479968	199696
720896	543024	212912
737280	417936	194304
753664	416736	194544
770048	430416	198832
786432	519040	212608
802816	416864	200352
819200	409488	198128
835584	403520	197472
851968	518064	214016
868352	575408	222608
884736	570880	220576
901120	374192	196720
917504	489504	209328
933888	398672	197616
950272	395504	197872
966656	393088	196768
983040	333440	187792
999424	442832	205040
1015808	437712	201856
1032192	486976	209728
1048576	967936	423712
1081344	906272	414880
1114112	685744	377152
1146880	1030192	430656
1179648	951680	417472
1212416	896320	411872
1245184	909968	413328
1277952	754144	384016
1310720	951456	418432
1343488	766848	386368
1376256	747584	382720
1409024	681536	368368
1441792	572912	339792
1474560	787568	390448
1507328	650144	362096
1540096	756912	380208
1572864	672480	370320
1605632	686928	366192
1638400	621856	338832
1671168	486848	304784
1703936	704880	353472
1736704	650192	340544
1769472	634576	330752
1802240	439424	284512
1835008	570832	313520
1867776	411920	272240
1900544	570768	313568
1933312	482000	287248
1966080	588400	309136
1998848	418544	262992
2031616	458576	269232
2064384	478624	277184
2097152	710496	475744
2162688	846656	503936
2228224	691472	454560
2293760	626944	420816
2359296	328096	286320
2424832	253184	253184
2490368	244032	244000
2555904	225568	225472
2621440	215408	215312
2686976	198864	198752
2752512	200416	200368
2818048	206368	206288
2883584	209712	209664
2949120	184288	184224
3014656	180512	180464
3080192	172048	172000
3145728	189232	189200
3211264	221648	221648
3276800	167920	167888
3342336	146672	146608
3407872	135504	135456
3473408	120912	120880
3538944	113072	113056
3604480	107472	107472
3670016	103952	103952
3735552	102432	102416
3801088	98448	98352
3866624	89904	89888
3932160	91264	91264
3997696	83760	83744
4063232	77392	77376
4128768	68784	68752
4194304	105728	105712
4325376	110608	110560
4456448	102080	102064
4587520	92256	92224
4718592	92592	92528
4849664	73328	73312
4980736	63520	63472
5111808	56272	56272
5242880	56304	56208
5373952	58736	58592
5505024	56704	56640
5636096	45408	45376
5767168	40384	40288
5898240	38208	38192
6029312	59360	59328
6160384	46416	46384
6291456	38992	38928
6422528	39648	39616
6553600	37536	37472
6684672	49552	49504
6815744	38112	38112
6946816	34832	34832
7077888	34864	34816
7208960	29504	29472
7340032	21904	21904
7471104	23264	23248
7602176	22144	22128
7733248	18304	18304
7864320	18816	18784
7995392	15040	15040
8126464	12048	12048
8257536	12880	12864
8388608	21072	21056
8650752	11072	11056
8912896	7872	7728
9175040	9712	9696
9437184	12160	12128
9699328	8672	8608
9961472	7600	7504
10223616	10064	10016
10485760	3728	3648
10747904	3984	3952
11010048	5440	5424
11272192	8224	8160
11534336	8112	8080
11796480	5808	5808
12058624	2368	2368
12320768	3520	3488
12582912	3600	3600
12845056	2672	2672
13107200	1584	1568
13369344	2032	2016
13631488	1520	1520
13893632	1808	1776
14155776	1808	1792
14417920	1216	1200
14680064	448	448
14942208	1440	1424
15204352	736	736
15466496	368	368
15728640	896	880
15990784	720	704
16252928	1040	1040
16515072	256	256
16777216	1552	1536
17301504	1248	1232
17825792	448	416
18350080	320	272
18874368	256	240
19398656	544	544
19922944	448	400
20447232	208	176
20971520	208	160
21495808	160	144
22020096	592	544
22544384	144	128
23068672	320	192
23592960	224	128
24117248	208	160
24641536	48	48
25165824	176	176
25690112	176	160
26214400	64	48
26738688	0	0
27262976	80	80
27787264	32	16
28311552	96	80
28835840	80	80
29360128	96	64
29884416	240	240
30408704	144	96
30932992	64	64
31457280	112	64
31981568	48	16
32505856	80	80
33030144	48	32
33554432	112	64
34603008	144	112
35651584	128	80
36700160	80	64
37748736	96	64
38797312	112	48
39845888	80	80
40894464	80	48
41943040	96	32
42991616	160	32
44040192	128	80
45088768	48	48
46137344	80	48
47185920	80	80
48234496	16	16
49283072	272	176
50331648	32	32
51380224	96	64
52428800	160	128
53477376	144	96
54525952	48	48
55574528	80	64
56623104	144	80
57671680	144	96
58720256	80	80
59768832	64	64
60817408	64	64
61865984	64	48
62914560	144	144
63963136	224	80
65011712	96	80
66060288	96	96
67108864	32	16
69206016	128	96
71303168	160	80
73400320	96	64
75497472	192	96
77594624	80	80
79691776	160	160
81788928	80	16
83886080	192	144
85983232	96	64
88080384	160	112
90177536	80	80
92274688	48	48
94371840	96	48
96468992	160	144
98566144	112	112
100663296	224	48
102760448	128	96
104857600	80	32
106954752	176	144
109051904	32	32
111149056	64	16
113246208	80	64
115343360	128	112
117440512	128	80
119537664	64	64
121634816	16	16
123731968	32	16
125829120	144	64
127926272	64	32
130023424	48	48
132120576	64	48
134217728	48	32
138412032	80	64
142606336	128	96
146800640	224	224
150994944	208	128
155189248	176	96
159383552	64	32
163577856	96	80
167772160	32	32
171966464	96	32
176160768	16	16
180355072	80	64
184549376	80	64
188743680	64	32
192937984	16	0
197132288	96	96
201326592	64	64
205520896	96	64
209715200	64	64
213909504	80	80
218103808	16	16
222298112	16	16
226492416	80	32
230686720	96	48
234881024	0	0
239075328	96	64
243269632	32	32
247463936	32	32
251658240	16	16
255852544	112	48
260046848	32	32
264241152	0	0
268435456	112	48
276824064	32	32
285212672	32	32
293601280	80	80
301989888	48	48
310378496	32	32
318767104	0	0
327155712	0	0
335544320	16	16
343932928	48	48
352321536	48	48
360710144	112	48
369098752	48	48
377487360	64	64
385875968	16	16
394264576	48	16
402653184	16	16
411041792	16	16
419430400	0	0
427819008	16	0
436207616	0	0
444596224	32	32
452984832	16	0
461373440	0	0
469762048	0	0
478150656	0	0
486539264	32	32
494927872	0	0
503316480	16	16
511705088	32	0
520093696	0	0
528482304	0	0
536870912	0	0
553648128	0	0
570425344	0	0
587202560	0	0
603979776	0	0
620756992	0	0
637534208	0	0
654311424	0	0
671088640	0	0
687865856	0	0
704643072	0	0
721420288	0	0
738197504	0	0
754974720	0	0
771751936	0	0
788529152	0	0
805306368	0	0
822083584	0	0
838860800	0	0
855638016	0	0
872415232	0	0
889192448	0	0
905969664	0	0
922746880	0	0
939524096	0	0
956301312	0	0
973078528	0	0
989855744	0	0
1006632960	0	0
1023410176	0	0
1040187392	0	0
1056964608	0	0
1073741824	0	0
1107296256	0	0
1140850688	0	0
1174405120	0	0
1207959552	0	0
1241513984	0	0
1275068416	0	0
1308622848	0	0
1342177280	0	0
1375731712	0	0
1409286144	0	0
1442840576	0	0
1476395008	0	0
1509949440	0	0
1543503872	0	0
1577058304	0	0
1610612736	0	0
1644167168	0	0
1677721600	0	0
1711276032	0	0
1744830464	0	0
1778384896	0	0
1811939328	0	0
1845493760	0	0
1879048192	0	0
1912602624	0	0
1946157056	0	0
1979711488	0	0
2013265920	0	0
2046820352	0	0
2080374784	0	0
2113929216	0	0
2147483648	0	0
2214592512	0	0
2281701376	0	0
2348810240	0	0
2415919104	0	0
2483027968	0	0
2550136832	0	0
2617245696	0	0
2684354560	0	0
2751463424	0	0
2818572288	0	0
2885681152	0	0
2952790016	0	0
3019898880	0	0
3087007744	0	0
3154116608	0	0
3221225472	0	0
3288334336	0	0
3355443200	0	0
3422552064	0	0
3489660928	0	0
3556769792	0	0
3623878656	0	0
3690987520	0	0
3758096384	0	0
3825205248	0	0
3892314112	0	0
3959422976	0	0
4026531840	0	0
4093640704	0	0
4160749568	0	0
4227858432	0	0
~~~~~~~~~~Reuse Distance Profiler output end~~~~~~~~~~

Sampler size:9448

DRAM Statistics
 CHANNEL 0
 RQ ROW_BUFFER_HIT:     378181  ROW_BUFFER_MISS:   57412591
 DBUS AVG_CONGESTED_CYCLE:    4.00445
 WQ ROW_BUFFER_HIT:    5682925  ROW_BUFFER_MISS:   33263546  FULL:          0


CPU 0 Branch Prediction Accuracy: 89.3481% MPKI: 20.8104 Average ROB Occupancy at Mispredict: 27.5218
Branch type MPKI
BRANCH_DIRECT_JUMP: 6e-06
BRANCH_INDIRECT: 0
BRANCH_CONDITIONAL: 20.8104
BRANCH_DIRECT_CALL: 6.66667e-07
BRANCH_INDIRECT_CALL: 3.46667e-05
BRANCH_RETURN: 6.66667e-07

