
*** ChampSim Multicore Out-of-Order Simulator ***

Warmup Instructions: 50000000
Simulation Instructions: 1500000000
Number of CPUs: 1
Off-chip DRAM Size: 4 GiB Channels: 1 Width: 64-bit Data Rate: 3200 MT/s

VirtualMemory physical capacity: 8588881920 num_ppages: 2096895
VirtualMemory page size: 4096 log2_page_size: 12

CPU 0 runs /s/traces/champsim_traces/482.sphinx3-1522B.champsimtrace.xz
CPU 0 Bimodal branch predictor
Basic BTB sets: 1024 ways: 8 indirect buffer size: 4096 RAS size: 64
Initializing LRU.
Initializing LRU.
Initializing LRU.
Initializing LRU.
Initializing rdLRU.
Initializing LRU.
Heartbeat CPU 0 instructions: 2000003 cycles: 531726 heartbeat IPC: 3.76134 cumulative IPC: 3.76134 (Simulation time: 0 hr 1 min 9 sec) 
Heartbeat CPU 0 instructions: 4000002 cycles: 1036007 heartbeat IPC: 3.96604 cumulative IPC: 3.86098 (Simulation time: 0 hr 2 min 11 sec) 
Heartbeat CPU 0 instructions: 6000002 cycles: 1564705 heartbeat IPC: 3.78288 cumulative IPC: 3.83459 (Simulation time: 0 hr 3 min 17 sec) 
Heartbeat CPU 0 instructions: 8000000 cycles: 2072509 heartbeat IPC: 3.93852 cumulative IPC: 3.86006 (Simulation time: 0 hr 4 min 13 sec) 
Heartbeat CPU 0 instructions: 10000000 cycles: 2584510 heartbeat IPC: 3.90624 cumulative IPC: 3.86921 (Simulation time: 0 hr 5 min 25 sec) 
Heartbeat CPU 0 instructions: 12000001 cycles: 3113011 heartbeat IPC: 3.78429 cumulative IPC: 3.85479 (Simulation time: 0 hr 6 min 33 sec) 
Heartbeat CPU 0 instructions: 14000000 cycles: 3620418 heartbeat IPC: 3.94161 cumulative IPC: 3.86696 (Simulation time: 0 hr 7 min 36 sec) 
Heartbeat CPU 0 instructions: 16000002 cycles: 4169203 heartbeat IPC: 3.64442 cumulative IPC: 3.83766 (Simulation time: 0 hr 8 min 47 sec) 
Heartbeat CPU 0 instructions: 18000003 cycles: 4690627 heartbeat IPC: 3.83565 cumulative IPC: 3.83744 (Simulation time: 0 hr 9 min 46 sec) 
Heartbeat CPU 0 instructions: 20000000 cycles: 5205525 heartbeat IPC: 3.88426 cumulative IPC: 3.84207 (Simulation time: 0 hr 10 min 53 sec) 
Heartbeat CPU 0 instructions: 22000002 cycles: 5726951 heartbeat IPC: 3.83564 cumulative IPC: 3.84149 (Simulation time: 0 hr 11 min 55 sec) 
Heartbeat CPU 0 instructions: 24000003 cycles: 6239986 heartbeat IPC: 3.89837 cumulative IPC: 3.84616 (Simulation time: 0 hr 13 min 4 sec) 
Heartbeat CPU 0 instructions: 26000000 cycles: 6761255 heartbeat IPC: 3.83678 cumulative IPC: 3.84544 (Simulation time: 0 hr 14 min 9 sec) 
Heartbeat CPU 0 instructions: 28000000 cycles: 7272968 heartbeat IPC: 3.90844 cumulative IPC: 3.84987 (Simulation time: 0 hr 15 min 16 sec) 
Heartbeat CPU 0 instructions: 30000002 cycles: 7794159 heartbeat IPC: 3.83737 cumulative IPC: 3.84904 (Simulation time: 0 hr 16 min 19 sec) 
Heartbeat CPU 0 instructions: 32000000 cycles: 8305095 heartbeat IPC: 3.91438 cumulative IPC: 3.85306 (Simulation time: 0 hr 17 min 25 sec) 
Heartbeat CPU 0 instructions: 34000003 cycles: 8826081 heartbeat IPC: 3.83888 cumulative IPC: 3.85222 (Simulation time: 0 hr 18 min 25 sec) 
Heartbeat CPU 0 instructions: 36000002 cycles: 9340681 heartbeat IPC: 3.88651 cumulative IPC: 3.85411 (Simulation time: 0 hr 19 min 29 sec) 
Heartbeat CPU 0 instructions: 38000000 cycles: 9860371 heartbeat IPC: 3.84844 cumulative IPC: 3.85381 (Simulation time: 0 hr 20 min 32 sec) 
Heartbeat CPU 0 instructions: 40000001 cycles: 10375509 heartbeat IPC: 3.88246 cumulative IPC: 3.85523 (Simulation time: 0 hr 21 min 39 sec) 
Heartbeat CPU 0 instructions: 42000002 cycles: 10896865 heartbeat IPC: 3.83615 cumulative IPC: 3.85432 (Simulation time: 0 hr 22 min 42 sec) 
Heartbeat CPU 0 instructions: 44000001 cycles: 11406442 heartbeat IPC: 3.92482 cumulative IPC: 3.85747 (Simulation time: 0 hr 23 min 46 sec) 
Heartbeat CPU 0 instructions: 46000001 cycles: 11936439 heartbeat IPC: 3.77361 cumulative IPC: 3.85375 (Simulation time: 0 hr 24 min 49 sec) 
Heartbeat CPU 0 instructions: 48000000 cycles: 12442095 heartbeat IPC: 3.95526 cumulative IPC: 3.85787 (Simulation time: 0 hr 25 min 51 sec) 
Heartbeat CPU 0 instructions: 50000000 cycles: 12976275 heartbeat IPC: 3.74406 cumulative IPC: 3.85319 (Simulation time: 0 hr 26 min 57 sec) 

Warmup complete CPU 0 instructions: 50000004 cycles: 12976276 (Simulation time: 0 hr 26 min 57 sec) 

Heartbeat CPU 0 instructions: 52000002 cycles: 15218847 heartbeat IPC: 0.891834 cumulative IPC: 0.891833 (Simulation time: 0 hr 28 min 56 sec) 

Region of Interest Statistics
cpu0_DTLB TOTAL     ACCESS:     330980  HIT:     329826  MISS:       1154
cpu0_DTLB LOAD      ACCESS:     316365  HIT:     315238  MISS:       1127
cpu0_DTLB RFO       ACCESS:      14615  HIT:      14588  MISS:         27
cpu0_DTLB PREFETCH  ACCESS:          0  HIT:          0  MISS:          0
cpu0_DTLB WRITEBACK ACCESS:          0  HIT:          0  MISS:          0
cpu0_ITLB TOTAL     ACCESS:     183737  HIT:     183737  MISS:          0
cpu0_ITLB LOAD      ACCESS:     183737  HIT:     183737  MISS:          0
cpu0_ITLB RFO       ACCESS:          0  HIT:          0  MISS:          0
cpu0_ITLB PREFETCH  ACCESS:          0  HIT:          0  MISS:          0
cpu0_ITLB WRITEBACK ACCESS:          0  HIT:          0  MISS:          0
cpu0_L1I TOTAL     ACCESS:         48  HIT:         48  MISS:          0
cpu0_L1I LOAD      ACCESS:         48  HIT:         48  MISS:          0
cpu0_L1I RFO       ACCESS:          0  HIT:          0  MISS:          0
cpu0_L1I PREFETCH  ACCESS:          0  HIT:          0  MISS:          0
cpu0_L1I WRITEBACK ACCESS:          0  HIT:          0  MISS:          0
cpu0_STLB TOTAL     ACCESS:       1154  HIT:        621  MISS:        533
cpu0_STLB LOAD      ACCESS:       1127  HIT:        595  MISS:        532
cpu0_STLB RFO       ACCESS:         27  HIT:         26  MISS:          1
cpu0_STLB PREFETCH  ACCESS:          0  HIT:          0  MISS:          0
cpu0_STLB WRITEBACK ACCESS:          0  HIT:          0  MISS:          0
cpu0_L1D TOTAL     ACCESS:     206448  HIT:     179171  MISS:      27277
cpu0_L1D LOAD      ACCESS:     187884  HIT:     161417  MISS:      26467
cpu0_L1D RFO       ACCESS:      18054  HIT:      17248  MISS:        806
cpu0_L1D PREFETCH  ACCESS:          0  HIT:          0  MISS:          0
cpu0_L1D WRITEBACK ACCESS:          0  HIT:          0  MISS:          0
cpu0_L2C TOTAL     ACCESS:      28112  HIT:       1763  MISS:      26349
cpu0_L2C LOAD      ACCESS:      26467  HIT:        928  MISS:      25539
cpu0_L2C RFO       ACCESS:        806  HIT:          0  MISS:        806
cpu0_L2C PREFETCH  ACCESS:          0  HIT:          0  MISS:          0
cpu0_L2C WRITEBACK ACCESS:        835  HIT:        834  MISS:          1
LLC TOTAL     ACCESS:      29432  HIT:       5855  MISS:      23577
LLC LOAD      ACCESS:      25539  HIT:       1963  MISS:      23576
LLC RFO       ACCESS:        806  HIT:        805  MISS:          1
LLC PREFETCH  ACCESS:          0  HIT:          0  MISS:          0
LLC WRITEBACK ACCESS:       3084  HIT:       3084  MISS:          0
Heartbeat CPU 0 instructions: 54000001 cycles: 17820242 heartbeat IPC: 0.768818 cumulative IPC: 0.825769 (Simulation time: 0 hr 31 min 12 sec) 

Region of Interest Statistics
cpu0_DTLB TOTAL     ACCESS:     691781  HIT:     686145  MISS:       5636
cpu0_DTLB LOAD      ACCESS:     655230  HIT:     649785  MISS:       5445
cpu0_DTLB RFO       ACCESS:      36551  HIT:      36360  MISS:        191
cpu0_DTLB PREFETCH  ACCESS:          0  HIT:          0  MISS:          0
cpu0_DTLB WRITEBACK ACCESS:          0  HIT:          0  MISS:          0
cpu0_ITLB TOTAL     ACCESS:     336867  HIT:     336867  MISS:          0
cpu0_ITLB LOAD      ACCESS:     336867  HIT:     336867  MISS:          0
cpu0_ITLB RFO       ACCESS:          0  HIT:          0  MISS:          0
cpu0_ITLB PREFETCH  ACCESS:          0  HIT:          0  MISS:          0
cpu0_ITLB WRITEBACK ACCESS:          0  HIT:          0  MISS:          0
cpu0_L1I TOTAL     ACCESS:       1571  HIT:       1571  MISS:          0
cpu0_L1I LOAD      ACCESS:       1571  HIT:       1571  MISS:          0
cpu0_L1I RFO       ACCESS:          0  HIT:          0  MISS:          0
cpu0_L1I PREFETCH  ACCESS:          0  HIT:          0  MISS:          0
cpu0_L1I WRITEBACK ACCESS:          0  HIT:          0  MISS:          0
cpu0_STLB TOTAL     ACCESS:       5636  HIT:       3978  MISS:       1658
cpu0_STLB LOAD      ACCESS:       5445  HIT:       3814  MISS:       1631
cpu0_STLB RFO       ACCESS:        191  HIT:        164  MISS:         27
cpu0_STLB PREFETCH  ACCESS:          0  HIT:          0  MISS:          0
cpu0_STLB WRITEBACK ACCESS:          0  HIT:          0  MISS:          0
cpu0_L1D TOTAL     ACCESS:     444946  HIT:     388061  MISS:      56885
cpu0_L1D LOAD      ACCESS:     390405  HIT:     335699  MISS:      54706
cpu0_L1D RFO       ACCESS:      52967  HIT:      50806  MISS:       2161
cpu0_L1D PREFETCH  ACCESS:          0  HIT:          0  MISS:          0
cpu0_L1D WRITEBACK ACCESS:          0  HIT:          0  MISS:          0
cpu0_L2C TOTAL     ACCESS:      59152  HIT:       8136  MISS:      51016
cpu0_L2C LOAD      ACCESS:      54706  HIT:       5870  MISS:      48836
cpu0_L2C RFO       ACCESS:       2161  HIT:          7  MISS:       2154
cpu0_L2C PREFETCH  ACCESS:          0  HIT:          0  MISS:          0
cpu0_L2C WRITEBACK ACCESS:       2267  HIT:       2251  MISS:         16
LLC TOTAL     ACCESS:      55147  HIT:      11462  MISS:      43685
LLC LOAD      ACCESS:      48836  HIT:       5183  MISS:      43653
LLC RFO       ACCESS:       2154  HIT:       2126  MISS:         28
LLC PREFETCH  ACCESS:          0  HIT:          0  MISS:          0
LLC WRITEBACK ACCESS:       4147  HIT:       4147  MISS:          0
Heartbeat CPU 0 instructions: 56000001 cycles: 19729415 heartbeat IPC: 1.04757 cumulative IPC: 0.888475 (Simulation time: 0 hr 33 min 4 sec) 

Region of Interest Statistics
cpu0_DTLB TOTAL     ACCESS:    1019792  HIT:    1013533  MISS:       6259
cpu0_DTLB LOAD      ACCESS:     968295  HIT:     962283  MISS:       6012
cpu0_DTLB RFO       ACCESS:      51497  HIT:      51250  MISS:        247
cpu0_DTLB PREFETCH  ACCESS:          0  HIT:          0  MISS:          0
cpu0_DTLB WRITEBACK ACCESS:          0  HIT:          0  MISS:          0
cpu0_ITLB TOTAL     ACCESS:     535432  HIT:     535432  MISS:          0
cpu0_ITLB LOAD      ACCESS:     535432  HIT:     535432  MISS:          0
cpu0_ITLB RFO       ACCESS:          0  HIT:          0  MISS:          0
cpu0_ITLB PREFETCH  ACCESS:          0  HIT:          0  MISS:          0
cpu0_ITLB WRITEBACK ACCESS:          0  HIT:          0  MISS:          0
cpu0_L1I TOTAL     ACCESS:       1662  HIT:       1662  MISS:          0
cpu0_L1I LOAD      ACCESS:       1662  HIT:       1662  MISS:          0
cpu0_L1I RFO       ACCESS:          0  HIT:          0  MISS:          0
cpu0_L1I PREFETCH  ACCESS:          0  HIT:          0  MISS:          0
cpu0_L1I WRITEBACK ACCESS:          0  HIT:          0  MISS:          0
cpu0_STLB TOTAL     ACCESS:       6259  HIT:       4272  MISS:       1987
cpu0_STLB LOAD      ACCESS:       6012  HIT:       4068  MISS:       1944
cpu0_STLB RFO       ACCESS:        247  HIT:        204  MISS:         43
cpu0_STLB PREFETCH  ACCESS:          0  HIT:          0  MISS:          0
cpu0_STLB WRITEBACK ACCESS:          0  HIT:          0  MISS:          0
cpu0_L1D TOTAL     ACCESS:     638089  HIT:     554150  MISS:      83939
cpu0_L1D LOAD      ACCESS:     570371  HIT:     491139  MISS:      79232
cpu0_L1D RFO       ACCESS:      65822  HIT:      61134  MISS:       4688
cpu0_L1D PREFETCH  ACCESS:          0  HIT:          0  MISS:          0
cpu0_L1D WRITEBACK ACCESS:          0  HIT:          0  MISS:          0
cpu0_L2C TOTAL     ACCESS:      89485  HIT:      13942  MISS:      75543
cpu0_L2C LOAD      ACCESS:      79232  HIT:       8143  MISS:      71089
cpu0_L2C RFO       ACCESS:       4688  HIT:        260  MISS:       4428
cpu0_L2C PREFETCH  ACCESS:          0  HIT:          0  MISS:          0
cpu0_L2C WRITEBACK ACCESS:       5546  HIT:       5530  MISS:         16
LLC TOTAL     ACCESS:      83115  HIT:      18345  MISS:      64770
LLC LOAD      ACCESS:      71089  HIT:       6363  MISS:      64726
LLC RFO       ACCESS:       4428  HIT:       4388  MISS:         40
LLC PREFETCH  ACCESS:          0  HIT:          0  MISS:          0
LLC WRITEBACK ACCESS:       7588  HIT:       7588  MISS:          0
Heartbeat CPU 0 instructions: 58000001 cycles: 22428062 heartbeat IPC: 0.741112 cumulative IPC: 0.846401 (Simulation time: 0 hr 35 min 17 sec) 

Region of Interest Statistics
cpu0_DTLB TOTAL     ACCESS:    1391787  HIT:    1380574  MISS:      11213
cpu0_DTLB LOAD      ACCESS:    1317046  HIT:    1306232  MISS:      10814
cpu0_DTLB RFO       ACCESS:      74741  HIT:      74342  MISS:        399
cpu0_DTLB PREFETCH  ACCESS:          0  HIT:          0  MISS:          0
cpu0_DTLB WRITEBACK ACCESS:          0  HIT:          0  MISS:          0
cpu0_ITLB TOTAL     ACCESS:     703002  HIT:     703002  MISS:          0
cpu0_ITLB LOAD      ACCESS:     703002  HIT:     703002  MISS:          0
cpu0_ITLB RFO       ACCESS:          0  HIT:          0  MISS:          0
cpu0_ITLB PREFETCH  ACCESS:          0  HIT:          0  MISS:          0
cpu0_ITLB WRITEBACK ACCESS:          0  HIT:          0  MISS:          0
cpu0_L1I TOTAL     ACCESS:       2405  HIT:       2405  MISS:          0
cpu0_L1I LOAD      ACCESS:       2405  HIT:       2405  MISS:          0
cpu0_L1I RFO       ACCESS:          0  HIT:          0  MISS:          0
cpu0_L1I PREFETCH  ACCESS:          0  HIT:          0  MISS:          0
cpu0_L1I WRITEBACK ACCESS:          0  HIT:          0  MISS:          0
cpu0_STLB TOTAL     ACCESS:      11213  HIT:       7951  MISS:       3262
cpu0_STLB LOAD      ACCESS:      10814  HIT:       7609  MISS:       3205
cpu0_STLB RFO       ACCESS:        399  HIT:        342  MISS:         57
cpu0_STLB PREFETCH  ACCESS:          0  HIT:          0  MISS:          0
cpu0_STLB WRITEBACK ACCESS:          0  HIT:          0  MISS:          0
cpu0_L1D TOTAL     ACCESS:     881879  HIT:     767761  MISS:     114118
cpu0_L1D LOAD      ACCESS:     774859  HIT:     666170  MISS:     108689
cpu0_L1D RFO       ACCESS:     103929  HIT:      98533  MISS:       5396
cpu0_L1D PREFETCH  ACCESS:          0  HIT:          0  MISS:          0
cpu0_L1D WRITEBACK ACCESS:          0  HIT:          0  MISS:          0
cpu0_L2C TOTAL     ACCESS:     120803  HIT:      20747  MISS:     100056
cpu0_L2C LOAD      ACCESS:     108689  HIT:      13809  MISS:      94880
cpu0_L2C RFO       ACCESS:       5396  HIT:        269  MISS:       5127
cpu0_L2C PREFETCH  ACCESS:          0  HIT:          0  MISS:          0
cpu0_L2C WRITEBACK ACCESS:       6685  HIT:       6656  MISS:         29
LLC TOTAL     ACCESS:     108073  HIT:      23176  MISS:      84897
LLC LOAD      ACCESS:      94880  HIT:      10042  MISS:      84838
LLC RFO       ACCESS:       5127  HIT:       5076  MISS:         51
LLC PREFETCH  ACCESS:          0  HIT:          0  MISS:          0
LLC WRITEBACK ACCESS:       8046  HIT:       8046  MISS:          0
Heartbeat CPU 0 instructions: 60000002 cycles: 24382915 heartbeat IPC: 1.0231 cumulative IPC: 0.876682 (Simulation time: 0 hr 37 min 17 sec) 

Region of Interest Statistics
cpu0_DTLB TOTAL     ACCESS:    1719087  HIT:    1706943  MISS:      12144
cpu0_DTLB LOAD      ACCESS:    1628035  HIT:    1616362  MISS:      11673
cpu0_DTLB RFO       ACCESS:      91052  HIT:      90581  MISS:        471
cpu0_DTLB PREFETCH  ACCESS:          0  HIT:          0  MISS:          0
cpu0_DTLB WRITEBACK ACCESS:          0  HIT:          0  MISS:          0
cpu0_ITLB TOTAL     ACCESS:     881640  HIT:     881640  MISS:          0
cpu0_ITLB LOAD      ACCESS:     881640  HIT:     881640  MISS:          0
cpu0_ITLB RFO       ACCESS:          0  HIT:          0  MISS:          0
cpu0_ITLB PREFETCH  ACCESS:          0  HIT:          0  MISS:          0
cpu0_ITLB WRITEBACK ACCESS:          0  HIT:          0  MISS:          0
cpu0_L1I TOTAL     ACCESS:       3412  HIT:       3412  MISS:          0
cpu0_L1I LOAD      ACCESS:       3412  HIT:       3412  MISS:          0
cpu0_L1I RFO       ACCESS:          0  HIT:          0  MISS:          0
cpu0_L1I PREFETCH  ACCESS:          0  HIT:          0  MISS:          0
cpu0_L1I WRITEBACK ACCESS:          0  HIT:          0  MISS:          0
cpu0_STLB TOTAL     ACCESS:      12144  HIT:       8528  MISS:       3616
cpu0_STLB LOAD      ACCESS:      11673  HIT:       8144  MISS:       3529
cpu0_STLB RFO       ACCESS:        471  HIT:        384  MISS:         87
cpu0_STLB PREFETCH  ACCESS:          0  HIT:          0  MISS:          0
cpu0_STLB WRITEBACK ACCESS:          0  HIT:          0  MISS:          0
cpu0_L1D TOTAL     ACCESS:    1080041  HIT:     938243  MISS:     141798
cpu0_L1D LOAD      ACCESS:     957133  HIT:     823941  MISS:     133192
cpu0_L1D RFO       ACCESS:     119469  HIT:     110902  MISS:       8567
cpu0_L1D PREFETCH  ACCESS:          0  HIT:          0  MISS:          0
cpu0_L1D WRITEBACK ACCESS:          0  HIT:          0  MISS:          0
cpu0_L2C TOTAL     ACCESS:     152073  HIT:      27066  MISS:     125007
cpu0_L2C LOAD      ACCESS:     133192  HIT:      16283  MISS:     116909
cpu0_L2C RFO       ACCESS:       8567  HIT:        522  MISS:       8045
cpu0_L2C PREFETCH  ACCESS:          0  HIT:          0  MISS:          0
cpu0_L2C WRITEBACK ACCESS:      10275  HIT:      10243  MISS:         32
LLC TOTAL     ACCESS:     136805  HIT:      31490  MISS:     105315
LLC LOAD      ACCESS:     116909  HIT:      11673  MISS:     105236
LLC RFO       ACCESS:       8045  HIT:       7974  MISS:         71
LLC PREFETCH  ACCESS:          0  HIT:          0  MISS:          0
LLC WRITEBACK ACCESS:      11830  HIT:      11830  MISS:          0
Heartbeat CPU 0 instructions: 62000000 cycles: 26988853 heartbeat IPC: 0.767477 cumulative IPC: 0.856373 (Simulation time: 0 hr 39 min 31 sec) 

Region of Interest Statistics
cpu0_DTLB TOTAL     ACCESS:    2076111  HIT:    2060381  MISS:      15730
cpu0_DTLB LOAD      ACCESS:    1964760  HIT:    1949550  MISS:      15210
cpu0_DTLB RFO       ACCESS:     111351  HIT:     110831  MISS:        520
cpu0_DTLB PREFETCH  ACCESS:          0  HIT:          0  MISS:          0
cpu0_DTLB WRITEBACK ACCESS:          0  HIT:          0  MISS:          0
cpu0_ITLB TOTAL     ACCESS:    1049917  HIT:    1049917  MISS:          0
cpu0_ITLB LOAD      ACCESS:    1049917  HIT:    1049917  MISS:          0
cpu0_ITLB RFO       ACCESS:          0  HIT:          0  MISS:          0
cpu0_ITLB PREFETCH  ACCESS:          0  HIT:          0  MISS:          0
cpu0_ITLB WRITEBACK ACCESS:          0  HIT:          0  MISS:          0
cpu0_L1I TOTAL     ACCESS:       3445  HIT:       3445  MISS:          0
cpu0_L1I LOAD      ACCESS:       3445  HIT:       3445  MISS:          0
cpu0_L1I RFO       ACCESS:          0  HIT:          0  MISS:          0
cpu0_L1I PREFETCH  ACCESS:          0  HIT:          0  MISS:          0
cpu0_L1I WRITEBACK ACCESS:          0  HIT:          0  MISS:          0
cpu0_STLB TOTAL     ACCESS:      15730  HIT:      11110  MISS:       4620
cpu0_STLB LOAD      ACCESS:      15210  HIT:      10683  MISS:       4527
cpu0_STLB RFO       ACCESS:        520  HIT:        427  MISS:         93
cpu0_STLB PREFETCH  ACCESS:          0  HIT:          0  MISS:          0
cpu0_STLB WRITEBACK ACCESS:          0  HIT:          0  MISS:          0
cpu0_L1D TOTAL     ACCESS:    1311578  HIT:    1140567  MISS:     171011
cpu0_L1D LOAD      ACCESS:    1156749  HIT:     995080  MISS:     161669
cpu0_L1D RFO       ACCESS:     150451  HIT:     141156  MISS:       9295
cpu0_L1D PREFETCH  ACCESS:          0  HIT:          0  MISS:          0
cpu0_L1D WRITEBACK ACCESS:          0  HIT:          0  MISS:          0
cpu0_L2C TOTAL     ACCESS:     182018  HIT:      31944  MISS:     150074
cpu0_L2C LOAD      ACCESS:     161669  HIT:      20426  MISS:     141243
cpu0_L2C RFO       ACCESS:       9295  HIT:        522  MISS:       8773
cpu0_L2C PREFETCH  ACCESS:          0  HIT:          0  MISS:          0
cpu0_L2C WRITEBACK ACCESS:      11007  HIT:      10974  MISS:         33
LLC TOTAL     ACCESS:     162600  HIT:      35391  MISS:     127209
LLC LOAD      ACCESS:     141243  HIT:      14116  MISS:     127127
LLC RFO       ACCESS:       8773  HIT:       8699  MISS:         74
LLC PREFETCH  ACCESS:          0  HIT:          0  MISS:          0
LLC WRITEBACK ACCESS:      12559  HIT:      12559  MISS:          0
Heartbeat CPU 0 instructions: 64000004 cycles: 29053829 heartbeat IPC: 0.968536 cumulative IPC: 0.870779 (Simulation time: 0 hr 41 min 33 sec) 

Region of Interest Statistics
cpu0_DTLB TOTAL     ACCESS:    2420388  HIT:    2402314  MISS:      18074
cpu0_DTLB LOAD      ACCESS:    2289664  HIT:    2272293  MISS:      17371
cpu0_DTLB RFO       ACCESS:     130724  HIT:     130021  MISS:        703
cpu0_DTLB PREFETCH  ACCESS:          0  HIT:          0  MISS:          0
cpu0_DTLB WRITEBACK ACCESS:          0  HIT:          0  MISS:          0
cpu0_ITLB TOTAL     ACCESS:    1227522  HIT:    1227522  MISS:          0
cpu0_ITLB LOAD      ACCESS:    1227522  HIT:    1227522  MISS:          0
cpu0_ITLB RFO       ACCESS:          0  HIT:          0  MISS:          0
cpu0_ITLB PREFETCH  ACCESS:          0  HIT:          0  MISS:          0
cpu0_ITLB WRITEBACK ACCESS:          0  HIT:          0  MISS:          0
cpu0_L1I TOTAL     ACCESS:       5122  HIT:       5122  MISS:          0
cpu0_L1I LOAD      ACCESS:       5122  HIT:       5122  MISS:          0
cpu0_L1I RFO       ACCESS:          0  HIT:          0  MISS:          0
cpu0_L1I PREFETCH  ACCESS:          0  HIT:          0  MISS:          0
cpu0_L1I WRITEBACK ACCESS:          0  HIT:          0  MISS:          0
cpu0_STLB TOTAL     ACCESS:      18074  HIT:      12809  MISS:       5265
cpu0_STLB LOAD      ACCESS:      17371  HIT:      12237  MISS:       5134
cpu0_STLB RFO       ACCESS:        703  HIT:        572  MISS:        131
cpu0_STLB PREFETCH  ACCESS:          0  HIT:          0  MISS:          0
cpu0_STLB WRITEBACK ACCESS:          0  HIT:          0  MISS:          0
cpu0_L1D TOTAL     ACCESS:    1523874  HIT:    1324245  MISS:     199629
cpu0_L1D LOAD      ACCESS:    1345588  HIT:    1158469  MISS:     187119
cpu0_L1D RFO       ACCESS:     173288  HIT:     160837  MISS:      12451
cpu0_L1D PREFETCH  ACCESS:          0  HIT:          0  MISS:          0
cpu0_L1D WRITEBACK ACCESS:          0  HIT:          0  MISS:          0
cpu0_L2C TOTAL     ACCESS:     214689  HIT:      40132  MISS:     174557
cpu0_L2C LOAD      ACCESS:     187119  HIT:      24307  MISS:     162812
cpu0_L2C RFO       ACCESS:      12451  HIT:        785  MISS:      11666
cpu0_L2C PREFETCH  ACCESS:          0  HIT:          0  MISS:          0
cpu0_L2C WRITEBACK ACCESS:      15060  HIT:      15012  MISS:         48
LLC TOTAL     ACCESS:     190378  HIT:      44258  MISS:     146120
LLC LOAD      ACCESS:     162812  HIT:      16817  MISS:     145995
LLC RFO       ACCESS:      11666  HIT:      11553  MISS:        113
LLC PREFETCH  ACCESS:          0  HIT:          0  MISS:          0
LLC WRITEBACK ACCESS:      15869  HIT:      15869  MISS:          0
Heartbeat CPU 0 instructions: 66000004 cycles: 31492718 heartbeat IPC: 0.820046 cumulative IPC: 0.864097 (Simulation time: 0 hr 43 min 41 sec) 

Region of Interest Statistics
cpu0_DTLB TOTAL     ACCESS:    2762243  HIT:    2742073  MISS:      20170
cpu0_DTLB LOAD      ACCESS:    2614089  HIT:    2594660  MISS:      19429
cpu0_DTLB RFO       ACCESS:     148154  HIT:     147413  MISS:        741
cpu0_DTLB PREFETCH  ACCESS:          0  HIT:          0  MISS:          0
cpu0_DTLB WRITEBACK ACCESS:          0  HIT:          0  MISS:          0
cpu0_ITLB TOTAL     ACCESS:    1404487  HIT:    1404487  MISS:          0
cpu0_ITLB LOAD      ACCESS:    1404487  HIT:    1404487  MISS:          0
cpu0_ITLB RFO       ACCESS:          0  HIT:          0  MISS:          0
cpu0_ITLB PREFETCH  ACCESS:          0  HIT:          0  MISS:          0
cpu0_ITLB WRITEBACK ACCESS:          0  HIT:          0  MISS:          0
cpu0_L1I TOTAL     ACCESS:       5155  HIT:       5155  MISS:          0
cpu0_L1I LOAD      ACCESS:       5155  HIT:       5155  MISS:          0
cpu0_L1I RFO       ACCESS:          0  HIT:          0  MISS:          0
cpu0_L1I PREFETCH  ACCESS:          0  HIT:          0  MISS:          0
cpu0_L1I WRITEBACK ACCESS:          0  HIT:          0  MISS:          0
cpu0_STLB TOTAL     ACCESS:      20170  HIT:      14121  MISS:       6049
cpu0_STLB LOAD      ACCESS:      19429  HIT:      13514  MISS:       5915
cpu0_STLB RFO       ACCESS:        741  HIT:        607  MISS:        134
cpu0_STLB PREFETCH  ACCESS:          0  HIT:          0  MISS:          0
cpu0_STLB WRITEBACK ACCESS:          0  HIT:          0  MISS:          0
cpu0_L1D TOTAL     ACCESS:    1741678  HIT:    1513646  MISS:     228032
cpu0_L1D LOAD      ACCESS:    1538197  HIT:    1323446  MISS:     214751
cpu0_L1D RFO       ACCESS:     197743  HIT:     184527  MISS:      13216
cpu0_L1D PREFETCH  ACCESS:          0  HIT:          0  MISS:          0
cpu0_L1D WRITEBACK ACCESS:          0  HIT:          0  MISS:          0
cpu0_L2C TOTAL     ACCESS:     243861  HIT:      43458  MISS:     200403
cpu0_L2C LOAD      ACCESS:     214751  HIT:      26862  MISS:     187889
cpu0_L2C RFO       ACCESS:      13216  HIT:        785  MISS:      12431
cpu0_L2C PREFETCH  ACCESS:          0  HIT:          0  MISS:          0
cpu0_L2C WRITEBACK ACCESS:      15829  HIT:      15780  MISS:         49
LLC TOTAL     ACCESS:     217431  HIT:      48403  MISS:     169028
LLC LOAD      ACCESS:     187889  HIT:      18989  MISS:     168900
LLC RFO       ACCESS:      12431  HIT:      12315  MISS:        116
LLC PREFETCH  ACCESS:          0  HIT:          0  MISS:          0
LLC WRITEBACK ACCESS:      17077  HIT:      17077  MISS:          0
Heartbeat CPU 0 instructions: 68000000 cycles: 33374164 heartbeat IPC: 1.06301 cumulative IPC: 0.882444 (Simulation time: 0 hr 45 min 35 sec) 

Region of Interest Statistics
cpu0_DTLB TOTAL     ACCESS:    3151883  HIT:    3128399  MISS:      23484
cpu0_DTLB LOAD      ACCESS:    2926970  HIT:    2904392  MISS:      22578
cpu0_DTLB RFO       ACCESS:     224913  HIT:     224007  MISS:        906
cpu0_DTLB PREFETCH  ACCESS:          0  HIT:          0  MISS:          0
cpu0_DTLB WRITEBACK ACCESS:          0  HIT:          0  MISS:          0
cpu0_ITLB TOTAL     ACCESS:    1554811  HIT:    1554810  MISS:          1
cpu0_ITLB LOAD      ACCESS:    1554811  HIT:    1554810  MISS:          1
cpu0_ITLB RFO       ACCESS:          0  HIT:          0  MISS:          0
cpu0_ITLB PREFETCH  ACCESS:          0  HIT:          0  MISS:          0
cpu0_ITLB WRITEBACK ACCESS:          0  HIT:          0  MISS:          0
cpu0_L1I TOTAL     ACCESS:      27215  HIT:      27181  MISS:         34
cpu0_L1I LOAD      ACCESS:      27215  HIT:      27181  MISS:         34
cpu0_L1I RFO       ACCESS:          0  HIT:          0  MISS:          0
cpu0_L1I PREFETCH  ACCESS:          0  HIT:          0  MISS:          0
cpu0_L1I WRITEBACK ACCESS:          0  HIT:          0  MISS:          0
cpu0_STLB TOTAL     ACCESS:      23485  HIT:      16659  MISS:       6826
cpu0_STLB LOAD      ACCESS:      22579  HIT:      15911  MISS:       6668
cpu0_STLB RFO       ACCESS:        906  HIT:        748  MISS:        158
cpu0_STLB PREFETCH  ACCESS:          0  HIT:          0  MISS:          0
cpu0_STLB WRITEBACK ACCESS:          0  HIT:          0  MISS:          0
cpu0_L1D TOTAL     ACCESS:    2129388  HIT:    1883292  MISS:     246096
cpu0_L1D LOAD      ACCESS:    1772871  HIT:    1541476  MISS:     231395
cpu0_L1D RFO       ACCESS:     350046  HIT:     335419  MISS:      14627
cpu0_L1D PREFETCH  ACCESS:          0  HIT:          0  MISS:          0
cpu0_L1D WRITEBACK ACCESS:          0  HIT:          0  MISS:          0
cpu0_L2C TOTAL     ACCESS:     264150  HIT:      50424  MISS:     213726
cpu0_L2C LOAD      ACCESS:     231426  HIT:      31300  MISS:     200126
cpu0_L2C RFO       ACCESS:      14627  HIT:       1129  MISS:      13498
cpu0_L2C PREFETCH  ACCESS:          0  HIT:          0  MISS:          0
cpu0_L2C WRITEBACK ACCESS:      18023  HIT:      17962  MISS:         61
LLC TOTAL     ACCESS:     231040  HIT:      51209  MISS:     179831
LLC LOAD      ACCESS:     200126  HIT:      21144  MISS:     178982
LLC RFO       ACCESS:      13498  HIT:      12666  MISS:        832
LLC PREFETCH  ACCESS:          0  HIT:          0  MISS:          0
LLC WRITEBACK ACCESS:      17375  HIT:      17375  MISS:          0
Heartbeat CPU 0 instructions: 70000002 cycles: 35277420 heartbeat IPC: 1.05083 cumulative IPC: 0.896815 (Simulation time: 0 hr 47 min 29 sec) 

Region of Interest Statistics
cpu0_DTLB TOTAL     ACCESS:    3482305  HIT:    3457939  MISS:      24366
cpu0_DTLB LOAD      ACCESS:    3236063  HIT:    3212680  MISS:      23383
cpu0_DTLB RFO       ACCESS:     246242  HIT:     245259  MISS:        983
cpu0_DTLB PREFETCH  ACCESS:          0  HIT:          0  MISS:          0
cpu0_DTLB WRITEBACK ACCESS:          0  HIT:          0  MISS:          0
cpu0_ITLB TOTAL     ACCESS:    1730594  HIT:    1730593  MISS:          1
cpu0_ITLB LOAD      ACCESS:    1730594  HIT:    1730593  MISS:          1
cpu0_ITLB RFO       ACCESS:          0  HIT:          0  MISS:          0
cpu0_ITLB PREFETCH  ACCESS:          0  HIT:          0  MISS:          0
cpu0_ITLB WRITEBACK ACCESS:          0  HIT:          0  MISS:          0
cpu0_L1I TOTAL     ACCESS:      30264  HIT:      30209  MISS:         55
cpu0_L1I LOAD      ACCESS:      30264  HIT:      30209  MISS:         55
cpu0_L1I RFO       ACCESS:          0  HIT:          0  MISS:          0
cpu0_L1I PREFETCH  ACCESS:          0  HIT:          0  MISS:          0
cpu0_L1I WRITEBACK ACCESS:          0  HIT:          0  MISS:          0
cpu0_STLB TOTAL     ACCESS:      24367  HIT:      17202  MISS:       7165
cpu0_STLB LOAD      ACCESS:      23384  HIT:      16408  MISS:       6976
cpu0_STLB RFO       ACCESS:        983  HIT:        794  MISS:        189
cpu0_STLB PREFETCH  ACCESS:          0  HIT:          0  MISS:          0
cpu0_STLB WRITEBACK ACCESS:          0  HIT:          0  MISS:          0
cpu0_L1D TOTAL     ACCESS:    2340931  HIT:    2068229  MISS:     272702
cpu0_L1D LOAD      ACCESS:    1957699  HIT:    1702919  MISS:     254780
cpu0_L1D RFO       ACCESS:     376430  HIT:     358592  MISS:      17838
cpu0_L1D PREFETCH  ACCESS:          0  HIT:          0  MISS:          0
cpu0_L1D WRITEBACK ACCESS:          0  HIT:          0  MISS:          0
cpu0_L2C TOTAL     ACCESS:     294317  HIT:      56606  MISS:     237711
cpu0_L2C LOAD      ACCESS:     254832  HIT:      33678  MISS:     221154
cpu0_L2C RFO       ACCESS:      17838  HIT:       1392  MISS:      16446
cpu0_L2C PREFETCH  ACCESS:          0  HIT:          0  MISS:          0
cpu0_L2C WRITEBACK ACCESS:      21563  HIT:      21495  MISS:         68
LLC TOTAL     ACCESS:     259570  HIT:      60318  MISS:     199252
LLC LOAD      ACCESS:     221154  HIT:      22817  MISS:     198337
LLC RFO       ACCESS:      16446  HIT:      15554  MISS:        892
LLC PREFETCH  ACCESS:          0  HIT:          0  MISS:          0
LLC WRITEBACK ACCESS:      21927  HIT:      21921  MISS:          6
Heartbeat CPU 0 instructions: 72000002 cycles: 37869986 heartbeat IPC: 0.771437 cumulative IPC: 0.883757 (Simulation time: 0 hr 49 min 40 sec) 

Region of Interest Statistics
cpu0_DTLB TOTAL     ACCESS:    3833984  HIT:    3806263  MISS:      27721
cpu0_DTLB LOAD      ACCESS:    3567952  HIT:    3541255  MISS:      26697
cpu0_DTLB RFO       ACCESS:     266032  HIT:     265008  MISS:       1024
cpu0_DTLB PREFETCH  ACCESS:          0  HIT:          0  MISS:          0
cpu0_DTLB WRITEBACK ACCESS:          0  HIT:          0  MISS:          0
cpu0_ITLB TOTAL     ACCESS:    1900900  HIT:    1900899  MISS:          1
cpu0_ITLB LOAD      ACCESS:    1900900  HIT:    1900899  MISS:          1
cpu0_ITLB RFO       ACCESS:          0  HIT:          0  MISS:          0
cpu0_ITLB PREFETCH  ACCESS:          0  HIT:          0  MISS:          0
cpu0_ITLB WRITEBACK ACCESS:          0  HIT:          0  MISS:          0
cpu0_L1I TOTAL     ACCESS:      30297  HIT:      30239  MISS:         58
cpu0_L1I LOAD      ACCESS:      30297  HIT:      30239  MISS:         58
cpu0_L1I RFO       ACCESS:          0  HIT:          0  MISS:          0
cpu0_L1I PREFETCH  ACCESS:          0  HIT:          0  MISS:          0
cpu0_L1I WRITEBACK ACCESS:          0  HIT:          0  MISS:          0
cpu0_STLB TOTAL     ACCESS:      27722  HIT:      19560  MISS:       8162
cpu0_STLB LOAD      ACCESS:      26698  HIT:      18730  MISS:       7968
cpu0_STLB RFO       ACCESS:       1024  HIT:        830  MISS:        194
cpu0_STLB PREFETCH  ACCESS:          0  HIT:          0  MISS:          0
cpu0_STLB WRITEBACK ACCESS:          0  HIT:          0  MISS:          0
cpu0_L1D TOTAL     ACCESS:    2567791  HIT:    2265856  MISS:     301935
cpu0_L1D LOAD      ACCESS:    2153685  HIT:    1870407  MISS:     283278
cpu0_L1D RFO       ACCESS:     406373  HIT:     387806  MISS:      18567
cpu0_L1D PREFETCH  ACCESS:          0  HIT:          0  MISS:          0
cpu0_L1D WRITEBACK ACCESS:          0  HIT:          0  MISS:          0
cpu0_L2C TOTAL     ACCESS:     324291  HIT:      61272  MISS:     263019
cpu0_L2C LOAD      ACCESS:     283333  HIT:      37604  MISS:     245729
cpu0_L2C RFO       ACCESS:      18567  HIT:       1392  MISS:      17175
cpu0_L2C PREFETCH  ACCESS:          0  HIT:          0  MISS:          0
cpu0_L2C WRITEBACK ACCESS:      22301  HIT:      22232  MISS:         69
LLC TOTAL     ACCESS:     285722  HIT:      64168  MISS:     221554
LLC LOAD      ACCESS:     245729  HIT:      25095  MISS:     220634
LLC RFO       ACCESS:      17175  HIT:      16280  MISS:        895
LLC PREFETCH  ACCESS:          0  HIT:          0  MISS:          0
LLC WRITEBACK ACCESS:      22772  HIT:      22764  MISS:          8
Heartbeat CPU 0 instructions: 74000002 cycles: 39964703 heartbeat IPC: 0.954783 cumulative IPC: 0.88927 (Simulation time: 0 hr 51 min 40 sec) 

Region of Interest Statistics
cpu0_DTLB TOTAL     ACCESS:    4181464  HIT:    4151115  MISS:      30349
cpu0_DTLB LOAD      ACCESS:    3895191  HIT:    3866089  MISS:      29102
cpu0_DTLB RFO       ACCESS:     286273  HIT:     285026  MISS:       1247
cpu0_DTLB PREFETCH  ACCESS:          0  HIT:          0  MISS:          0
cpu0_DTLB WRITEBACK ACCESS:          0  HIT:          0  MISS:          0
cpu0_ITLB TOTAL     ACCESS:    2077565  HIT:    2077564  MISS:          1
cpu0_ITLB LOAD      ACCESS:    2077565  HIT:    2077564  MISS:          1
cpu0_ITLB RFO       ACCESS:          0  HIT:          0  MISS:          0
cpu0_ITLB PREFETCH  ACCESS:          0  HIT:          0  MISS:          0
cpu0_ITLB WRITEBACK ACCESS:          0  HIT:          0  MISS:          0
cpu0_L1I TOTAL     ACCESS:      31799  HIT:      31728  MISS:         71
cpu0_L1I LOAD      ACCESS:      31799  HIT:      31728  MISS:         71
cpu0_L1I RFO       ACCESS:          0  HIT:          0  MISS:          0
cpu0_L1I PREFETCH  ACCESS:          0  HIT:          0  MISS:          0
cpu0_L1I WRITEBACK ACCESS:          0  HIT:          0  MISS:          0
cpu0_STLB TOTAL     ACCESS:      30350  HIT:      21475  MISS:       8875
cpu0_STLB LOAD      ACCESS:      29103  HIT:      20466  MISS:       8637
cpu0_STLB RFO       ACCESS:       1247  HIT:       1009  MISS:        238
cpu0_STLB PREFETCH  ACCESS:          0  HIT:          0  MISS:          0
cpu0_STLB WRITEBACK ACCESS:          0  HIT:          0  MISS:          0
cpu0_L1D TOTAL     ACCESS:    2782791  HIT:    2451948  MISS:     330843
cpu0_L1D LOAD      ACCESS:    2343566  HIT:    2034557  MISS:     309009
cpu0_L1D RFO       ACCESS:     430803  HIT:     409072  MISS:      21731
cpu0_L1D PREFETCH  ACCESS:          0  HIT:          0  MISS:          0
cpu0_L1D WRITEBACK ACCESS:          0  HIT:          0  MISS:          0
cpu0_L2C TOTAL     ACCESS:     357435  HIT:      70153  MISS:     287282
cpu0_L2C LOAD      ACCESS:     309075  HIT:      41994  MISS:     267081
cpu0_L2C RFO       ACCESS:      21731  HIT:       1667  MISS:      20064
cpu0_L2C PREFETCH  ACCESS:          0  HIT:          0  MISS:          0
cpu0_L2C WRITEBACK ACCESS:      26526  HIT:      26442  MISS:         84
LLC TOTAL     ACCESS:     313019  HIT:      73029  MISS:     239990
LLC LOAD      ACCESS:     267081  HIT:      28040  MISS:     239041
LLC RFO       ACCESS:      20064  HIT:      19144  MISS:        920
LLC PREFETCH  ACCESS:          0  HIT:          0  MISS:          0
LLC WRITEBACK ACCESS:      25821  HIT:      25813  MISS:          8
Heartbeat CPU 0 instructions: 76000003 cycles: 42427477 heartbeat IPC: 0.812093 cumulative IPC: 0.882816 (Simulation time: 0 hr 53 min 49 sec) 

Region of Interest Statistics
cpu0_DTLB TOTAL     ACCESS:    4520711  HIT:    4488375  MISS:      32336
cpu0_DTLB LOAD      ACCESS:    4217417  HIT:    4186364  MISS:      31053
cpu0_DTLB RFO       ACCESS:     303294  HIT:     302011  MISS:       1283
cpu0_DTLB PREFETCH  ACCESS:          0  HIT:          0  MISS:          0
cpu0_DTLB WRITEBACK ACCESS:          0  HIT:          0  MISS:          0
cpu0_ITLB TOTAL     ACCESS:    2256447  HIT:    2256446  MISS:          1
cpu0_ITLB LOAD      ACCESS:    2256447  HIT:    2256446  MISS:          1
cpu0_ITLB RFO       ACCESS:          0  HIT:          0  MISS:          0
cpu0_ITLB PREFETCH  ACCESS:          0  HIT:          0  MISS:          0
cpu0_ITLB WRITEBACK ACCESS:          0  HIT:          0  MISS:          0
cpu0_L1I TOTAL     ACCESS:      31847  HIT:      31776  MISS:         71
cpu0_L1I LOAD      ACCESS:      31847  HIT:      31776  MISS:         71
cpu0_L1I RFO       ACCESS:          0  HIT:          0  MISS:          0
cpu0_L1I PREFETCH  ACCESS:          0  HIT:          0  MISS:          0
cpu0_L1I WRITEBACK ACCESS:          0  HIT:          0  MISS:          0
cpu0_STLB TOTAL     ACCESS:      32337  HIT:      22697  MISS:       9640
cpu0_STLB LOAD      ACCESS:      31054  HIT:      21655  MISS:       9399
cpu0_STLB RFO       ACCESS:       1283  HIT:       1042  MISS:        241
cpu0_STLB PREFETCH  ACCESS:          0  HIT:          0  MISS:          0
cpu0_STLB WRITEBACK ACCESS:          0  HIT:          0  MISS:          0
cpu0_L1D TOTAL     ACCESS:    2998952  HIT:    2639683  MISS:     359269
cpu0_L1D LOAD      ACCESS:    2535288  HIT:    2198631  MISS:     336657
cpu0_L1D RFO       ACCESS:     454521  HIT:     432017  MISS:      22504
cpu0_L1D PREFETCH  ACCESS:          0  HIT:          0  MISS:          0
cpu0_L1D WRITEBACK ACCESS:          0  HIT:          0  MISS:          0
cpu0_L2C TOTAL     ACCESS:     386656  HIT:      73322  MISS:     313334
cpu0_L2C LOAD      ACCESS:     336723  HIT:      44367  MISS:     292356
cpu0_L2C RFO       ACCESS:      22504  HIT:       1667  MISS:      20837
cpu0_L2C PREFETCH  ACCESS:          0  HIT:          0  MISS:          0
cpu0_L2C WRITEBACK ACCESS:      27321  HIT:      27236  MISS:         85
LLC TOTAL     ACCESS:     340595  HIT:      77368  MISS:     263227
LLC LOAD      ACCESS:     292356  HIT:      30079  MISS:     262277
LLC RFO       ACCESS:      20837  HIT:      19916  MISS:        921
LLC PREFETCH  ACCESS:          0  HIT:          0  MISS:          0
LLC WRITEBACK ACCESS:      27346  HIT:      27338  MISS:          8
Heartbeat CPU 0 instructions: 78000001 cycles: 44682762 heartbeat IPC: 0.886805 cumulative IPC: 0.8831 (Simulation time: 0 hr 55 min 56 sec) 

Region of Interest Statistics
cpu0_DTLB TOTAL     ACCESS:    4877403  HIT:    4841184  MISS:      36219
cpu0_DTLB LOAD      ACCESS:    4551159  HIT:    4516447  MISS:      34712
cpu0_DTLB RFO       ACCESS:     326244  HIT:     324737  MISS:       1507
cpu0_DTLB PREFETCH  ACCESS:          0  HIT:          0  MISS:          0
cpu0_DTLB WRITEBACK ACCESS:          0  HIT:          0  MISS:          0
cpu0_ITLB TOTAL     ACCESS:    2426078  HIT:    2426077  MISS:          1
cpu0_ITLB LOAD      ACCESS:    2426078  HIT:    2426077  MISS:          1
cpu0_ITLB RFO       ACCESS:          0  HIT:          0  MISS:          0
cpu0_ITLB PREFETCH  ACCESS:          0  HIT:          0  MISS:          0
cpu0_ITLB WRITEBACK ACCESS:          0  HIT:          0  MISS:          0
cpu0_L1I TOTAL     ACCESS:      33550  HIT:      33479  MISS:         71
cpu0_L1I LOAD      ACCESS:      33550  HIT:      33479  MISS:         71
cpu0_L1I RFO       ACCESS:          0  HIT:          0  MISS:          0
cpu0_L1I PREFETCH  ACCESS:          0  HIT:          0  MISS:          0
cpu0_L1I WRITEBACK ACCESS:          0  HIT:          0  MISS:          0
cpu0_STLB TOTAL     ACCESS:      36220  HIT:      25641  MISS:      10579
cpu0_STLB LOAD      ACCESS:      34713  HIT:      24418  MISS:      10295
cpu0_STLB RFO       ACCESS:       1507  HIT:       1223  MISS:        284
cpu0_STLB PREFETCH  ACCESS:          0  HIT:          0  MISS:          0
cpu0_STLB WRITEBACK ACCESS:          0  HIT:          0  MISS:          0
cpu0_L1D TOTAL     ACCESS:    3225816  HIT:    2836608  MISS:     389208
cpu0_L1D LOAD      ACCESS:    2730778  HIT:    2367343  MISS:     363435
cpu0_L1D RFO       ACCESS:     485004  HIT:     459352  MISS:      25652
cpu0_L1D PREFETCH  ACCESS:          0  HIT:          0  MISS:          0
cpu0_L1D WRITEBACK ACCESS:          0  HIT:          0  MISS:          0
cpu0_L2C TOTAL     ACCESS:     420742  HIT:      83650  MISS:     337092
cpu0_L2C LOAD      ACCESS:     363499  HIT:      50290  MISS:     313209
cpu0_L2C RFO       ACCESS:      25652  HIT:       1931  MISS:      23721
cpu0_L2C PREFETCH  ACCESS:          0  HIT:          0  MISS:          0
cpu0_L2C WRITEBACK ACCESS:      31470  HIT:      31371  MISS:         99
LLC TOTAL     ACCESS:     365770  HIT:      84770  MISS:     281000
LLC LOAD      ACCESS:     313209  HIT:      33184  MISS:     280025
LLC RFO       ACCESS:      23721  HIT:      22779  MISS:        942
LLC PREFETCH  ACCESS:          0  HIT:          0  MISS:          0
LLC WRITEBACK ACCESS:      28777  HIT:      28769  MISS:          8
Heartbeat CPU 0 instructions: 80000003 cycles: 46917552 heartbeat IPC: 0.89494 cumulative IPC: 0.88388 (Simulation time: 0 hr 57 min 58 sec) 

Region of Interest Statistics
cpu0_DTLB TOTAL     ACCESS:    5207554  HIT:    5170288  MISS:      37266
cpu0_DTLB LOAD      ACCESS:    4867151  HIT:    4831420  MISS:      35731
cpu0_DTLB RFO       ACCESS:     340403  HIT:     338868  MISS:       1535
cpu0_DTLB PREFETCH  ACCESS:          0  HIT:          0  MISS:          0
cpu0_DTLB WRITEBACK ACCESS:          0  HIT:          0  MISS:          0
cpu0_ITLB TOTAL     ACCESS:    2610240  HIT:    2610239  MISS:          1
cpu0_ITLB LOAD      ACCESS:    2610240  HIT:    2610239  MISS:          1
cpu0_ITLB RFO       ACCESS:          0  HIT:          0  MISS:          0
cpu0_ITLB PREFETCH  ACCESS:          0  HIT:          0  MISS:          0
cpu0_ITLB WRITEBACK ACCESS:          0  HIT:          0  MISS:          0
cpu0_L1I TOTAL     ACCESS:      33598  HIT:      33527  MISS:         71
cpu0_L1I LOAD      ACCESS:      33598  HIT:      33527  MISS:         71
cpu0_L1I RFO       ACCESS:          0  HIT:          0  MISS:          0
cpu0_L1I PREFETCH  ACCESS:          0  HIT:          0  MISS:          0
cpu0_L1I WRITEBACK ACCESS:          0  HIT:          0  MISS:          0
cpu0_STLB TOTAL     ACCESS:      37267  HIT:      26183  MISS:      11084
cpu0_STLB LOAD      ACCESS:      35732  HIT:      24933  MISS:      10799
cpu0_STLB RFO       ACCESS:       1535  HIT:       1250  MISS:        285
cpu0_STLB PREFETCH  ACCESS:          0  HIT:          0  MISS:          0
cpu0_STLB WRITEBACK ACCESS:          0  HIT:          0  MISS:          0
cpu0_L1D TOTAL     ACCESS:    3430202  HIT:    3014048  MISS:     416154
cpu0_L1D LOAD      ACCESS:    2917684  HIT:    2528107  MISS:     389577
cpu0_L1D RFO       ACCESS:     502003  HIT:     475551  MISS:      26452
cpu0_L1D PREFETCH  ACCESS:          0  HIT:          0  MISS:          0
cpu0_L1D WRITEBACK ACCESS:          0  HIT:          0  MISS:          0
cpu0_L2C TOTAL     ACCESS:     448515  HIT:      85184  MISS:     363331
cpu0_L2C LOAD      ACCESS:     389641  HIT:      50997  MISS:     338644
cpu0_L2C RFO       ACCESS:      26452  HIT:       1931  MISS:      24521
cpu0_L2C PREFETCH  ACCESS:          0  HIT:          0  MISS:          0
cpu0_L2C WRITEBACK ACCESS:      32297  HIT:      32197  MISS:        100
LLC TOTAL     ACCESS:     395171  HIT:      90640  MISS:     304531
LLC LOAD      ACCESS:     338644  HIT:      35089  MISS:     303555
LLC RFO       ACCESS:      24521  HIT:      23578  MISS:        943
LLC PREFETCH  ACCESS:          0  HIT:          0  MISS:          0
LLC WRITEBACK ACCESS:      31940  HIT:      31932  MISS:          8
Heartbeat CPU 0 instructions: 82000000 cycles: 49568320 heartbeat IPC: 0.754497 cumulative IPC: 0.874507 (Simulation time: 1 hr 0 min 14 sec) 

Region of Interest Statistics
cpu0_DTLB TOTAL     ACCESS:    5572665  HIT:    5530650  MISS:      42015
cpu0_DTLB LOAD      ACCESS:    5211626  HIT:    5171314  MISS:      40312
cpu0_DTLB RFO       ACCESS:     361039  HIT:     359336  MISS:       1703
cpu0_DTLB PREFETCH  ACCESS:          0  HIT:          0  MISS:          0
cpu0_DTLB WRITEBACK ACCESS:          0  HIT:          0  MISS:          0
cpu0_ITLB TOTAL     ACCESS:    2767927  HIT:    2767926  MISS:          1
cpu0_ITLB LOAD      ACCESS:    2767927  HIT:    2767926  MISS:          1
cpu0_ITLB RFO       ACCESS:          0  HIT:          0  MISS:          0
cpu0_ITLB PREFETCH  ACCESS:          0  HIT:          0  MISS:          0
cpu0_ITLB WRITEBACK ACCESS:          0  HIT:          0  MISS:          0
cpu0_L1I TOTAL     ACCESS:      34818  HIT:      34747  MISS:         71
cpu0_L1I LOAD      ACCESS:      34818  HIT:      34747  MISS:         71
cpu0_L1I RFO       ACCESS:          0  HIT:          0  MISS:          0
cpu0_L1I PREFETCH  ACCESS:          0  HIT:          0  MISS:          0
cpu0_L1I WRITEBACK ACCESS:          0  HIT:          0  MISS:          0
cpu0_STLB TOTAL     ACCESS:      42016  HIT:      29766  MISS:      12250
cpu0_STLB LOAD      ACCESS:      40313  HIT:      28360  MISS:      11953
cpu0_STLB RFO       ACCESS:       1703  HIT:       1406  MISS:        297
cpu0_STLB PREFETCH  ACCESS:          0  HIT:          0  MISS:          0
cpu0_STLB WRITEBACK ACCESS:          0  HIT:          0  MISS:          0
cpu0_L1D TOTAL     ACCESS:    3670237  HIT:    3225045  MISS:     445192
cpu0_L1D LOAD      ACCESS:    3121429  HIT:    2703370  MISS:     418059
cpu0_L1D RFO       ACCESS:     537198  HIT:     510201  MISS:      26997
cpu0_L1D PREFETCH  ACCESS:          0  HIT:          0  MISS:          0
cpu0_L1D WRITEBACK ACCESS:          0  HIT:          0  MISS:          0
cpu0_L2C TOTAL     ACCESS:     478976  HIT:      91820  MISS:     387156
cpu0_L2C LOAD      ACCESS:     418122  HIT:      56206  MISS:     361916
cpu0_L2C RFO       ACCESS:      26997  HIT:       1943  MISS:      25054
cpu0_L2C PREFETCH  ACCESS:          0  HIT:          0  MISS:          0
cpu0_L2C WRITEBACK ACCESS:      33721  HIT:      33609  MISS:        112
LLC TOTAL     ACCESS:     419649  HIT:      95076  MISS:     324573
LLC LOAD      ACCESS:     361916  HIT:      38329  MISS:     323587
LLC RFO       ACCESS:      25054  HIT:      24105  MISS:        949
LLC PREFETCH  ACCESS:          0  HIT:          0  MISS:          0
LLC WRITEBACK ACCESS:      32605  HIT:      32597  MISS:          8
Heartbeat CPU 0 instructions: 84000003 cycles: 51502776 heartbeat IPC: 1.03388 cumulative IPC: 0.882509 (Simulation time: 1 hr 2 min 5 sec) 

Region of Interest Statistics
cpu0_DTLB TOTAL     ACCESS:    5901610  HIT:    5858813  MISS:      42797
cpu0_DTLB LOAD      ACCESS:    5523526  HIT:    5482519  MISS:      41007
cpu0_DTLB RFO       ACCESS:     378084  HIT:     376294  MISS:       1790
cpu0_DTLB PREFETCH  ACCESS:          0  HIT:          0  MISS:          0
cpu0_DTLB WRITEBACK ACCESS:          0  HIT:          0  MISS:          0
cpu0_ITLB TOTAL     ACCESS:    2960012  HIT:    2960011  MISS:          1
cpu0_ITLB LOAD      ACCESS:    2960012  HIT:    2960011  MISS:          1
cpu0_ITLB RFO       ACCESS:          0  HIT:          0  MISS:          0
cpu0_ITLB PREFETCH  ACCESS:          0  HIT:          0  MISS:          0
cpu0_ITLB WRITEBACK ACCESS:          0  HIT:          0  MISS:          0
cpu0_L1I TOTAL     ACCESS:      35321  HIT:      35250  MISS:         71
cpu0_L1I LOAD      ACCESS:      35321  HIT:      35250  MISS:         71
cpu0_L1I RFO       ACCESS:          0  HIT:          0  MISS:          0
cpu0_L1I PREFETCH  ACCESS:          0  HIT:          0  MISS:          0
cpu0_L1I WRITEBACK ACCESS:          0  HIT:          0  MISS:          0
cpu0_STLB TOTAL     ACCESS:      42798  HIT:      30184  MISS:      12614
cpu0_STLB LOAD      ACCESS:      41008  HIT:      28721  MISS:      12287
cpu0_STLB RFO       ACCESS:       1790  HIT:       1463  MISS:        327
cpu0_STLB PREFETCH  ACCESS:          0  HIT:          0  MISS:          0
cpu0_STLB WRITEBACK ACCESS:          0  HIT:          0  MISS:          0
cpu0_L1D TOTAL     ACCESS:    3865827  HIT:    3392596  MISS:     473231
cpu0_L1D LOAD      ACCESS:    3302019  HIT:    2859236  MISS:     442783
cpu0_L1D RFO       ACCESS:     551843  HIT:     521535  MISS:      30308
cpu0_L1D PREFETCH  ACCESS:          0  HIT:          0  MISS:          0
cpu0_L1D WRITEBACK ACCESS:          0  HIT:          0  MISS:          0
cpu0_L2C TOTAL     ACCESS:     510458  HIT:      97959  MISS:     412499
cpu0_L2C LOAD      ACCESS:     442846  HIT:      58667  MISS:     384179
cpu0_L2C RFO       ACCESS:      30308  HIT:       2177  MISS:      28131
cpu0_L2C PREFETCH  ACCESS:          0  HIT:          0  MISS:          0
cpu0_L2C WRITEBACK ACCESS:      37164  HIT:      37049  MISS:        115
LLC TOTAL     ACCESS:     448879  HIT:     103466  MISS:     345413
LLC LOAD      ACCESS:     384179  HIT:      39779  MISS:     344400
LLC RFO       ACCESS:      28131  HIT:      27155  MISS:        976
LLC PREFETCH  ACCESS:          0  HIT:          0  MISS:          0
LLC WRITEBACK ACCESS:      36495  HIT:      36487  MISS:          8
Heartbeat CPU 0 instructions: 86000003 cycles: 54222100 heartbeat IPC: 0.735477 cumulative IPC: 0.872816 (Simulation time: 1 hr 4 min 21 sec) 

Region of Interest Statistics
cpu0_DTLB TOTAL     ACCESS:    6264748  HIT:    6217532  MISS:      47216
cpu0_DTLB LOAD      ACCESS:    5865809  HIT:    5820442  MISS:      45367
cpu0_DTLB RFO       ACCESS:     398939  HIT:     397090  MISS:       1849
cpu0_DTLB PREFETCH  ACCESS:          0  HIT:          0  MISS:          0
cpu0_DTLB WRITEBACK ACCESS:          0  HIT:          0  MISS:          0
cpu0_ITLB TOTAL     ACCESS:    3123797  HIT:    3123796  MISS:          1
cpu0_ITLB LOAD      ACCESS:    3123797  HIT:    3123796  MISS:          1
cpu0_ITLB RFO       ACCESS:          0  HIT:          0  MISS:          0
cpu0_ITLB PREFETCH  ACCESS:          0  HIT:          0  MISS:          0
cpu0_ITLB WRITEBACK ACCESS:          0  HIT:          0  MISS:          0
cpu0_L1I TOTAL     ACCESS:      35340  HIT:      35269  MISS:         71
cpu0_L1I LOAD      ACCESS:      35340  HIT:      35269  MISS:         71
cpu0_L1I RFO       ACCESS:          0  HIT:          0  MISS:          0
cpu0_L1I PREFETCH  ACCESS:          0  HIT:          0  MISS:          0
cpu0_L1I WRITEBACK ACCESS:          0  HIT:          0  MISS:          0
cpu0_STLB TOTAL     ACCESS:      47217  HIT:      33573  MISS:      13644
cpu0_STLB LOAD      ACCESS:      45368  HIT:      32057  MISS:      13311
cpu0_STLB RFO       ACCESS:       1849  HIT:       1516  MISS:        333
cpu0_STLB PREFETCH  ACCESS:          0  HIT:          0  MISS:          0
cpu0_STLB WRITEBACK ACCESS:          0  HIT:          0  MISS:          0
cpu0_L1D TOTAL     ACCESS:    4100764  HIT:    3598582  MISS:     502182
cpu0_L1D LOAD      ACCESS:    3503028  HIT:    3031912  MISS:     471116
cpu0_L1D RFO       ACCESS:     584813  HIT:     553894  MISS:      30919
cpu0_L1D PREFETCH  ACCESS:          0  HIT:          0  MISS:          0
cpu0_L1D WRITEBACK ACCESS:          0  HIT:          0  MISS:          0
cpu0_L2C TOTAL     ACCESS:     540044  HIT:     103387  MISS:     436657
cpu0_L2C LOAD      ACCESS:     471179  HIT:      63458  MISS:     407721
cpu0_L2C RFO       ACCESS:      30919  HIT:       2177  MISS:      28742
cpu0_L2C PREFETCH  ACCESS:          0  HIT:          0  MISS:          0
cpu0_L2C WRITEBACK ACCESS:      37799  HIT:      37683  MISS:        116
LLC TOTAL     ACCESS:     473600  HIT:     107215  MISS:     366385
LLC LOAD      ACCESS:     407721  HIT:      42353  MISS:     365368
LLC RFO       ACCESS:      28742  HIT:      27762  MISS:        980
LLC PREFETCH  ACCESS:          0  HIT:          0  MISS:          0
LLC WRITEBACK ACCESS:      37059  HIT:      37051  MISS:          8
Heartbeat CPU 0 instructions: 88000000 cycles: 56237214 heartbeat IPC: 0.992498 cumulative IPC: 0.87839 (Simulation time: 1 hr 6 min 20 sec) 

Region of Interest Statistics
cpu0_DTLB TOTAL     ACCESS:    6606491  HIT:    6557302  MISS:      49189
cpu0_DTLB LOAD      ACCESS:    6188464  HIT:    6141344  MISS:      47120
cpu0_DTLB RFO       ACCESS:     418027  HIT:     415958  MISS:       2069
cpu0_DTLB PREFETCH  ACCESS:          0  HIT:          0  MISS:          0
cpu0_DTLB WRITEBACK ACCESS:          0  HIT:          0  MISS:          0
cpu0_ITLB TOTAL     ACCESS:    3302932  HIT:    3302931  MISS:          1
cpu0_ITLB LOAD      ACCESS:    3302932  HIT:    3302931  MISS:          1
cpu0_ITLB RFO       ACCESS:          0  HIT:          0  MISS:          0
cpu0_ITLB PREFETCH  ACCESS:          0  HIT:          0  MISS:          0
cpu0_ITLB WRITEBACK ACCESS:          0  HIT:          0  MISS:          0
cpu0_L1I TOTAL     ACCESS:      37377  HIT:      37306  MISS:         71
cpu0_L1I LOAD      ACCESS:      37377  HIT:      37306  MISS:         71
cpu0_L1I RFO       ACCESS:          0  HIT:          0  MISS:          0
cpu0_L1I PREFETCH  ACCESS:          0  HIT:          0  MISS:          0
cpu0_L1I WRITEBACK ACCESS:          0  HIT:          0  MISS:          0
cpu0_STLB TOTAL     ACCESS:      49190  HIT:      34934  MISS:      14256
cpu0_STLB LOAD      ACCESS:      47121  HIT:      33238  MISS:      13883
cpu0_STLB RFO       ACCESS:       2069  HIT:       1696  MISS:        373
cpu0_STLB PREFETCH  ACCESS:          0  HIT:          0  MISS:          0
cpu0_STLB WRITEBACK ACCESS:          0  HIT:          0  MISS:          0
cpu0_L1D TOTAL     ACCESS:    4312816  HIT:    3781846  MISS:     530970
cpu0_L1D LOAD      ACCESS:    3692417  HIT:    3195697  MISS:     496720
cpu0_L1D RFO       ACCESS:     606882  HIT:     572792  MISS:      34090
cpu0_L1D PREFETCH  ACCESS:          0  HIT:          0  MISS:          0
cpu0_L1D WRITEBACK ACCESS:          0  HIT:          0  MISS:          0
cpu0_L2C TOTAL     ACCESS:     573102  HIT:     111743  MISS:     461359
cpu0_L2C LOAD      ACCESS:     496781  HIT:      67308  MISS:     429473
cpu0_L2C RFO       ACCESS:      34090  HIT:       2420  MISS:      31670
cpu0_L2C PREFETCH  ACCESS:          0  HIT:          0  MISS:          0
cpu0_L2C WRITEBACK ACCESS:      42071  HIT:      41940  MISS:        131
LLC TOTAL     ACCESS:     501906  HIT:     116671  MISS:     385235
LLC LOAD      ACCESS:     429473  HIT:      45297  MISS:     384176
LLC RFO       ACCESS:      31670  HIT:      30653  MISS:       1017
LLC PREFETCH  ACCESS:          0  HIT:          0  MISS:          0
LLC WRITEBACK ACCESS:      40678  HIT:      40669  MISS:          9
Heartbeat CPU 0 instructions: 90000002 cycles: 58703070 heartbeat IPC: 0.811078 cumulative IPC: 0.874761 (Simulation time: 1 hr 8 min 25 sec) 

Region of Interest Statistics
cpu0_DTLB TOTAL     ACCESS:    6950394  HIT:    6899153  MISS:      51241
cpu0_DTLB LOAD      ACCESS:    6515261  HIT:    6466127  MISS:      49134
cpu0_DTLB RFO       ACCESS:     435133  HIT:     433026  MISS:       2107
cpu0_DTLB PREFETCH  ACCESS:          0  HIT:          0  MISS:          0
cpu0_DTLB WRITEBACK ACCESS:          0  HIT:          0  MISS:          0
cpu0_ITLB TOTAL     ACCESS:    3478032  HIT:    3478031  MISS:          1
cpu0_ITLB LOAD      ACCESS:    3478032  HIT:    3478031  MISS:          1
cpu0_ITLB RFO       ACCESS:          0  HIT:          0  MISS:          0
cpu0_ITLB PREFETCH  ACCESS:          0  HIT:          0  MISS:          0
cpu0_ITLB WRITEBACK ACCESS:          0  HIT:          0  MISS:          0
cpu0_L1I TOTAL     ACCESS:      37410  HIT:      37339  MISS:         71
cpu0_L1I LOAD      ACCESS:      37410  HIT:      37339  MISS:         71
cpu0_L1I RFO       ACCESS:          0  HIT:          0  MISS:          0
cpu0_L1I PREFETCH  ACCESS:          0  HIT:          0  MISS:          0
cpu0_L1I WRITEBACK ACCESS:          0  HIT:          0  MISS:          0
cpu0_STLB TOTAL     ACCESS:      51242  HIT:      36256  MISS:      14986
cpu0_STLB LOAD      ACCESS:      49135  HIT:      34525  MISS:      14610
cpu0_STLB RFO       ACCESS:       2107  HIT:       1731  MISS:        376
cpu0_STLB PREFETCH  ACCESS:          0  HIT:          0  MISS:          0
cpu0_STLB WRITEBACK ACCESS:          0  HIT:          0  MISS:          0
cpu0_L1D TOTAL     ACCESS:    4528355  HIT:    3969603  MISS:     558752
cpu0_L1D LOAD      ACCESS:    3883212  HIT:    3359403  MISS:     523809
cpu0_L1D RFO       ACCESS:     630936  HIT:     596159  MISS:      34777
cpu0_L1D PREFETCH  ACCESS:          0  HIT:          0  MISS:          0
cpu0_L1D WRITEBACK ACCESS:          0  HIT:          0  MISS:          0
cpu0_L2C TOTAL     ACCESS:     601593  HIT:     114935  MISS:     486658
cpu0_L2C LOAD      ACCESS:     523870  HIT:      69789  MISS:     454081
cpu0_L2C RFO       ACCESS:      34777  HIT:       2420  MISS:      32357
cpu0_L2C PREFETCH  ACCESS:          0  HIT:          0  MISS:          0
cpu0_L2C WRITEBACK ACCESS:      42780  HIT:      42648  MISS:        132
LLC TOTAL     ACCESS:     528187  HIT:     120477  MISS:     407710
LLC LOAD      ACCESS:     454081  HIT:      47432  MISS:     406649
LLC RFO       ACCESS:      32357  HIT:      31338  MISS:       1019
LLC PREFETCH  ACCESS:          0  HIT:          0  MISS:          0
LLC WRITEBACK ACCESS:      41661  HIT:      41652  MISS:          9
Heartbeat CPU 0 instructions: 92000001 cycles: 60989483 heartbeat IPC: 0.874732 cumulative IPC: 0.874759 (Simulation time: 1 hr 10 min 29 sec) 

Region of Interest Statistics
cpu0_DTLB TOTAL     ACCESS:    7310456  HIT:    7254904  MISS:      55552
cpu0_DTLB LOAD      ACCESS:    6852239  HIT:    6799040  MISS:      53199
cpu0_DTLB RFO       ACCESS:     458217  HIT:     455864  MISS:       2353
cpu0_DTLB PREFETCH  ACCESS:          0  HIT:          0  MISS:          0
cpu0_DTLB WRITEBACK ACCESS:          0  HIT:          0  MISS:          0
cpu0_ITLB TOTAL     ACCESS:    3645706  HIT:    3645705  MISS:          1
cpu0_ITLB LOAD      ACCESS:    3645706  HIT:    3645705  MISS:          1
cpu0_ITLB RFO       ACCESS:          0  HIT:          0  MISS:          0
cpu0_ITLB PREFETCH  ACCESS:          0  HIT:          0  MISS:          0
cpu0_ITLB WRITEBACK ACCESS:          0  HIT:          0  MISS:          0
cpu0_L1I TOTAL     ACCESS:      39180  HIT:      39109  MISS:         71
cpu0_L1I LOAD      ACCESS:      39180  HIT:      39109  MISS:         71
cpu0_L1I RFO       ACCESS:          0  HIT:          0  MISS:          0
cpu0_L1I PREFETCH  ACCESS:          0  HIT:          0  MISS:          0
cpu0_L1I WRITEBACK ACCESS:          0  HIT:          0  MISS:          0
cpu0_STLB TOTAL     ACCESS:      55553  HIT:      39640  MISS:      15913
cpu0_STLB LOAD      ACCESS:      53200  HIT:      37705  MISS:      15495
cpu0_STLB RFO       ACCESS:       2353  HIT:       1935  MISS:        418
cpu0_STLB PREFETCH  ACCESS:          0  HIT:          0  MISS:          0
cpu0_STLB WRITEBACK ACCESS:          0  HIT:          0  MISS:          0
cpu0_L1D TOTAL     ACCESS:    4756315  HIT:    4167673  MISS:     588642
cpu0_L1D LOAD      ACCESS:    4079196  HIT:    3528604  MISS:     550592
cpu0_L1D RFO       ACCESS:     662035  HIT:     624166  MISS:      37869
cpu0_L1D PREFETCH  ACCESS:          0  HIT:          0  MISS:          0
cpu0_L1D WRITEBACK ACCESS:          0  HIT:          0  MISS:          0
cpu0_L2C TOTAL     ACCESS:     635660  HIT:     125514  MISS:     510146
cpu0_L2C LOAD      ACCESS:     550651  HIT:      75954  MISS:     474697
cpu0_L2C RFO       ACCESS:      37869  HIT:       2662  MISS:      35207
cpu0_L2C PREFETCH  ACCESS:          0  HIT:          0  MISS:          0
cpu0_L2C WRITEBACK ACCESS:      46959  HIT:      46812  MISS:        147
LLC TOTAL     ACCESS:     552851  HIT:     127966  MISS:     424885
LLC LOAD      ACCESS:     474697  HIT:      50918  MISS:     423779
LLC RFO       ACCESS:      35207  HIT:      34147  MISS:       1060
LLC PREFETCH  ACCESS:          0  HIT:          0  MISS:          0
LLC WRITEBACK ACCESS:      42852  HIT:      42843  MISS:          9
Heartbeat CPU 0 instructions: 94000001 cycles: 63143472 heartbeat IPC: 0.92851 cumulative IPC: 0.877067 (Simulation time: 1 hr 12 min 29 sec) 

Region of Interest Statistics
cpu0_DTLB TOTAL     ACCESS:    7637835  HIT:    7581564  MISS:      56271
cpu0_DTLB LOAD      ACCESS:    7166160  HIT:    7112257  MISS:      53903
cpu0_DTLB RFO       ACCESS:     471675  HIT:     469307  MISS:       2368
cpu0_DTLB PREFETCH  ACCESS:          0  HIT:          0  MISS:          0
cpu0_DTLB WRITEBACK ACCESS:          0  HIT:          0  MISS:          0
cpu0_ITLB TOTAL     ACCESS:    3831535  HIT:    3831534  MISS:          1
cpu0_ITLB LOAD      ACCESS:    3831535  HIT:    3831534  MISS:          1
cpu0_ITLB RFO       ACCESS:          0  HIT:          0  MISS:          0
cpu0_ITLB PREFETCH  ACCESS:          0  HIT:          0  MISS:          0
cpu0_ITLB WRITEBACK ACCESS:          0  HIT:          0  MISS:          0
cpu0_L1I TOTAL     ACCESS:      39229  HIT:      39158  MISS:         71
cpu0_L1I LOAD      ACCESS:      39229  HIT:      39158  MISS:         71
cpu0_L1I RFO       ACCESS:          0  HIT:          0  MISS:          0
cpu0_L1I PREFETCH  ACCESS:          0  HIT:          0  MISS:          0
cpu0_L1I WRITEBACK ACCESS:          0  HIT:          0  MISS:          0
cpu0_STLB TOTAL     ACCESS:      56272  HIT:      39924  MISS:      16348
cpu0_STLB LOAD      ACCESS:      53904  HIT:      37975  MISS:      15929
cpu0_STLB RFO       ACCESS:       2368  HIT:       1949  MISS:        419
cpu0_STLB PREFETCH  ACCESS:          0  HIT:          0  MISS:          0
cpu0_STLB WRITEBACK ACCESS:          0  HIT:          0  MISS:          0
cpu0_L1D TOTAL     ACCESS:    4958055  HIT:    4342953  MISS:     615102
cpu0_L1D LOAD      ACCESS:    4265362  HIT:    3689131  MISS:     576231
cpu0_L1D RFO       ACCESS:     677189  HIT:     638502  MISS:      38687
cpu0_L1D PREFETCH  ACCESS:          0  HIT:          0  MISS:          0
cpu0_L1D WRITEBACK ACCESS:          0  HIT:          0  MISS:          0
cpu0_L2C TOTAL     ACCESS:     662976  HIT:     126646  MISS:     536330
cpu0_L2C LOAD      ACCESS:     576290  HIT:      76228  MISS:     500062
cpu0_L2C RFO       ACCESS:      38687  HIT:       2665  MISS:      36022
cpu0_L2C PREFETCH  ACCESS:          0  HIT:          0  MISS:          0
cpu0_L2C WRITEBACK ACCESS:      47815  HIT:      47667  MISS:        148
LLC TOTAL     ACCESS:     582480  HIT:     133868  MISS:     448612
LLC LOAD      ACCESS:     500062  HIT:      52556  MISS:     447506
LLC RFO       ACCESS:      36022  HIT:      34962  MISS:       1060
LLC PREFETCH  ACCESS:          0  HIT:          0  MISS:          0
LLC WRITEBACK ACCESS:      46298  HIT:      46289  MISS:          9
Heartbeat CPU 0 instructions: 96000002 cycles: 65843842 heartbeat IPC: 0.74064 cumulative IPC: 0.870099 (Simulation time: 1 hr 14 min 45 sec) 

Region of Interest Statistics
cpu0_DTLB TOTAL     ACCESS:    8013089  HIT:    7951622  MISS:      61467
cpu0_DTLB LOAD      ACCESS:    7519306  HIT:    7460399  MISS:      58907
cpu0_DTLB RFO       ACCESS:     493783  HIT:     491223  MISS:       2560
cpu0_DTLB PREFETCH  ACCESS:          0  HIT:          0  MISS:          0
cpu0_DTLB WRITEBACK ACCESS:          0  HIT:          0  MISS:          0
cpu0_ITLB TOTAL     ACCESS:    3996837  HIT:    3996836  MISS:          1
cpu0_ITLB LOAD      ACCESS:    3996837  HIT:    3996836  MISS:          1
cpu0_ITLB RFO       ACCESS:          0  HIT:          0  MISS:          0
cpu0_ITLB PREFETCH  ACCESS:          0  HIT:          0  MISS:          0
cpu0_ITLB WRITEBACK ACCESS:          0  HIT:          0  MISS:          0
cpu0_L1I TOTAL     ACCESS:      40069  HIT:      39998  MISS:         71
cpu0_L1I LOAD      ACCESS:      40069  HIT:      39998  MISS:         71
cpu0_L1I RFO       ACCESS:          0  HIT:          0  MISS:          0
cpu0_L1I PREFETCH  ACCESS:          0  HIT:          0  MISS:          0
cpu0_L1I WRITEBACK ACCESS:          0  HIT:          0  MISS:          0
cpu0_STLB TOTAL     ACCESS:      61468  HIT:      43897  MISS:      17571
cpu0_STLB LOAD      ACCESS:      58908  HIT:      41770  MISS:      17138
cpu0_STLB RFO       ACCESS:       2560  HIT:       2127  MISS:        433
cpu0_STLB PREFETCH  ACCESS:          0  HIT:          0  MISS:          0
cpu0_STLB WRITEBACK ACCESS:          0  HIT:          0  MISS:          0
cpu0_L1D TOTAL     ACCESS:    5202661  HIT:    4558297  MISS:     644364
cpu0_L1D LOAD      ACCESS:    4472114  HIT:    3867210  MISS:     604904
cpu0_L1D RFO       ACCESS:     713897  HIT:     674634  MISS:      39263
cpu0_L1D PREFETCH  ACCESS:          0  HIT:          0  MISS:          0
cpu0_L1D WRITEBACK ACCESS:          0  HIT:          0  MISS:          0
cpu0_L2C TOTAL     ACCESS:     693808  HIT:     134026  MISS:     559782
cpu0_L2C LOAD      ACCESS:     604962  HIT:      82037  MISS:     522925
cpu0_L2C RFO       ACCESS:      39263  HIT:       2672  MISS:      36591
cpu0_L2C PREFETCH  ACCESS:          0  HIT:          0  MISS:          0
cpu0_L2C WRITEBACK ACCESS:      49386  HIT:      49226  MISS:        160
LLC TOTAL     ACCESS:     606411  HIT:     138416  MISS:     467995
LLC LOAD      ACCESS:     522925  HIT:      56049  MISS:     466876
LLC RFO       ACCESS:      36591  HIT:      35522  MISS:       1069
LLC PREFETCH  ACCESS:          0  HIT:          0  MISS:          0
LLC WRITEBACK ACCESS:      46789  HIT:      46780  MISS:          9
Heartbeat CPU 0 instructions: 98000002 cycles: 67807704 heartbeat IPC: 1.0184 cumulative IPC: 0.87541 (Simulation time: 1 hr 16 min 44 sec) 

Region of Interest Statistics
cpu0_DTLB TOTAL     ACCESS:    8340952  HIT:    8278509  MISS:      62443
cpu0_DTLB LOAD      ACCESS:    7830750  HIT:    7770951  MISS:      59799
cpu0_DTLB RFO       ACCESS:     510202  HIT:     507558  MISS:       2644
cpu0_DTLB PREFETCH  ACCESS:          0  HIT:          0  MISS:          0
cpu0_DTLB WRITEBACK ACCESS:          0  HIT:          0  MISS:          0
cpu0_ITLB TOTAL     ACCESS:    4177208  HIT:    4177207  MISS:          1
cpu0_ITLB LOAD      ACCESS:    4177208  HIT:    4177207  MISS:          1
cpu0_ITLB RFO       ACCESS:          0  HIT:          0  MISS:          0
cpu0_ITLB PREFETCH  ACCESS:          0  HIT:          0  MISS:          0
cpu0_ITLB WRITEBACK ACCESS:          0  HIT:          0  MISS:          0
cpu0_L1I TOTAL     ACCESS:      41005  HIT:      40934  MISS:         71
cpu0_L1I LOAD      ACCESS:      41005  HIT:      40934  MISS:         71
cpu0_L1I RFO       ACCESS:          0  HIT:          0  MISS:          0
cpu0_L1I PREFETCH  ACCESS:          0  HIT:          0  MISS:          0
cpu0_L1I WRITEBACK ACCESS:          0  HIT:          0  MISS:          0
cpu0_STLB TOTAL     ACCESS:      62444  HIT:      44512  MISS:      17932
cpu0_STLB LOAD      ACCESS:      59800  HIT:      42332  MISS:      17468
cpu0_STLB RFO       ACCESS:       2644  HIT:       2180  MISS:        464
cpu0_STLB PREFETCH  ACCESS:          0  HIT:          0  MISS:          0
cpu0_STLB WRITEBACK ACCESS:          0  HIT:          0  MISS:          0
cpu0_L1D TOTAL     ACCESS:    5400662  HIT:    4728325  MISS:     672337
cpu0_L1D LOAD      ACCESS:    4654190  HIT:    4024507  MISS:     629683
cpu0_L1D RFO       ACCESS:     729469  HIT:     687018  MISS:      42451
cpu0_L1D PREFETCH  ACCESS:          0  HIT:          0  MISS:          0
cpu0_L1D WRITEBACK ACCESS:          0  HIT:          0  MISS:          0
cpu0_L2C TOTAL     ACCESS:     725062  HIT:     140130  MISS:     584932
cpu0_L2C LOAD      ACCESS:     629741  HIT:      84622  MISS:     545119
cpu0_L2C RFO       ACCESS:      42451  HIT:       2908  MISS:      39543
cpu0_L2C PREFETCH  ACCESS:          0  HIT:          0  MISS:          0
cpu0_L2C WRITEBACK ACCESS:      52667  HIT:      52504  MISS:        163
LLC TOTAL     ACCESS:     635485  HIT:     146938  MISS:     488547
LLC LOAD      ACCESS:     545119  HIT:      57725  MISS:     487394
LLC RFO       ACCESS:      39543  HIT:      38440  MISS:       1103
LLC PREFETCH  ACCESS:          0  HIT:          0  MISS:          0
LLC WRITEBACK ACCESS:      50716  HIT:      50707  MISS:          9
Heartbeat CPU 0 instructions: 100000000 cycles: 70410476 heartbeat IPC: 0.768411 cumulative IPC: 0.870561 (Simulation time: 1 hr 18 min 53 sec) 

Region of Interest Statistics
cpu0_DTLB TOTAL     ACCESS:    8696532  HIT:    8630598  MISS:      65934
cpu0_DTLB LOAD      ACCESS:    8166979  HIT:    8103735  MISS:      63244
cpu0_DTLB RFO       ACCESS:     529553  HIT:     526863  MISS:       2690
cpu0_DTLB PREFETCH  ACCESS:          0  HIT:          0  MISS:          0
cpu0_DTLB WRITEBACK ACCESS:          0  HIT:          0  MISS:          0
cpu0_ITLB TOTAL     ACCESS:    4345172  HIT:    4345171  MISS:          1
cpu0_ITLB LOAD      ACCESS:    4345172  HIT:    4345171  MISS:          1
cpu0_ITLB RFO       ACCESS:          0  HIT:          0  MISS:          0
cpu0_ITLB PREFETCH  ACCESS:          0  HIT:          0  MISS:          0
cpu0_ITLB WRITEBACK ACCESS:          0  HIT:          0  MISS:          0
cpu0_L1I TOTAL     ACCESS:      41024  HIT:      40953  MISS:         71
cpu0_L1I LOAD      ACCESS:      41024  HIT:      40953  MISS:         71
cpu0_L1I RFO       ACCESS:          0  HIT:          0  MISS:          0
cpu0_L1I PREFETCH  ACCESS:          0  HIT:          0  MISS:          0
cpu0_L1I WRITEBACK ACCESS:          0  HIT:          0  MISS:          0
cpu0_STLB TOTAL     ACCESS:      65935  HIT:      47096  MISS:      18839
cpu0_STLB LOAD      ACCESS:      63245  HIT:      44875  MISS:      18370
cpu0_STLB RFO       ACCESS:       2690  HIT:       2221  MISS:        469
cpu0_STLB PREFETCH  ACCESS:          0  HIT:          0  MISS:          0
cpu0_STLB WRITEBACK ACCESS:          0  HIT:          0  MISS:          0
cpu0_L1D TOTAL     ACCESS:    5625365  HIT:    4924908  MISS:     700457
cpu0_L1D LOAD      ACCESS:    4849102  HIT:    4191947  MISS:     657155
cpu0_L1D RFO       ACCESS:     758413  HIT:     715321  MISS:      43092
cpu0_L1D PREFETCH  ACCESS:          0  HIT:          0  MISS:          0
cpu0_L1D WRITEBACK ACCESS:          0  HIT:          0  MISS:          0
cpu0_L2C TOTAL     ACCESS:     753839  HIT:     144501  MISS:     609338
cpu0_L2C LOAD      ACCESS:     657213  HIT:      88334  MISS:     568879
cpu0_L2C RFO       ACCESS:      43092  HIT:       2908  MISS:      40184
cpu0_L2C PREFETCH  ACCESS:          0  HIT:          0  MISS:          0
cpu0_L2C WRITEBACK ACCESS:      53324  HIT:      53160  MISS:        164
LLC TOTAL     ACCESS:     660548  HIT:     150676  MISS:     509872
LLC LOAD      ACCESS:     568879  HIT:      60161  MISS:     508718
LLC RFO       ACCESS:      40184  HIT:      39080  MISS:       1104
LLC PREFETCH  ACCESS:          0  HIT:          0  MISS:          0
LLC WRITEBACK ACCESS:      51374  HIT:      51365  MISS:          9
Heartbeat CPU 0 instructions: 102000001 cycles: 72571731 heartbeat IPC: 0.925389 cumulative IPC: 0.87255 (Simulation time: 1 hr 20 min 57 sec) 

Region of Interest Statistics
cpu0_DTLB TOTAL     ACCESS:    9048247  HIT:    8979358  MISS:      68889
cpu0_DTLB LOAD      ACCESS:    8497594  HIT:    8431632  MISS:      65962
cpu0_DTLB RFO       ACCESS:     550653  HIT:     547726  MISS:       2927
cpu0_DTLB PREFETCH  ACCESS:          0  HIT:          0  MISS:          0
cpu0_DTLB WRITEBACK ACCESS:          0  HIT:          0  MISS:          0
cpu0_ITLB TOTAL     ACCESS:    4518674  HIT:    4518673  MISS:          1
cpu0_ITLB LOAD      ACCESS:    4518674  HIT:    4518673  MISS:          1
cpu0_ITLB RFO       ACCESS:          0  HIT:          0  MISS:          0
cpu0_ITLB PREFETCH  ACCESS:          0  HIT:          0  MISS:          0
cpu0_ITLB WRITEBACK ACCESS:          0  HIT:          0  MISS:          0
cpu0_L1I TOTAL     ACCESS:      42712  HIT:      42641  MISS:         71
cpu0_L1I LOAD      ACCESS:      42712  HIT:      42641  MISS:         71
cpu0_L1I RFO       ACCESS:          0  HIT:          0  MISS:          0
cpu0_L1I PREFETCH  ACCESS:          0  HIT:          0  MISS:          0
cpu0_L1I WRITEBACK ACCESS:          0  HIT:          0  MISS:          0
cpu0_STLB TOTAL     ACCESS:      68890  HIT:      49299  MISS:      19591
cpu0_STLB LOAD      ACCESS:      65963  HIT:      46882  MISS:      19081
cpu0_STLB RFO       ACCESS:       2927  HIT:       2417  MISS:        510
cpu0_STLB PREFETCH  ACCESS:          0  HIT:          0  MISS:          0
cpu0_STLB WRITEBACK ACCESS:          0  HIT:          0  MISS:          0
cpu0_L1D TOTAL     ACCESS:    5845715  HIT:    5115621  MISS:     730094
cpu0_L1D LOAD      ACCESS:    5041904  HIT:    4358302  MISS:     683602
cpu0_L1D RFO       ACCESS:     785238  HIT:     738973  MISS:      46265
cpu0_L1D PREFETCH  ACCESS:          0  HIT:          0  MISS:          0
cpu0_L1D WRITEBACK ACCESS:          0  HIT:          0  MISS:          0
cpu0_L2C TOTAL     ACCESS:     787799  HIT:     154053  MISS:     633746
cpu0_L2C LOAD      ACCESS:     683659  HIT:      93278  MISS:     590381
cpu0_L2C RFO       ACCESS:      46265  HIT:       3199  MISS:      43066
cpu0_L2C PREFETCH  ACCESS:          0  HIT:          0  MISS:          0
cpu0_L2C WRITEBACK ACCESS:      57648  HIT:      57469  MISS:        179
LLC TOTAL     ACCESS:     687596  HIT:     159559  MISS:     528037
LLC LOAD      ACCESS:     590381  HIT:      63548  MISS:     526833
LLC RFO       ACCESS:      43066  HIT:      41916  MISS:       1150
LLC PREFETCH  ACCESS:          0  HIT:          0  MISS:          0
LLC WRITEBACK ACCESS:      54029  HIT:      54020  MISS:          9
Heartbeat CPU 0 instructions: 104000004 cycles: 74938323 heartbeat IPC: 0.845098 cumulative IPC: 0.871501 (Simulation time: 1 hr 22 min 59 sec) 

Region of Interest Statistics
cpu0_DTLB TOTAL     ACCESS:    9383415  HIT:    9313111  MISS:      70304
cpu0_DTLB LOAD      ACCESS:    8817806  HIT:    8750471  MISS:      67335
cpu0_DTLB RFO       ACCESS:     565609  HIT:     562640  MISS:       2969
cpu0_DTLB PREFETCH  ACCESS:          0  HIT:          0  MISS:          0
cpu0_DTLB WRITEBACK ACCESS:          0  HIT:          0  MISS:          0
cpu0_ITLB TOTAL     ACCESS:    4700239  HIT:    4700238  MISS:          1
cpu0_ITLB LOAD      ACCESS:    4700239  HIT:    4700238  MISS:          1
cpu0_ITLB RFO       ACCESS:          0  HIT:          0  MISS:          0
cpu0_ITLB PREFETCH  ACCESS:          0  HIT:          0  MISS:          0
cpu0_ITLB WRITEBACK ACCESS:          0  HIT:          0  MISS:          0
cpu0_L1I TOTAL     ACCESS:      42760  HIT:      42689  MISS:         71
cpu0_L1I LOAD      ACCESS:      42760  HIT:      42689  MISS:         71
cpu0_L1I RFO       ACCESS:          0  HIT:          0  MISS:          0
cpu0_L1I PREFETCH  ACCESS:          0  HIT:          0  MISS:          0
cpu0_L1I WRITEBACK ACCESS:          0  HIT:          0  MISS:          0
cpu0_STLB TOTAL     ACCESS:      70305  HIT:      50161  MISS:      20144
cpu0_STLB LOAD      ACCESS:      67336  HIT:      47703  MISS:      19633
cpu0_STLB RFO       ACCESS:       2969  HIT:       2458  MISS:        511
cpu0_STLB PREFETCH  ACCESS:          0  HIT:          0  MISS:          0
cpu0_STLB WRITEBACK ACCESS:          0  HIT:          0  MISS:          0
cpu0_L1D TOTAL     ACCESS:    6053585  HIT:    5296202  MISS:     757383
cpu0_L1D LOAD      ACCESS:    5229771  HIT:    4519583  MISS:     710188
cpu0_L1D RFO       ACCESS:     804709  HIT:     757746  MISS:      46963
cpu0_L1D PREFETCH  ACCESS:          0  HIT:          0  MISS:          0
cpu0_L1D WRITEBACK ACCESS:          0  HIT:          0  MISS:          0
cpu0_L2C TOTAL     ACCESS:     815813  HIT:     156226  MISS:     659587
cpu0_L2C LOAD      ACCESS:     710245  HIT:      94725  MISS:     615520
cpu0_L2C RFO       ACCESS:      46963  HIT:       3199  MISS:      43764
cpu0_L2C PREFETCH  ACCESS:          0  HIT:          0  MISS:          0
cpu0_L2C WRITEBACK ACCESS:      58373  HIT:      58193  MISS:        180
LLC TOTAL     ACCESS:     715482  HIT:     164099  MISS:     551383
LLC LOAD      ACCESS:     615520  HIT:      65349  MISS:     550171
LLC RFO       ACCESS:      43764  HIT:      42606  MISS:       1158
LLC PREFETCH  ACCESS:          0  HIT:          0  MISS:          0
LLC WRITEBACK ACCESS:      56075  HIT:      56066  MISS:          9
Heartbeat CPU 0 instructions: 106000003 cycles: 77806420 heartbeat IPC: 0.697326 cumulative IPC: 0.863796 (Simulation time: 1 hr 25 min 18 sec) 

Region of Interest Statistics
cpu0_DTLB TOTAL     ACCESS:    9751299  HIT:    9676107  MISS:      75192
cpu0_DTLB LOAD      ACCESS:    9164855  HIT:    9092707  MISS:      72148
cpu0_DTLB RFO       ACCESS:     586444  HIT:     583400  MISS:       3044
cpu0_DTLB PREFETCH  ACCESS:          0  HIT:          0  MISS:          0
cpu0_DTLB WRITEBACK ACCESS:          0  HIT:          0  MISS:          0
cpu0_ITLB TOTAL     ACCESS:    4861456  HIT:    4861455  MISS:          1
cpu0_ITLB LOAD      ACCESS:    4861456  HIT:    4861455  MISS:          1
cpu0_ITLB RFO       ACCESS:          0  HIT:          0  MISS:          0
cpu0_ITLB PREFETCH  ACCESS:          0  HIT:          0  MISS:          0
cpu0_ITLB WRITEBACK ACCESS:          0  HIT:          0  MISS:          0
cpu0_L1I TOTAL     ACCESS:      42760  HIT:      42689  MISS:         71
cpu0_L1I LOAD      ACCESS:      42760  HIT:      42689  MISS:         71
cpu0_L1I RFO       ACCESS:          0  HIT:          0  MISS:          0
cpu0_L1I PREFETCH  ACCESS:          0  HIT:          0  MISS:          0
cpu0_L1I WRITEBACK ACCESS:          0  HIT:          0  MISS:          0
cpu0_STLB TOTAL     ACCESS:      75193  HIT:      54053  MISS:      21140
cpu0_STLB LOAD      ACCESS:      72149  HIT:      51525  MISS:      20624
cpu0_STLB RFO       ACCESS:       3044  HIT:       2528  MISS:        516
cpu0_STLB PREFETCH  ACCESS:          0  HIT:          0  MISS:          0
cpu0_STLB WRITEBACK ACCESS:          0  HIT:          0  MISS:          0
cpu0_L1D TOTAL     ACCESS:    6287456  HIT:    5501091  MISS:     786365
cpu0_L1D LOAD      ACCESS:    5428172  HIT:    4689425  MISS:     738747
cpu0_L1D RFO       ACCESS:     839245  HIT:     791865  MISS:      47380
cpu0_L1D PREFETCH  ACCESS:          0  HIT:          0  MISS:          0
cpu0_L1D WRITEBACK ACCESS:          0  HIT:          0  MISS:          0
cpu0_L2C TOTAL     ACCESS:     845196  HIT:     162671  MISS:     682525
cpu0_L2C LOAD      ACCESS:     738804  HIT:     100765  MISS:     638039
cpu0_L2C RFO       ACCESS:      47380  HIT:       3199  MISS:      44181
cpu0_L2C PREFETCH  ACCESS:          0  HIT:          0  MISS:          0
[...]

ChampSim completed all CPUs

Region of Interest Statistics

CPU 0 cumulative IPC: 0.860147 instructions: 1500000000 cycles: 1743887980
cpu0_DTLB TOTAL     ACCESS:  261745067  HIT:  259687395  MISS:    2057672
cpu0_DTLB LOAD      ACCESS:  246165212  HIT:  244190872  MISS:    1974340
cpu0_DTLB RFO       ACCESS:   15579855  HIT:   15496523  MISS:      83332
cpu0_DTLB PREFETCH  ACCESS:          0  HIT:          0  MISS:          0
cpu0_DTLB WRITEBACK ACCESS:          0  HIT:          0  MISS:          0
cpu0_DTLB TRANSLATION ACCESS:          0  HIT:          0  MISS:          0
cpu0_DTLB PREFETCH  REQUESTED:          0  ISSUED:          0  USEFUL:          0  USELESS:          0
cpu0_DTLB AVERAGE MISS LATENCY: 11.4234 cycles
cpu0_ITLB TOTAL     ACCESS:  129859295  HIT:  129859267  MISS:         28
cpu0_ITLB LOAD      ACCESS:  129859295  HIT:  129859267  MISS:         28
cpu0_ITLB RFO       ACCESS:          0  HIT:          0  MISS:          0
cpu0_ITLB PREFETCH  ACCESS:          0  HIT:          0  MISS:          0
cpu0_ITLB WRITEBACK ACCESS:          0  HIT:          0  MISS:          0
cpu0_ITLB TRANSLATION ACCESS:          0  HIT:          0  MISS:          0
cpu0_ITLB PREFETCH  REQUESTED:          0  ISSUED:          0  USEFUL:          0  USELESS:          0
cpu0_ITLB AVERAGE MISS LATENCY: 176.036 cycles
cpu0_L1I TOTAL     ACCESS:    1094625  HIT:    1092833  MISS:       1792
cpu0_L1I LOAD      ACCESS:    1094625  HIT:    1092833  MISS:       1792
cpu0_L1I RFO       ACCESS:          0  HIT:          0  MISS:          0
cpu0_L1I PREFETCH  ACCESS:          0  HIT:          0  MISS:          0
cpu0_L1I WRITEBACK ACCESS:          0  HIT:          0  MISS:          0
cpu0_L1I TRANSLATION ACCESS:          0  HIT:          0  MISS:          0
cpu0_L1I PREFETCH  REQUESTED:          0  ISSUED:          0  USEFUL:          0  USELESS:          0
cpu0_L1I AVERAGE MISS LATENCY: 205.727 cycles
cpu0_STLB TOTAL     ACCESS:    2057700  HIT:    1526720  MISS:     530980
cpu0_STLB LOAD      ACCESS:    1974368  HIT:    1456609  MISS:     517759
cpu0_STLB RFO       ACCESS:      83332  HIT:      70111  MISS:      13221
cpu0_STLB PREFETCH  ACCESS:          0  HIT:          0  MISS:          0
cpu0_STLB WRITEBACK ACCESS:          0  HIT:          0  MISS:          0
cpu0_STLB TRANSLATION ACCESS:          0  HIT:          0  MISS:          0
cpu0_STLB PREFETCH  REQUESTED:          0  ISSUED:          0  USEFUL:          0  USELESS:          0
cpu0_STLB AVERAGE MISS LATENCY: 9.25672 cycles
cpu0_L1D TOTAL     ACCESS:  167904268  HIT:  146875619  MISS:   21028649
cpu0_L1D LOAD      ACCESS:  145250387  HIT:  125523080  MISS:   19727307
cpu0_L1D RFO       ACCESS:   22149635  HIT:   20855476  MISS:    1294159
cpu0_L1D PREFETCH  ACCESS:          0  HIT:          0  MISS:          0
cpu0_L1D WRITEBACK ACCESS:          0  HIT:          0  MISS:          0
cpu0_L1D TRANSLATION ACCESS:     504246  HIT:     497063  MISS:       7183
cpu0_L1D PREFETCH  REQUESTED:          0  ISSUED:          0  USEFUL:          0  USELESS:          0
cpu0_L1D AVERAGE MISS LATENCY: 186.626 cycles
cpu0_L2C TOTAL     ACCESS:   22653243  HIT:    4430294  MISS:   18222949
cpu0_L2C LOAD      ACCESS:   19728987  HIT:    2715119  MISS:   17013868
cpu0_L2C RFO       ACCESS:    1294142  HIT:      93099  MISS:    1201043
cpu0_L2C PREFETCH  ACCESS:          0  HIT:          0  MISS:          0
cpu0_L2C WRITEBACK ACCESS:    1622931  HIT:    1618043  MISS:       4888
cpu0_L2C TRANSLATION ACCESS:       7183  HIT:       4033  MISS:       3150
cpu0_L2C PREFETCH  REQUESTED:          0  ISSUED:          0  USEFUL:          0  USELESS:          0
cpu0_L2C AVERAGE MISS LATENCY: 202.651 cycles
LLC TOTAL     ACCESS:   19704812  HIT:    4453612  MISS:   15251200
LLC LOAD      ACCESS:   17013858  HIT:    1821252  MISS:   15192606
LLC RFO       ACCESS:    1201043  HIT:    1144085  MISS:      56958
LLC PREFETCH  ACCESS:          0  HIT:          0  MISS:          0
LLC WRITEBACK ACCESS:    1486761  HIT:    1486260  MISS:        501
LLC TRANSLATION ACCESS:       3150  HIT:       2015  MISS:       1135
LLC PREFETCH  REQUESTED:          0  ISSUED:          0  USEFUL:          0  USELESS:          0
LLC AVERAGE MISS LATENCY: 217.052 cycles
~~~~~~~~~~Reuse Distance Profiler output~~~~~~~~~~
0	25641040	15556432
1	27277024	25755824
2	20652960	19223072
3	12719616	12166832
4	10582000	9993824
5	6303680	5828704
6	4858544	4397200
7	3480832	3273952
8	2032592	1892432
9	1342112	1227008
10	978080	873648
11	723024	589632
12	715280	612176
13	568816	480912
14	724896	534912
15	440304	364576
16	506368	368048
17	608240	524960
18	460992	370832
19	463664	333456
20	575616	416224
21	553280	390400
22	618288	493184
23	519392	425344
24	636336	514176
25	775968	597008
26	606704	469072
27	754768	625808
28	858992	705760
29	719600	618864
30	755760	648960
31	775232	691232
32	869440	738416
33	841536	752912
34	832272	704384
35	801632	721808
36	726944	588400
37	807216	705136
38	722912	669600
39	818528	758896
40	733568	676464
41	702128	639696
42	692848	625552
43	679648	596160
44	664000	601520
45	613216	556688
46	580080	515248
47	562272	511216
48	586368	532736
49	592832	533312
50	525104	478208
51	501888	461984
52	493024	459184
53	400448	368272
54	331968	303808
55	265360	239296
56	230464	206160
57	193232	174528
58	174784	159600
59	170656	155824
60	187216	170848
61	166448	152560
62	142240	128736
63	151104	121344
64	361632	302576
66	219728	177872
68	195536	163648
70	187056	157424
72	175184	157280
74	195632	178624
76	265744	246944
78	221872	200784
80	226416	203744
82	186368	167936
84	152832	135984
86	145168	128544
88	151872	135728
90	170288	149968
92	150624	138096
94	140464	125824
96	116016	98480
98	93104	80576
100	88544	75008
102	85856	71344
104	71504	60800
106	75968	64384
108	72432	60512
110	67456	55584
112	62864	48896
114	56592	37312
116	42736	30480
118	41504	24784
120	35472	23312
122	27200	19840
124	28304	19024
126	52176	29104
128	134896	98432
132	66720	50528
136	51040	41904
140	65184	56880
144	94016	87008
148	116224	109312
152	120336	114864
156	123216	116208
160	108656	102400
164	86704	80064
168	65136	60736
172	56160	51872
176	45440	41600
180	41744	36560
184	44416	39856
188	43296	39136
192	51104	47072
196	59008	55088
200	64640	58544
204	58272	52064
208	54240	50304
212	51504	47824
216	39600	35616
220	32928	28976
224	32336	28800
228	28368	24432
232	25696	21648
236	27616	22640
240	32944	25536
244	31936	21472
248	33200	21536
252	37856	21280
256	96336	66240
264	49552	38224
272	39024	30832
280	39328	30736
288	40384	27776
296	43200	26160
304	37760	21584
312	36928	22832
320	39376	24992
328	45056	32240
336	51664	38416
344	54112	41200
352	65264	51456
360	74688	59232
368	85040	70416
376	93280	81312
384	100176	90416
392	104384	97584
400	104992	98384
408	94816	88864
416	87280	80144
424	77824	69344
432	73648	63440
440	65520	55280
448	72512	61552
456	92112	79440
464	128032	112208
472	180352	157168
480	219392	189104
488	231200	197152
496	209456	178672
504	151952	128800
512	168304	141520
528	81040	66912
544	52608	41840
560	39184	30688
576	33600	25392
592	30848	22800
608	28624	22944
624	28784	19200
640	28096	20864
656	19488	15968
672	19488	14896
688	16272	12816
704	16800	12992
720	16240	13072
736	16784	13680
752	14080	11056
768	13888	10480
784	15920	12416
800	17488	14352
816	15136	12144
832	18848	14064
848	18160	14160
864	18032	15056
880	22512	18496
896	16480	13392
912	13632	11600
928	13488	11280
944	14208	12176
960	20128	17312
976	25088	22256
992	29424	26000
1008	29376	26384
1024	40880	35872
1056	25968	21232
1088	20656	16304
1120	16672	13104
1152	17040	13200
1184	15920	12864
1216	15008	11680
1248	13808	11104
1280	12768	10016
1312	12992	10032
1344	14272	10688
1376	13024	10304
1408	13200	10432
1440	16208	13888
1472	23056	20784
1504	23216	21184
1536	19872	17600
1568	19024	16528
1600	16720	15312
1632	9824	8400
1664	10144	8608
1696	9440	7712
1728	9712	9024
1760	9024	8368
1792	8336	7744
1824	8816	8032
1856	8288	7664
1888	11360	10912
1920	12720	11808
1952	14400	13568
1984	16432	15584
2016	18464	17328
2048	32064	30704
2112	22672	21616
2176	19968	18944
2240	16976	15968
2304	21008	19776
2368	23280	21552
2432	23312	22032
2496	29712	27856
2560	29744	26480
2624	30544	20960
2688	29824	20688
2752	22976	19872
2816	20176	18256
2880	19824	18384
2944	22128	20336
3008	23664	21888
3072	19152	17680
3136	17584	16096
3200	17072	15872
3264	14080	13200
3328	14240	13536
3392	15072	14448
3456	21184	20432
3520	17824	17392
3584	15008	14928
3648	14240	14144
3712	12640	12544
3776	11856	11712
3840	12592	12480
3904	15968	15872
3968	17248	17136
4032	16480	16176
4096	28992	28384
4224	28112	27184
4352	28320	27968
4480	35872	35488
4608	27888	26784
4736	26128	25600
4864	26624	26416
4992	31744	31232
5120	29024	27840
5248	26816	26112
5376	25504	24880
5504	27424	27184
5632	23728	22832
5760	21968	21440
5888	23216	22928
6016	24784	24512
6144	23168	22160
6272	21856	21248
6400	23664	23200
6528	25360	24832
6656	21488	20832
6784	21136	20656
6912	23472	22864
7040	22272	21824
7168	21536	21232
7296	21376	21088
7424	20880	19728
7552	21712	20048
7680	18832	17872
7808	18784	18240
7936	24352	19488
8064	26032	20256
8192	38896	36928
8448	41552	38544
8704	40480	36368
8960	38912	35744
9216	34864	34160
9472	34384	33136
9728	35040	33744
9984	33328	31424
10240	33024	31040
10496	31648	30272
10752	40144	28976
11008	35008	30288
11264	29920	28960
11520	31360	29296
11776	34208	29664
12032	33440	29392
12288	28672	27536
12544	28416	27968
12800	30192	29824
13056	28512	28272
13312	27200	26608
13568	32688	26848
13824	28176	27184
14080	26560	25776
14336	25984	25008
14592	25296	24688
14848	25840	25504
15104	24400	23744
15360	25312	24464
15616	25120	24736
15872	24512	24080
16128	24448	24080
16384	49088	46640
16896	47424	45296
17408	47632	45776
17920	60544	44080
18432	47472	44736
18944	68240	44624
19456	48224	43200
19968	38320	35856
20480	41616	41120
20992	69568	64496
21504	25088	24912
22016	24288	23360
22528	21744	20928
23040	21776	21120
23552	20176	19808
24064	20208	20016
24576	21648	21280
25088	18480	18368
25600	18464	18320
26112	19168	19056
26624	16848	16752
27136	17088	17072
27648	15760	15712
28160	16560	16528
28672	15568	15488
29184	16016	15888
29696	13904	13824
30208	15360	15312
30720	14496	14480
31232	14736	14688
31744	13296	13232
32256	13440	13376
32768	27376	27232
33792	25648	25632
34816	22640	22608
35840	22528	22384
36864	22208	22144
37888	21632	21552
38912	19936	19760
39936	19360	19344
40960	19056	18960
41984	18928	18864
43008	18192	18160
44032	15968	15968
45056	15648	15616
46080	14656	14624
47104	14640	14640
48128	15104	14736
49152	14048	13808
50176	12480	12448
51200	12080	12080
52224	12400	12320
53248	18896	18560
54272	24368	24032
55296	22304	22048
56320	21248	21200
57344	31648	31616
58368	23168	23168
59392	15600	15600
60416	14416	14416
61440	10160	10128
62464	14576	14560
63488	10656	10656
64512	9728	9712
65536	19008	19008
67584	19136	19136
69632	18512	18512
71680	18768	16608
73728	21024	15584
75776	22288	16320
77824	28656	16240
79872	41344	15152
81920	39344	12816
83968	25840	13504
86016	16336	10496
88064	15536	10512
90112	13424	9824
92160	12336	9984
94208	9824	9136
96256	9792	9408
98304	8768	8544
100352	8096	7872
102400	6784	6704
104448	8160	7808
106496	8112	7728
108544	7856	7120
110592	7552	6800
112640	7024	6288
114688	7776	6736
116736	7520	6160
118784	6640	5632
120832	7232	6064
122880	6256	4784
124928	7216	5552
126976	8944	6816
129024	7376	5520
131072	14464	10784
135168	16144	12144
139264	14752	11632
143360	14800	11088
147456	15920	12048
151552	14688	10800
155648	13776	9280
159744	14480	10384
163840	15808	10752
167936	17264	10240
172032	15376	9760
176128	13936	9232
180224	14576	10064
184320	15120	10768
188416	13856	9440
192512	12240	8336
196608	11952	7680
200704	12848	7472
204800	17808	12640
208896	22672	17040
212992	14816	10592
217088	13376	9024
221184	13376	8576
225280	12128	7952
229376	11600	7120
233472	11744	7632
237568	12736	7904
241664	12512	7792
245760	12160	7616
249856	13040	7616
253952	13920	8224
258048	13584	8432
262144	24432	13776
270336	23904	11872
278528	21728	9712
286720	21344	10176
294912	19824	10832
303104	15760	9648
311296	17040	11536
319488	14000	9568
327680	13488	8336
335872	22624	12960
344064	119440	109312
352256	77984	70464
360448	38864	26848
368640	135760	128032
376832	109456	102448
385024	86816	79728
393216	133904	128592
401408	47040	42400
409600	36880	30816
417792	64736	57856
425984	120192	113712
434176	80928	72000
442368	104400	91584
450560	247920	234368
458752	190928	165280
466944	318544	282304
475136	874544	824560
483328	676000	625280
491520	1287648	1231616
499712	884544	835296
507904	1153408	1102384
516096	1004464	956144
524288	1960752	1889744
540672	994848	948448
557056	883040	853264
573440	798352	753536
589824	1131792	1095504
606208	522528	506304
622592	371328	352880
638976	400000	388032
655360	219600	212960
671744	86448	84912
688128	36544	30336
704512	249040	242304
720896	90384	83792
737280	112816	107712
753664	118048	112608
770048	152016	144288
786432	175504	167504
802816	207408	198960
819200	92080	87440
835584	119056	112400
851968	105536	102400
868352	12960	9424
884736	103344	100816
901120	12672	9104
917504	143664	140512
933888	16128	14496
950272	14384	13152
966656	40848	40096
983040	40608	40464
999424	8000	7600
1015808	9152	7488
1032192	8704	7056
1048576	86016	80544
1081344	104352	102064
1114112	2048	2032
1146880	2640	2592
1179648	3424	3424
1212416	3536	3536
1245184	4016	3904
1277952	7584	7456
1310720	9056	7888
1343488	9056	7872
1376256	31072	31008
1409024	3104	3088
1441792	2224	2224
1474560	3328	3312
1507328	2832	2816
1540096	1680	1616
1572864	1792	1760
1605632	1824	1792
1638400	1072	1056
1671168	2608	2608
1703936	1264	1264
1736704	3264	3264
1769472	1968	1968
1802240	2016	2016
1835008	1520	1504
1867776	1216	1216
1900544	1120	1104
1933312	512	512
1966080	960	944
1998848	880	880
2031616	992	992
2064384	2368	2352
2097152	1248	1216
2162688	1312	1296
2228224	2592	2592
2293760	1744	1744
2359296	2048	2032
2424832	1808	1776
2490368	5136	5088
2555904	1344	1312
2621440	7168	7136
2686976	1136	1056
2752512	1472	1440
2818048	768	736
2883584	720	688
2949120	1232	1216
3014656	5440	5424
3080192	2256	2256
3145728	2240	2208
3211264	960	960
3276800	1216	1184
3342336	1008	960
3407872	320	320
3473408	528	496
3538944	2592	2560
3604480	2512	2448
3670016	2640	2640
3735552	2752	2704
3801088	2848	2832
3866624	2000	1984
3932160	336	320
3997696	432	432
4063232	800	752
4128768	384	352
4194304	6640	6560
4325376	2112	2096
4456448	2208	2176
4587520	2144	2112
4718592	4464	3904
4849664	1408	1392
4980736	784	784
5111808	3168	2864
5242880	960	928
5373952	4464	4320
5505024	3088	2512
5636096	1200	448
5767168	2368	1952
5898240	1792	1152
6029312	2464	2416
6160384	1456	704
6291456	2752	1376
6422528	3008	1840
6553600	2672	1264
6684672	3456	2544
6815744	3632	2576
6946816	2416	1632
7077888	1248	688
7208960	2240	1088
7340032	2224	1248
7471104	880	576
7602176	2304	2160
7733248	2080	1568
7864320	1760	1472
7995392	4704	4400
8126464	1248	1184
8257536	544	544
8388608	1696	1680
8650752	2560	2544
8912896	368	320
9175040	1488	1488
9437184	1040	1040
9699328	1360	1088
9961472	848	688
10223616	1888	1888
10485760	384	384
10747904	480	480
11010048	160	160
11272192	224	224
11534336	112	96
11796480	336	336
12058624	80	80
12320768	1792	1680
12582912	176	144
12845056	384	352
13107200	64	64
13369344	832	768
13631488	656	592
13893632	304	272
14155776	688	688
14417920	832	832
14680064	528	528
14942208	2368	2368
15204352	736	704
15466496	2080	2080
15728640	1776	1776
15990784	96	96
16252928	4272	4256
16515072	80	80
16777216	2656	2656
17301504	3936	3920
17825792	2272	2272
18350080	496	480
18874368	592	592
19398656	1072	1072
19922944	1104	1104
20447232	544	528
20971520	1504	1504
21495808	1792	1792
22020096	2544	2544
22544384	2128	2128
23068672	736	736
23592960	160	160
24117248	272	272
24641536	2192	2192
25165824	896	880
25690112	1664	1664
26214400	1104	1104
26738688	592	592
27262976	256	256
27787264	304	304
28311552	240	240
28835840	144	144
29360128	304	288
29884416	80	80
30408704	32	16
30932992	64	64
31457280	1472	1472
31981568	224	224
32505856	144	144
33030144	272	272
33554432	1152	1152
34603008	1136	1136
35651584	3664	3664
36700160	3504	3504
37748736	2752	2736
38797312	1056	1040
39845888	352	352
40894464	288	288
41943040	192	192
42991616	48	32
44040192	80	80
45088768	176	176
46137344	64	64
47185920	96	96
48234496	144	144
49283072	32	32
50331648	96	96
51380224	128	128
52428800	16	16
53477376	112	96
54525952	48	32
55574528	16	16
56623104	0	0
57671680	16	0
58720256	0	0
59768832	0	0
60817408	0	0
61865984	0	0
62914560	0	0
63963136	0	0
65011712	0	0
66060288	0	0
67108864	16	16
69206016	0	0
71303168	0	0
73400320	16	16
75497472	352	352
77594624	0	0
79691776	112	112
81788928	400	400
83886080	2272	2272
85983232	128	112
88080384	96	96
90177536	80	80
92274688	0	0
94371840	96	96
96468992	80	48
98566144	0	0
100663296	0	0
102760448	0	0
104857600	0	0
106954752	16	0
109051904	0	0
111149056	96	96
113246208	0	0
115343360	0	0
117440512	0	0
119537664	0	0
121634816	0	0
123731968	0	0
125829120	112	112
127926272	64	64
130023424	32	32
132120576	32	16
134217728	128	96
138412032	928	880
142606336	1104	1104
146800640	80	80
150994944	64	64
155189248	0	0
159383552	16	0
163577856	0	0
167772160	0	0
171966464	0	0
176160768	0	0
180355072	0	0
184549376	0	0
188743680	0	0
192937984	0	0
197132288	0	0
201326592	0	0
205520896	0	0
209715200	0	0
213909504	0	0
218103808	0	0
222298112	0	0
226492416	0	0
230686720	0	0
234881024	0	0
239075328	0	0
243269632	0	0
247463936	0	0
251658240	0	0
255852544	0	0
260046848	0	0
264241152	0	0
268435456	0	0
276824064	0	0
285212672	0	0
293601280	0	0
301989888	0	0
310378496	0	0
318767104	0	0
327155712	0	0
335544320	0	0
343932928	0	0
352321536	0	0
360710144	0	0
369098752	0	0
377487360	0	0
385875968	0	0
394264576	0	0
402653184	0	0
411041792	0	0
419430400	0	0
427819008	0	0
436207616	0	0
444596224	0	0
452984832	0	0
461373440	0	0
469762048	0	0
478150656	0	0
486539264	0	0
494927872	0	0
503316480	0	0
511705088	0	0
520093696	0	0
528482304	0	0
536870912	0	0
553648128	0	0
570425344	0	0
587202560	0	0
603979776	0	0
620756992	0	0
637534208	0	0
654311424	0	0
671088640	0	0
687865856	0	0
704643072	0	0
721420288	0	0
738197504	0	0
754974720	0	0
771751936	0	0
788529152	0	0
805306368	0	0
822083584	0	0
838860800	0	0
855638016	0	0
872415232	0	0
889192448	0	0
905969664	0	0
922746880	0	0
939524096	0	0
956301312	0	0
973078528	0	0
989855744	0	0
1006632960	0	0
1023410176	0	0
1040187392	0	0
1056964608	0	0
1073741824	0	0
1107296256	0	0
1140850688	0	0
1174405120	0	0
1207959552	0	0
1241513984	0	0
1275068416	0	0
1308622848	0	0
1342177280	0	0
1375731712	0	0
1409286144	0	0
1442840576	0	0
1476395008	0	0
1509949440	0	0
1543503872	0	0
1577058304	0	0
1610612736	0	0
1644167168	0	0
1677721600	0	0
1711276032	0	0
1744830464	0	0
1778384896	0	0
1811939328	0	0
1845493760	0	0
1879048192	0	0
1912602624	0	0
1946157056	0	0
1979711488	0	0
2013265920	0	0
2046820352	0	0
2080374784	0	0
2113929216	0	0
2147483648	0	0
2214592512	0	0
2281701376	0	0
2348810240	0	0
2415919104	0	0
2483027968	0	0
2550136832	0	0
2617245696	0	0
2684354560	0	0
2751463424	0	0
2818572288	0	0
2885681152	0	0
2952790016	0	0
3019898880	0	0
3087007744	0	0
3154116608	0	0
3221225472	0	0
3288334336	0	0
3355443200	0	0
3422552064	0	0
3489660928	0	0
3556769792	0	0
3623878656	0	0
3690987520	0	0
3758096384	0	0
3825205248	0	0
3892314112	0	0
3959422976	0	0
4026531840	0	0
4093640704	0	0
4160749568	0	0
4227858432	0	0
~~~~~~~~~~Reuse Distance Profiler output end~~~~~~~~~~

Sampler size:7851

DRAM Statistics
 CHANNEL 0
 RQ ROW_BUFFER_HIT:    1099039  ROW_BUFFER_MISS:   14151444
 DBUS AVG_CONGESTED_CYCLE:    3.84275
 WQ ROW_BUFFER_HIT:      31308  ROW_BUFFER_MISS:      54617  FULL:          0


CPU 0 Branch Prediction Accuracy: 93.1688% MPKI: 6.13893 Average ROB Occupancy at Mispredict: 207.909
Branch type MPKI
BRANCH_DIRECT_JUMP: 5.13333e-05
BRANCH_INDIRECT: 7.2e-05
BRANCH_CONDITIONAL: 6.13861
BRANCH_DIRECT_CALL: 7.6e-05
BRANCH_INDIRECT_CALL: 5.13333e-05
BRANCH_RETURN: 7e-05

