
*** ChampSim Multicore Out-of-Order Simulator ***

Warmup Instructions: 50000000
Simulation Instructions: 1500000000
Number of CPUs: 1
Off-chip DRAM Size: 4 GiB Channels: 1 Width: 64-bit Data Rate: 3200 MT/s

VirtualMemory physical capacity: 8588881920 num_ppages: 2096895
VirtualMemory page size: 4096 log2_page_size: 12

CPU 0 runs /s/traces/champsim_traces/482.sphinx3-234B.champsimtrace.xz
CPU 0 Bimodal branch predictor
Basic BTB sets: 1024 ways: 8 indirect buffer size: 4096 RAS size: 64
Initializing LRU.
Initializing LRU.
Initializing LRU.
Initializing LRU.
Initializing rdLRU.
Initializing LRU.
Heartbeat CPU 0 instructions: 2000001 cycles: 516162 heartbeat IPC: 3.87475 cumulative IPC: 3.87475 (Simulation time: 0 hr 1 min 7 sec) 
Heartbeat CPU 0 instructions: 4000002 cycles: 1045894 heartbeat IPC: 3.7755 cumulative IPC: 3.82448 (Simulation time: 0 hr 2 min 18 sec) 
Heartbeat CPU 0 instructions: 6000002 cycles: 1569656 heartbeat IPC: 3.81853 cumulative IPC: 3.82249 (Simulation time: 0 hr 3 min 20 sec) 
Heartbeat CPU 0 instructions: 8000003 cycles: 2083993 heartbeat IPC: 3.8885 cumulative IPC: 3.83879 (Simulation time: 0 hr 4 min 29 sec) 
Heartbeat CPU 0 instructions: 10000002 cycles: 2599945 heartbeat IPC: 3.87633 cumulative IPC: 3.84624 (Simulation time: 0 hr 5 min 42 sec) 
Heartbeat CPU 0 instructions: 12000000 cycles: 3116039 heartbeat IPC: 3.87526 cumulative IPC: 3.85104 (Simulation time: 0 hr 6 min 46 sec) 
Heartbeat CPU 0 instructions: 14000002 cycles: 3631953 heartbeat IPC: 3.87662 cumulative IPC: 3.85468 (Simulation time: 0 hr 7 min 58 sec) 
Heartbeat CPU 0 instructions: 16000000 cycles: 4176992 heartbeat IPC: 3.66946 cumulative IPC: 3.83051 (Simulation time: 0 hr 9 min 8 sec) 
Heartbeat CPU 0 instructions: 18000001 cycles: 4683532 heartbeat IPC: 3.94836 cumulative IPC: 3.84325 (Simulation time: 0 hr 10 min 12 sec) 
Heartbeat CPU 0 instructions: 20000000 cycles: 5199717 heartbeat IPC: 3.87458 cumulative IPC: 3.84636 (Simulation time: 0 hr 11 min 24 sec) 
Heartbeat CPU 0 instructions: 22000003 cycles: 5715919 heartbeat IPC: 3.87446 cumulative IPC: 3.8489 (Simulation time: 0 hr 12 min 35 sec) 
Heartbeat CPU 0 instructions: 24000001 cycles: 6232053 heartbeat IPC: 3.87496 cumulative IPC: 3.85106 (Simulation time: 0 hr 13 min 47 sec) 
Heartbeat CPU 0 instructions: 26000000 cycles: 6751830 heartbeat IPC: 3.8478 cumulative IPC: 3.85081 (Simulation time: 0 hr 14 min 55 sec) 
Heartbeat CPU 0 instructions: 28000004 cycles: 7326164 heartbeat IPC: 3.4823 cumulative IPC: 3.82192 (Simulation time: 0 hr 16 min 11 sec) 
Heartbeat CPU 0 instructions: 30000001 cycles: 7832555 heartbeat IPC: 3.94951 cumulative IPC: 3.83017 (Simulation time: 0 hr 17 min 9 sec) 
Heartbeat CPU 0 instructions: 32000001 cycles: 8347788 heartbeat IPC: 3.88174 cumulative IPC: 3.83335 (Simulation time: 0 hr 18 min 22 sec) 
Heartbeat CPU 0 instructions: 34000001 cycles: 8863793 heartbeat IPC: 3.87593 cumulative IPC: 3.83583 (Simulation time: 0 hr 19 min 33 sec) 
Heartbeat CPU 0 instructions: 36000002 cycles: 9379917 heartbeat IPC: 3.87504 cumulative IPC: 3.83799 (Simulation time: 0 hr 20 min 43 sec) 
Heartbeat CPU 0 instructions: 38000003 cycles: 9895820 heartbeat IPC: 3.8767 cumulative IPC: 3.84001 (Simulation time: 0 hr 21 min 54 sec) 
Heartbeat CPU 0 instructions: 40000001 cycles: 10433944 heartbeat IPC: 3.71661 cumulative IPC: 3.83364 (Simulation time: 0 hr 23 min 2 sec) 
Heartbeat CPU 0 instructions: 42000004 cycles: 10941447 heartbeat IPC: 3.94087 cumulative IPC: 3.83862 (Simulation time: 0 hr 24 min 6 sec) 
Heartbeat CPU 0 instructions: 44000004 cycles: 11457157 heartbeat IPC: 3.87815 cumulative IPC: 3.84039 (Simulation time: 0 hr 25 min 15 sec) 
Heartbeat CPU 0 instructions: 46000000 cycles: 11972204 heartbeat IPC: 3.88313 cumulative IPC: 3.84223 (Simulation time: 0 hr 26 min 24 sec) 
Heartbeat CPU 0 instructions: 48000001 cycles: 12505045 heartbeat IPC: 3.75347 cumulative IPC: 3.83845 (Simulation time: 0 hr 27 min 34 sec) 
Heartbeat CPU 0 instructions: 50000004 cycles: 13012258 heartbeat IPC: 3.94312 cumulative IPC: 3.84253 (Simulation time: 0 hr 28 min 36 sec) 

Warmup complete CPU 0 instructions: 50000004 cycles: 13012258 (Simulation time: 0 hr 28 min 36 sec) 

Heartbeat CPU 0 instructions: 52000001 cycles: 15649596 heartbeat IPC: 0.758339 cumulative IPC: 0.758339 (Simulation time: 0 hr 30 min 48 sec) 

Region of Interest Statistics
cpu0_DTLB TOTAL     ACCESS:     366773  HIT:     363251  MISS:       3522
cpu0_DTLB LOAD      ACCESS:     345973  HIT:     342513  MISS:       3460
cpu0_DTLB RFO       ACCESS:      20800  HIT:      20738  MISS:         62
cpu0_DTLB PREFETCH  ACCESS:          0  HIT:          0  MISS:          0
cpu0_DTLB WRITEBACK ACCESS:          0  HIT:          0  MISS:          0
cpu0_ITLB TOTAL     ACCESS:     166094  HIT:     166094  MISS:          0
cpu0_ITLB LOAD      ACCESS:     166094  HIT:     166094  MISS:          0
cpu0_ITLB RFO       ACCESS:          0  HIT:          0  MISS:          0
cpu0_ITLB PREFETCH  ACCESS:          0  HIT:          0  MISS:          0
cpu0_ITLB WRITEBACK ACCESS:          0  HIT:          0  MISS:          0
cpu0_L1I TOTAL     ACCESS:          3  HIT:          3  MISS:          0
cpu0_L1I LOAD      ACCESS:          3  HIT:          3  MISS:          0
cpu0_L1I RFO       ACCESS:          0  HIT:          0  MISS:          0
cpu0_L1I PREFETCH  ACCESS:          0  HIT:          0  MISS:          0
cpu0_L1I WRITEBACK ACCESS:          0  HIT:          0  MISS:          0
cpu0_STLB TOTAL     ACCESS:       3522  HIT:       2704  MISS:        818
cpu0_STLB LOAD      ACCESS:       3460  HIT:       2646  MISS:        814
cpu0_STLB RFO       ACCESS:         62  HIT:         58  MISS:          4
cpu0_STLB PREFETCH  ACCESS:          0  HIT:          0  MISS:          0
cpu0_STLB WRITEBACK ACCESS:          0  HIT:          0  MISS:          0
cpu0_L1D TOTAL     ACCESS:     230719  HIT:     201621  MISS:      29098
cpu0_L1D LOAD      ACCESS:     194613  HIT:     165792  MISS:      28821
cpu0_L1D RFO       ACCESS:      35321  HIT:      35055  MISS:        266
cpu0_L1D PREFETCH  ACCESS:          0  HIT:          0  MISS:          0
cpu0_L1D WRITEBACK ACCESS:          0  HIT:          0  MISS:          0
cpu0_L2C TOTAL     ACCESS:      29375  HIT:       6328  MISS:      23047
cpu0_L2C LOAD      ACCESS:      28821  HIT:       6040  MISS:      22781
cpu0_L2C RFO       ACCESS:        266  HIT:          0  MISS:        266
cpu0_L2C PREFETCH  ACCESS:          0  HIT:          0  MISS:          0
cpu0_L2C WRITEBACK ACCESS:        277  HIT:        277  MISS:          0
LLC TOTAL     ACCESS:      23435  HIT:       4828  MISS:      18607
LLC LOAD      ACCESS:      22781  HIT:       4175  MISS:      18606
LLC RFO       ACCESS:        266  HIT:        265  MISS:          1
LLC PREFETCH  ACCESS:          0  HIT:          0  MISS:          0
LLC WRITEBACK ACCESS:        388  HIT:        388  MISS:          0
Heartbeat CPU 0 instructions: 54000003 cycles: 17700741 heartbeat IPC: 0.975066 cumulative IPC: 0.853154 (Simulation time: 0 hr 32 min 48 sec) 

Region of Interest Statistics
cpu0_DTLB TOTAL     ACCESS:     723680  HIT:     717690  MISS:       5990
cpu0_DTLB LOAD      ACCESS:     680076  HIT:     674323  MISS:       5753
cpu0_DTLB RFO       ACCESS:      43604  HIT:      43367  MISS:        237
cpu0_DTLB PREFETCH  ACCESS:          0  HIT:          0  MISS:          0
cpu0_DTLB WRITEBACK ACCESS:          0  HIT:          0  MISS:          0
cpu0_ITLB TOTAL     ACCESS:     340925  HIT:     340925  MISS:          0
cpu0_ITLB LOAD      ACCESS:     340925  HIT:     340925  MISS:          0
cpu0_ITLB RFO       ACCESS:          0  HIT:          0  MISS:          0
cpu0_ITLB PREFETCH  ACCESS:          0  HIT:          0  MISS:          0
cpu0_ITLB WRITEBACK ACCESS:          0  HIT:          0  MISS:          0
cpu0_L1I TOTAL     ACCESS:       2011  HIT:       2011  MISS:          0
cpu0_L1I LOAD      ACCESS:       2011  HIT:       2011  MISS:          0
cpu0_L1I RFO       ACCESS:          0  HIT:          0  MISS:          0
cpu0_L1I PREFETCH  ACCESS:          0  HIT:          0  MISS:          0
cpu0_L1I WRITEBACK ACCESS:          0  HIT:          0  MISS:          0
cpu0_STLB TOTAL     ACCESS:       5990  HIT:       4335  MISS:       1655
cpu0_STLB LOAD      ACCESS:       5753  HIT:       4142  MISS:       1611
cpu0_STLB RFO       ACCESS:        237  HIT:        193  MISS:         44
cpu0_STLB PREFETCH  ACCESS:          0  HIT:          0  MISS:          0
cpu0_STLB WRITEBACK ACCESS:          0  HIT:          0  MISS:          0
cpu0_L1D TOTAL     ACCESS:     459160  HIT:     400304  MISS:      58856
cpu0_L1D LOAD      ACCESS:     391813  HIT:     336458  MISS:      55355
cpu0_L1D RFO       ACCESS:      65756  HIT:      62277  MISS:       3479
cpu0_L1D PREFETCH  ACCESS:          0  HIT:          0  MISS:          0
cpu0_L1D WRITEBACK ACCESS:          0  HIT:          0  MISS:          0
cpu0_L2C TOTAL     ACCESS:      63483  HIT:      16547  MISS:      46936
cpu0_L2C LOAD      ACCESS:      55354  HIT:      11428  MISS:      43926
cpu0_L2C RFO       ACCESS:       3479  HIT:        488  MISS:       2991
cpu0_L2C PREFETCH  ACCESS:          0  HIT:          0  MISS:          0
cpu0_L2C WRITEBACK ACCESS:       4628  HIT:       4614  MISS:         14
LLC TOTAL     ACCESS:      48719  HIT:      14759  MISS:      33960
LLC LOAD      ACCESS:      43926  HIT:       9974  MISS:      33952
LLC RFO       ACCESS:       2991  HIT:       2984  MISS:          7
LLC PREFETCH  ACCESS:          0  HIT:          0  MISS:          0
LLC WRITEBACK ACCESS:       1797  HIT:       1797  MISS:          0
Heartbeat CPU 0 instructions: 56000004 cycles: 19702037 heartbeat IPC: 0.999353 cumulative IPC: 0.896891 (Simulation time: 0 hr 34 min 44 sec) 

Region of Interest Statistics
cpu0_DTLB TOTAL     ACCESS:    1055386  HIT:    1048254  MISS:       7132
cpu0_DTLB LOAD      ACCESS:     997506  HIT:     990666  MISS:       6840
cpu0_DTLB RFO       ACCESS:      57880  HIT:      57588  MISS:        292
cpu0_DTLB PREFETCH  ACCESS:          0  HIT:          0  MISS:          0
cpu0_DTLB WRITEBACK ACCESS:          0  HIT:          0  MISS:          0
cpu0_ITLB TOTAL     ACCESS:     523763  HIT:     523763  MISS:          0
cpu0_ITLB LOAD      ACCESS:     523763  HIT:     523763  MISS:          0
cpu0_ITLB RFO       ACCESS:          0  HIT:          0  MISS:          0
cpu0_ITLB PREFETCH  ACCESS:          0  HIT:          0  MISS:          0
cpu0_ITLB WRITEBACK ACCESS:          0  HIT:          0  MISS:          0
cpu0_L1I TOTAL     ACCESS:       2060  HIT:       2060  MISS:          0
cpu0_L1I LOAD      ACCESS:       2060  HIT:       2060  MISS:          0
cpu0_L1I RFO       ACCESS:          0  HIT:          0  MISS:          0
cpu0_L1I PREFETCH  ACCESS:          0  HIT:          0  MISS:          0
cpu0_L1I WRITEBACK ACCESS:          0  HIT:          0  MISS:          0
cpu0_STLB TOTAL     ACCESS:       7132  HIT:       4884  MISS:       2248
cpu0_STLB LOAD      ACCESS:       6840  HIT:       4637  MISS:       2203
cpu0_STLB RFO       ACCESS:        292  HIT:        247  MISS:         45
cpu0_STLB PREFETCH  ACCESS:          0  HIT:          0  MISS:          0
cpu0_STLB WRITEBACK ACCESS:          0  HIT:          0  MISS:          0
cpu0_L1D TOTAL     ACCESS:     673709  HIT:     587816  MISS:      85893
cpu0_L1D LOAD      ACCESS:     587613  HIT:     506003  MISS:      81610
cpu0_L1D RFO       ACCESS:      83937  HIT:      79679  MISS:       4258
cpu0_L1D PREFETCH  ACCESS:          0  HIT:          0  MISS:          0
cpu0_L1D WRITEBACK ACCESS:          0  HIT:          0  MISS:          0
cpu0_L2C TOTAL     ACCESS:      91330  HIT:      18243  MISS:      73087
cpu0_L2C LOAD      ACCESS:      81609  HIT:      12315  MISS:      69294
cpu0_L2C RFO       ACCESS:       4258  HIT:        488  MISS:       3770
cpu0_L2C PREFETCH  ACCESS:          0  HIT:          0  MISS:          0
cpu0_L2C WRITEBACK ACCESS:       5438  HIT:       5423  MISS:         15
LLC TOTAL     ACCESS:      77784  HIT:      24438  MISS:      53346
LLC LOAD      ACCESS:      69294  HIT:      15956  MISS:      53338
LLC RFO       ACCESS:       3770  HIT:       3763  MISS:          7
LLC PREFETCH  ACCESS:          0  HIT:          0  MISS:          0
LLC WRITEBACK ACCESS:       4712  HIT:       4712  MISS:          0
Heartbeat CPU 0 instructions: 58000003 cycles: 22034928 heartbeat IPC: 0.857305 cumulative IPC: 0.886655 (Simulation time: 0 hr 36 min 49 sec) 

Region of Interest Statistics
cpu0_DTLB TOTAL     ACCESS:    1421829  HIT:    1410923  MISS:      10906
cpu0_DTLB LOAD      ACCESS:    1343071  HIT:    1332533  MISS:      10538
cpu0_DTLB RFO       ACCESS:      78758  HIT:      78390  MISS:        368
cpu0_DTLB PREFETCH  ACCESS:          0  HIT:          0  MISS:          0
cpu0_DTLB WRITEBACK ACCESS:          0  HIT:          0  MISS:          0
cpu0_ITLB TOTAL     ACCESS:     689564  HIT:     689564  MISS:          0
cpu0_ITLB LOAD      ACCESS:     689564  HIT:     689564  MISS:          0
cpu0_ITLB RFO       ACCESS:          0  HIT:          0  MISS:          0
cpu0_ITLB PREFETCH  ACCESS:          0  HIT:          0  MISS:          0
cpu0_ITLB WRITEBACK ACCESS:          0  HIT:          0  MISS:          0
cpu0_L1I TOTAL     ACCESS:       2060  HIT:       2060  MISS:          0
cpu0_L1I LOAD      ACCESS:       2060  HIT:       2060  MISS:          0
cpu0_L1I RFO       ACCESS:          0  HIT:          0  MISS:          0
cpu0_L1I PREFETCH  ACCESS:          0  HIT:          0  MISS:          0
cpu0_L1I WRITEBACK ACCESS:          0  HIT:          0  MISS:          0
cpu0_STLB TOTAL     ACCESS:      10906  HIT:       7768  MISS:       3138
cpu0_STLB LOAD      ACCESS:      10538  HIT:       7450  MISS:       3088
cpu0_STLB RFO       ACCESS:        368  HIT:        318  MISS:         50
cpu0_STLB PREFETCH  ACCESS:          0  HIT:          0  MISS:          0
cpu0_STLB WRITEBACK ACCESS:          0  HIT:          0  MISS:          0
cpu0_L1D TOTAL     ACCESS:     912233  HIT:     797262  MISS:     114971
cpu0_L1D LOAD      ACCESS:     790262  HIT:     679894  MISS:     110368
cpu0_L1D RFO       ACCESS:     118964  HIT:     114396  MISS:       4568
cpu0_L1D PREFETCH  ACCESS:          0  HIT:          0  MISS:          0
cpu0_L1D WRITEBACK ACCESS:          0  HIT:          0  MISS:          0
cpu0_L2C TOTAL     ACCESS:     120718  HIT:      24595  MISS:      96123
cpu0_L2C LOAD      ACCESS:     110367  HIT:      18347  MISS:      92020
cpu0_L2C RFO       ACCESS:       4568  HIT:        488  MISS:       4080
cpu0_L2C PREFETCH  ACCESS:          0  HIT:          0  MISS:          0
cpu0_L2C WRITEBACK ACCESS:       5748  HIT:       5733  MISS:         15
LLC TOTAL     ACCESS:     101285  HIT:      32221  MISS:      69064
LLC LOAD      ACCESS:      92020  HIT:      22964  MISS:      69056
LLC RFO       ACCESS:       4080  HIT:       4073  MISS:          7
LLC PREFETCH  ACCESS:          0  HIT:          0  MISS:          0
LLC WRITEBACK ACCESS:       5177  HIT:       5177  MISS:          0
Heartbeat CPU 0 instructions: 60000004 cycles: 24015566 heartbeat IPC: 1.00978 cumulative IPC: 0.908818 (Simulation time: 0 hr 38 min 57 sec) 

Region of Interest Statistics
cpu0_DTLB TOTAL     ACCESS:    1782731  HIT:    1769166  MISS:      13565
cpu0_DTLB LOAD      ACCESS:    1680619  HIT:    1667591  MISS:      13028
cpu0_DTLB RFO       ACCESS:     102112  HIT:     101575  MISS:        537
cpu0_DTLB PREFETCH  ACCESS:          0  HIT:          0  MISS:          0
cpu0_DTLB WRITEBACK ACCESS:          0  HIT:          0  MISS:          0
cpu0_ITLB TOTAL     ACCESS:     861093  HIT:     861093  MISS:          0
cpu0_ITLB LOAD      ACCESS:     861093  HIT:     861093  MISS:          0
cpu0_ITLB RFO       ACCESS:          0  HIT:          0  MISS:          0
cpu0_ITLB PREFETCH  ACCESS:          0  HIT:          0  MISS:          0
cpu0_ITLB WRITEBACK ACCESS:          0  HIT:          0  MISS:          0
cpu0_L1I TOTAL     ACCESS:       3983  HIT:       3983  MISS:          0
cpu0_L1I LOAD      ACCESS:       3983  HIT:       3983  MISS:          0
cpu0_L1I RFO       ACCESS:          0  HIT:          0  MISS:          0
cpu0_L1I PREFETCH  ACCESS:          0  HIT:          0  MISS:          0
cpu0_L1I WRITEBACK ACCESS:          0  HIT:          0  MISS:          0
cpu0_STLB TOTAL     ACCESS:      13565  HIT:       9564  MISS:       4001
cpu0_STLB LOAD      ACCESS:      13028  HIT:       9119  MISS:       3909
cpu0_STLB RFO       ACCESS:        537  HIT:        445  MISS:         92
cpu0_STLB PREFETCH  ACCESS:          0  HIT:          0  MISS:          0
cpu0_STLB WRITEBACK ACCESS:          0  HIT:          0  MISS:          0
cpu0_L1D TOTAL     ACCESS:    1147198  HIT:    1002444  MISS:     144754
cpu0_L1D LOAD      ACCESS:     992111  HIT:     854980  MISS:     137131
cpu0_L1D RFO       ACCESS:     151249  HIT:     143675  MISS:       7574
cpu0_L1D PREFETCH  ACCESS:          0  HIT:          0  MISS:          0
cpu0_L1D WRITEBACK ACCESS:          0  HIT:          0  MISS:          0
cpu0_L2C TOTAL     ACCESS:     154310  HIT:      34806  MISS:     119504
cpu0_L2C LOAD      ACCESS:     137130  HIT:      24398  MISS:     112732
cpu0_L2C RFO       ACCESS:       7574  HIT:        844  MISS:       6730
cpu0_L2C PREFETCH  ACCESS:          0  HIT:          0  MISS:          0
cpu0_L2C WRITEBACK ACCESS:       9557  HIT:       9528  MISS:         29
LLC TOTAL     ACCESS:     125484  HIT:      43204  MISS:      82280
LLC LOAD      ACCESS:     112732  HIT:      30462  MISS:      82270
LLC RFO       ACCESS:       6730  HIT:       6722  MISS:          8
LLC PREFETCH  ACCESS:          0  HIT:          0  MISS:          0
LLC WRITEBACK ACCESS:       6009  HIT:       6009  MISS:          0
Heartbeat CPU 0 instructions: 62000004 cycles: 25819018 heartbeat IPC: 1.10898 cumulative IPC: 0.937005 (Simulation time: 0 hr 40 min 43 sec) 

Region of Interest Statistics
cpu0_DTLB TOTAL     ACCESS:    2108253  HIT:    2093935  MISS:      14318
cpu0_DTLB LOAD      ACCESS:    1993500  HIT:    1979739  MISS:      13761
cpu0_DTLB RFO       ACCESS:     114753  HIT:     114196  MISS:        557
cpu0_DTLB PREFETCH  ACCESS:          0  HIT:          0  MISS:          0
cpu0_DTLB WRITEBACK ACCESS:          0  HIT:          0  MISS:          0
cpu0_ITLB TOTAL     ACCESS:    1047215  HIT:    1047215  MISS:          0
cpu0_ITLB LOAD      ACCESS:    1047215  HIT:    1047215  MISS:          0
cpu0_ITLB RFO       ACCESS:          0  HIT:          0  MISS:          0
cpu0_ITLB PREFETCH  ACCESS:          0  HIT:          0  MISS:          0
cpu0_ITLB WRITEBACK ACCESS:          0  HIT:          0  MISS:          0
cpu0_L1I TOTAL     ACCESS:       4031  HIT:       4031  MISS:          0
cpu0_L1I LOAD      ACCESS:       4031  HIT:       4031  MISS:          0
cpu0_L1I RFO       ACCESS:          0  HIT:          0  MISS:          0
cpu0_L1I PREFETCH  ACCESS:          0  HIT:          0  MISS:          0
cpu0_L1I WRITEBACK ACCESS:          0  HIT:          0  MISS:          0
cpu0_STLB TOTAL     ACCESS:      14318  HIT:       9848  MISS:       4470
cpu0_STLB LOAD      ACCESS:      13761  HIT:       9384  MISS:       4377
cpu0_STLB RFO       ACCESS:        557  HIT:        464  MISS:         93
cpu0_STLB PREFETCH  ACCESS:          0  HIT:          0  MISS:          0
cpu0_STLB WRITEBACK ACCESS:          0  HIT:          0  MISS:          0
cpu0_L1D TOTAL     ACCESS:    1359306  HIT:    1188194  MISS:     171112
cpu0_L1D LOAD      ACCESS:    1188966  HIT:    1026305  MISS:     162661
cpu0_L1D RFO       ACCESS:     166054  HIT:     157654  MISS:       8400
cpu0_L1D PREFETCH  ACCESS:          0  HIT:          0  MISS:          0
cpu0_L1D WRITEBACK ACCESS:          0  HIT:          0  MISS:          0
cpu0_L2C TOTAL     ACCESS:     181574  HIT:      35916  MISS:     145658
cpu0_L2C LOAD      ACCESS:     162660  HIT:      24597  MISS:     138063
cpu0_L2C RFO       ACCESS:       8400  HIT:        850  MISS:       7550
cpu0_L2C PREFETCH  ACCESS:          0  HIT:          0  MISS:          0
cpu0_L2C WRITEBACK ACCESS:      10463  HIT:      10433  MISS:         30
LLC TOTAL     ACCESS:     154958  HIT:      54762  MISS:     100196
LLC LOAD      ACCESS:     138063  HIT:      37878  MISS:     100185
LLC RFO       ACCESS:       7550  HIT:       7542  MISS:          8
LLC PREFETCH  ACCESS:          0  HIT:          0  MISS:          0
LLC WRITEBACK ACCESS:       9330  HIT:       9329  MISS:          1
Heartbeat CPU 0 instructions: 64000000 cycles: 28011290 heartbeat IPC: 0.912294 cumulative IPC: 0.933393 (Simulation time: 0 hr 42 min 37 sec) 

Region of Interest Statistics
cpu0_DTLB TOTAL     ACCESS:    2474145  HIT:    2456053  MISS:      18092
cpu0_DTLB LOAD      ACCESS:    2338146  HIT:    2320715  MISS:      17431
cpu0_DTLB RFO       ACCESS:     135999  HIT:     135338  MISS:        661
cpu0_DTLB PREFETCH  ACCESS:          0  HIT:          0  MISS:          0
cpu0_DTLB WRITEBACK ACCESS:          0  HIT:          0  MISS:          0
cpu0_ITLB TOTAL     ACCESS:    1212007  HIT:    1212007  MISS:          0
cpu0_ITLB LOAD      ACCESS:    1212007  HIT:    1212007  MISS:          0
cpu0_ITLB RFO       ACCESS:          0  HIT:          0  MISS:          0
cpu0_ITLB PREFETCH  ACCESS:          0  HIT:          0  MISS:          0
cpu0_ITLB WRITEBACK ACCESS:          0  HIT:          0  MISS:          0
cpu0_L1I TOTAL     ACCESS:       4031  HIT:       4031  MISS:          0
cpu0_L1I LOAD      ACCESS:       4031  HIT:       4031  MISS:          0
cpu0_L1I RFO       ACCESS:          0  HIT:          0  MISS:          0
cpu0_L1I PREFETCH  ACCESS:          0  HIT:          0  MISS:          0
cpu0_L1I WRITEBACK ACCESS:          0  HIT:          0  MISS:          0
cpu0_STLB TOTAL     ACCESS:      18092  HIT:      12712  MISS:       5380
cpu0_STLB LOAD      ACCESS:      17431  HIT:      12148  MISS:       5283
cpu0_STLB RFO       ACCESS:        661  HIT:        564  MISS:         97
cpu0_STLB PREFETCH  ACCESS:          0  HIT:          0  MISS:          0
cpu0_STLB WRITEBACK ACCESS:          0  HIT:          0  MISS:          0
cpu0_L1D TOTAL     ACCESS:    1595603  HIT:    1395808  MISS:     199795
cpu0_L1D LOAD      ACCESS:    1389620  HIT:    1198644  MISS:     190976
cpu0_L1D RFO       ACCESS:     200843  HIT:     192086  MISS:       8757
cpu0_L1D PREFETCH  ACCESS:          0  HIT:          0  MISS:          0
cpu0_L1D WRITEBACK ACCESS:          0  HIT:          0  MISS:          0
cpu0_L2C TOTAL     ACCESS:     210605  HIT:      41980  MISS:     168625
cpu0_L2C LOAD      ACCESS:     190975  HIT:      30303  MISS:     160672
cpu0_L2C RFO       ACCESS:       8757  HIT:        850  MISS:       7907
cpu0_L2C PREFETCH  ACCESS:          0  HIT:          0  MISS:          0
cpu0_L2C WRITEBACK ACCESS:      10811  HIT:      10781  MISS:         30
LLC TOTAL     ACCESS:     178338  HIT:      63912  MISS:     114426
LLC LOAD      ACCESS:     160672  HIT:      46257  MISS:     114415
LLC RFO       ACCESS:       7907  HIT:       7899  MISS:          8
LLC PREFETCH  ACCESS:          0  HIT:          0  MISS:          0
LLC WRITEBACK ACCESS:       9743  HIT:       9742  MISS:          1
Heartbeat CPU 0 instructions: 66000001 cycles: 29685138 heartbeat IPC: 1.19485 cumulative IPC: 0.959642 (Simulation time: 0 hr 44 min 23 sec) 

Region of Interest Statistics
cpu0_DTLB TOTAL     ACCESS:    2827985  HIT:    2807457  MISS:      20528
cpu0_DTLB LOAD      ACCESS:    2669956  HIT:    2650251  MISS:      19705
cpu0_DTLB RFO       ACCESS:     158029  HIT:     157206  MISS:        823
cpu0_DTLB PREFETCH  ACCESS:          0  HIT:          0  MISS:          0
cpu0_DTLB WRITEBACK ACCESS:          0  HIT:          0  MISS:          0
cpu0_ITLB TOTAL     ACCESS:    1387112  HIT:    1387112  MISS:          0
cpu0_ITLB LOAD      ACCESS:    1387112  HIT:    1387112  MISS:          0
cpu0_ITLB RFO       ACCESS:          0  HIT:          0  MISS:          0
cpu0_ITLB PREFETCH  ACCESS:          0  HIT:          0  MISS:          0
cpu0_ITLB WRITEBACK ACCESS:          0  HIT:          0  MISS:          0
cpu0_L1I TOTAL     ACCESS:       6472  HIT:       6472  MISS:          0
cpu0_L1I LOAD      ACCESS:       6472  HIT:       6472  MISS:          0
cpu0_L1I RFO       ACCESS:          0  HIT:          0  MISS:          0
cpu0_L1I PREFETCH  ACCESS:          0  HIT:          0  MISS:          0
cpu0_L1I WRITEBACK ACCESS:          0  HIT:          0  MISS:          0
cpu0_STLB TOTAL     ACCESS:      20528  HIT:      14360  MISS:       6168
cpu0_STLB LOAD      ACCESS:      19705  HIT:      13674  MISS:       6031
cpu0_STLB RFO       ACCESS:        823  HIT:        686  MISS:        137
cpu0_STLB PREFETCH  ACCESS:          0  HIT:          0  MISS:          0
cpu0_STLB WRITEBACK ACCESS:          0  HIT:          0  MISS:          0
cpu0_L1D TOTAL     ACCESS:    1828395  HIT:    1599544  MISS:     228851
cpu0_L1D LOAD      ACCESS:    1592097  HIT:    1375146  MISS:     216951
cpu0_L1D RFO       ACCESS:     230401  HIT:     218574  MISS:      11827
cpu0_L1D PREFETCH  ACCESS:          0  HIT:          0  MISS:          0
cpu0_L1D WRITEBACK ACCESS:          0  HIT:          0  MISS:          0
cpu0_L2C TOTAL     ACCESS:     243474  HIT:      51273  MISS:     192201
cpu0_L2C LOAD      ACCESS:     216950  HIT:      35454  MISS:     181496
cpu0_L2C RFO       ACCESS:      11827  HIT:       1188  MISS:      10639
cpu0_L2C PREFETCH  ACCESS:          0  HIT:          0  MISS:          0
cpu0_L2C WRITEBACK ACCESS:      14624  HIT:      14580  MISS:         44
LLC TOTAL     ACCESS:     203003  HIT:      77918  MISS:     125085
LLC LOAD      ACCESS:     181496  HIT:      56436  MISS:     125060
LLC RFO       ACCESS:      10639  HIT:      10618  MISS:         21
LLC PREFETCH  ACCESS:          0  HIT:          0  MISS:          0
LLC WRITEBACK ACCESS:      10846  HIT:      10845  MISS:          1
Heartbeat CPU 0 instructions: 68000000 cycles: 31291313 heartbeat IPC: 1.24519 cumulative IPC: 0.984733 (Simulation time: 0 hr 45 min 58 sec) 

Region of Interest Statistics
cpu0_DTLB TOTAL     ACCESS:    3158370  HIT:    3136728  MISS:      21642
cpu0_DTLB LOAD      ACCESS:    2986841  HIT:    2966071  MISS:      20770
cpu0_DTLB RFO       ACCESS:     171529  HIT:     170657  MISS:        872
cpu0_DTLB PREFETCH  ACCESS:          0  HIT:          0  MISS:          0
cpu0_DTLB WRITEBACK ACCESS:          0  HIT:          0  MISS:          0
cpu0_ITLB TOTAL     ACCESS:    1570493  HIT:    1570493  MISS:          0
cpu0_ITLB LOAD      ACCESS:    1570493  HIT:    1570493  MISS:          0
cpu0_ITLB RFO       ACCESS:          0  HIT:          0  MISS:          0
cpu0_ITLB PREFETCH  ACCESS:          0  HIT:          0  MISS:          0
cpu0_ITLB WRITEBACK ACCESS:          0  HIT:          0  MISS:          0
cpu0_L1I TOTAL     ACCESS:       6520  HIT:       6520  MISS:          0
cpu0_L1I LOAD      ACCESS:       6520  HIT:       6520  MISS:          0
cpu0_L1I RFO       ACCESS:          0  HIT:          0  MISS:          0
cpu0_L1I PREFETCH  ACCESS:          0  HIT:          0  MISS:          0
cpu0_L1I WRITEBACK ACCESS:          0  HIT:          0  MISS:          0
cpu0_STLB TOTAL     ACCESS:      21642  HIT:      14905  MISS:       6737
cpu0_STLB LOAD      ACCESS:      20770  HIT:      14171  MISS:       6599
cpu0_STLB RFO       ACCESS:        872  HIT:        734  MISS:        138
cpu0_STLB PREFETCH  ACCESS:          0  HIT:          0  MISS:          0
cpu0_STLB WRITEBACK ACCESS:          0  HIT:          0  MISS:          0
cpu0_L1D TOTAL     ACCESS:    2051322  HIT:    1795693  MISS:     255629
cpu0_L1D LOAD      ACCESS:    1796860  HIT:    1553918  MISS:     242942
cpu0_L1D RFO       ACCESS:     248025  HIT:     235413  MISS:      12612
cpu0_L1D PREFETCH  ACCESS:          0  HIT:          0  MISS:          0
cpu0_L1D WRITEBACK ACCESS:          0  HIT:          0  MISS:          0
cpu0_L2C TOTAL     ACCESS:     271066  HIT:      52849  MISS:     218217
cpu0_L2C LOAD      ACCESS:     242941  HIT:      36217  MISS:     206724
cpu0_L2C RFO       ACCESS:      12612  HIT:       1188  MISS:      11424
cpu0_L2C PREFETCH  ACCESS:          0  HIT:          0  MISS:          0
cpu0_L2C WRITEBACK ACCESS:      15438  HIT:      15393  MISS:         45
LLC TOTAL     ACCESS:     232062  HIT:      93469  MISS:     138593
LLC LOAD      ACCESS:     206724  HIT:      68157  MISS:     138567
LLC RFO       ACCESS:      11424  HIT:      11402  MISS:         22
LLC PREFETCH  ACCESS:          0  HIT:          0  MISS:          0
LLC WRITEBACK ACCESS:      13890  HIT:      13889  MISS:          1
Heartbeat CPU 0 instructions: 70000000 cycles: 33213540 heartbeat IPC: 1.04046 cumulative IPC: 0.990036 (Simulation time: 0 hr 47 min 43 sec) 

Region of Interest Statistics
cpu0_DTLB TOTAL     ACCESS:    3524874  HIT:    3499688  MISS:      25186
cpu0_DTLB LOAD      ACCESS:    3332256  HIT:    3308006  MISS:      24250
cpu0_DTLB RFO       ACCESS:     192618  HIT:     191682  MISS:        936
cpu0_DTLB PREFETCH  ACCESS:          0  HIT:          0  MISS:          0
cpu0_DTLB WRITEBACK ACCESS:          0  HIT:          0  MISS:          0
cpu0_ITLB TOTAL     ACCESS:    1735809  HIT:    1735809  MISS:          0
cpu0_ITLB LOAD      ACCESS:    1735809  HIT:    1735809  MISS:          0
cpu0_ITLB RFO       ACCESS:          0  HIT:          0  MISS:          0
cpu0_ITLB PREFETCH  ACCESS:          0  HIT:          0  MISS:          0
cpu0_ITLB WRITEBACK ACCESS:          0  HIT:          0  MISS:          0
cpu0_L1I TOTAL     ACCESS:       6520  HIT:       6520  MISS:          0
cpu0_L1I LOAD      ACCESS:       6520  HIT:       6520  MISS:          0
cpu0_L1I RFO       ACCESS:          0  HIT:          0  MISS:          0
cpu0_L1I PREFETCH  ACCESS:          0  HIT:          0  MISS:          0
cpu0_L1I WRITEBACK ACCESS:          0  HIT:          0  MISS:          0
cpu0_STLB TOTAL     ACCESS:      25186  HIT:      17598  MISS:       7588
cpu0_STLB LOAD      ACCESS:      24250  HIT:      16804  MISS:       7446
cpu0_STLB RFO       ACCESS:        936  HIT:        794  MISS:        142
cpu0_STLB PREFETCH  ACCESS:          0  HIT:          0  MISS:          0
cpu0_STLB WRITEBACK ACCESS:          0  HIT:          0  MISS:          0
cpu0_L1D TOTAL     ACCESS:    2292758  HIT:    2008492  MISS:     284266
cpu0_L1D LOAD      ACCESS:    2002683  HIT:    1731445  MISS:     271238
cpu0_L1D RFO       ACCESS:     282834  HIT:     269891  MISS:      12943
cpu0_L1D PREFETCH  ACCESS:          0  HIT:          0  MISS:          0
cpu0_L1D WRITEBACK ACCESS:          0  HIT:          0  MISS:          0
cpu0_L2C TOTAL     ACCESS:     300036  HIT:      59100  MISS:     240936
cpu0_L2C LOAD      ACCESS:     271237  HIT:      42126  MISS:     229111
cpu0_L2C RFO       ACCESS:      12943  HIT:       1188  MISS:      11755
cpu0_L2C PREFETCH  ACCESS:          0  HIT:          0  MISS:          0
cpu0_L2C WRITEBACK ACCESS:      15771  HIT:      15726  MISS:         45
LLC TOTAL     ACCESS:     255239  HIT:     105093  MISS:     150146
LLC LOAD      ACCESS:     229111  HIT:      78991  MISS:     150120
LLC RFO       ACCESS:      11755  HIT:      11733  MISS:         22
LLC PREFETCH  ACCESS:          0  HIT:          0  MISS:          0
LLC WRITEBACK ACCESS:      14348  HIT:      14347  MISS:          1
Heartbeat CPU 0 instructions: 72000002 cycles: 34699812 heartbeat IPC: 1.34565 cumulative IPC: 1.01441 (Simulation time: 0 hr 49 min 22 sec) 

Region of Interest Statistics
cpu0_DTLB TOTAL     ACCESS:    3870153  HIT:    3842936  MISS:      27217
cpu0_DTLB LOAD      ACCESS:    3657568  HIT:    3631450  MISS:      26118
cpu0_DTLB RFO       ACCESS:     212585  HIT:     211486  MISS:       1099
cpu0_DTLB PREFETCH  ACCESS:          0  HIT:          0  MISS:          0
cpu0_DTLB WRITEBACK ACCESS:          0  HIT:          0  MISS:          0
cpu0_ITLB TOTAL     ACCESS:    1915231  HIT:    1915231  MISS:          0
cpu0_ITLB LOAD      ACCESS:    1915231  HIT:    1915231  MISS:          0
cpu0_ITLB RFO       ACCESS:          0  HIT:          0  MISS:          0
cpu0_ITLB PREFETCH  ACCESS:          0  HIT:          0  MISS:          0
cpu0_ITLB WRITEBACK ACCESS:          0  HIT:          0  MISS:          0
cpu0_L1I TOTAL     ACCESS:       9103  HIT:       9103  MISS:          0
cpu0_L1I LOAD      ACCESS:       9103  HIT:       9103  MISS:          0
cpu0_L1I RFO       ACCESS:          0  HIT:          0  MISS:          0
cpu0_L1I PREFETCH  ACCESS:          0  HIT:          0  MISS:          0
cpu0_L1I WRITEBACK ACCESS:          0  HIT:          0  MISS:          0
cpu0_STLB TOTAL     ACCESS:      27217  HIT:      18900  MISS:       8317
cpu0_STLB LOAD      ACCESS:      26118  HIT:      17983  MISS:       8135
cpu0_STLB RFO       ACCESS:       1099  HIT:        917  MISS:        182
cpu0_STLB PREFETCH  ACCESS:          0  HIT:          0  MISS:          0
cpu0_STLB WRITEBACK ACCESS:          0  HIT:          0  MISS:          0
cpu0_L1D TOTAL     ACCESS:    2523307  HIT:    2210741  MISS:     312566
cpu0_L1D LOAD      ACCESS:    2207717  HIT:    1911380  MISS:     296337
cpu0_L1D RFO       ACCESS:     307660  HIT:     291527  MISS:      16133
cpu0_L1D PREFETCH  ACCESS:          0  HIT:          0  MISS:          0
cpu0_L1D WRITEBACK ACCESS:          0  HIT:          0  MISS:          0
cpu0_L2C TOTAL     ACCESS:     332272  HIT:      67124  MISS:     265148
cpu0_L2C LOAD      ACCESS:     296336  HIT:      45900  MISS:     250436
cpu0_L2C RFO       ACCESS:      16133  HIT:       1511  MISS:      14622
cpu0_L2C PREFETCH  ACCESS:          0  HIT:          0  MISS:          0
cpu0_L2C WRITEBACK ACCESS:      19707  HIT:      19647  MISS:         60
LLC TOTAL     ACCESS:     282404  HIT:     122283  MISS:     160121
LLC LOAD      ACCESS:     250436  HIT:      90359  MISS:     160077
LLC RFO       ACCESS:      14622  HIT:      14587  MISS:         35
LLC PREFETCH  ACCESS:          0  HIT:          0  MISS:          0
LLC WRITEBACK ACCESS:      17316  HIT:      17311  MISS:          5
Heartbeat CPU 0 instructions: 74000003 cycles: 36372842 heartbeat IPC: 1.19544 cumulative IPC: 1.02737 (Simulation time: 0 hr 51 min 1 sec) 

Region of Interest Statistics
cpu0_DTLB TOTAL     ACCESS:    4209747  HIT:    4180905  MISS:      28842
cpu0_DTLB LOAD      ACCESS:    3981494  HIT:    3953830  MISS:      27664
cpu0_DTLB RFO       ACCESS:     228253  HIT:     227075  MISS:       1178
cpu0_DTLB PREFETCH  ACCESS:          0  HIT:          0  MISS:          0
cpu0_DTLB WRITEBACK ACCESS:          0  HIT:          0  MISS:          0
cpu0_ITLB TOTAL     ACCESS:    2093945  HIT:    2093945  MISS:          0
cpu0_ITLB LOAD      ACCESS:    2093945  HIT:    2093945  MISS:          0
cpu0_ITLB RFO       ACCESS:          0  HIT:          0  MISS:          0
cpu0_ITLB PREFETCH  ACCESS:          0  HIT:          0  MISS:          0
cpu0_ITLB WRITEBACK ACCESS:          0  HIT:          0  MISS:          0
cpu0_L1I TOTAL     ACCESS:       9136  HIT:       9136  MISS:          0
cpu0_L1I LOAD      ACCESS:       9136  HIT:       9136  MISS:          0
cpu0_L1I RFO       ACCESS:          0  HIT:          0  MISS:          0
cpu0_L1I PREFETCH  ACCESS:          0  HIT:          0  MISS:          0
cpu0_L1I WRITEBACK ACCESS:          0  HIT:          0  MISS:          0
cpu0_STLB TOTAL     ACCESS:      28842  HIT:      19835  MISS:       9007
cpu0_STLB LOAD      ACCESS:      27664  HIT:      18841  MISS:       8823
cpu0_STLB RFO       ACCESS:       1178  HIT:        994  MISS:        184
cpu0_STLB PREFETCH  ACCESS:          0  HIT:          0  MISS:          0
cpu0_STLB WRITEBACK ACCESS:          0  HIT:          0  MISS:          0
cpu0_L1D TOTAL     ACCESS:    2751616  HIT:    2411669  MISS:     339947
cpu0_L1D LOAD      ACCESS:    2413137  HIT:    2090134  MISS:     323003
cpu0_L1D RFO       ACCESS:     329896  HIT:     313054  MISS:      16842
cpu0_L1D PREFETCH  ACCESS:          0  HIT:          0  MISS:          0
cpu0_L1D WRITEBACK ACCESS:          0  HIT:          0  MISS:          0
cpu0_L2C TOTAL     ACCESS:     360370  HIT:      69781  MISS:     290589
cpu0_L2C LOAD      ACCESS:     323002  HIT:      47838  MISS:     275164
cpu0_L2C RFO       ACCESS:      16842  HIT:       1511  MISS:      15331
cpu0_L2C PREFETCH  ACCESS:          0  HIT:          0  MISS:          0
cpu0_L2C WRITEBACK ACCESS:      20424  HIT:      20363  MISS:         61
LLC TOTAL     ACCESS:     309095  HIT:     136412  MISS:     172683
LLC LOAD      ACCESS:     275164  HIT:     102526  MISS:     172638
LLC RFO       ACCESS:      15331  HIT:      15295  MISS:         36
LLC PREFETCH  ACCESS:          0  HIT:          0  MISS:          0
LLC WRITEBACK ACCESS:      18567  HIT:      18562  MISS:          5
Heartbeat CPU 0 instructions: 76000002 cycles: 38172269 heartbeat IPC: 1.11146 cumulative IPC: 1.03339 (Simulation time: 0 hr 52 min 57 sec) 

Region of Interest Statistics
cpu0_DTLB TOTAL     ACCESS:    4580036  HIT:    4547757  MISS:      32279
cpu0_DTLB LOAD      ACCESS:    4330698  HIT:    4299660  MISS:      31038
cpu0_DTLB RFO       ACCESS:     249338  HIT:     248097  MISS:       1241
cpu0_DTLB PREFETCH  ACCESS:          0  HIT:          0  MISS:          0
cpu0_DTLB WRITEBACK ACCESS:          0  HIT:          0  MISS:          0
cpu0_ITLB TOTAL     ACCESS:    2264121  HIT:    2264121  MISS:          0
cpu0_ITLB LOAD      ACCESS:    2264121  HIT:    2264121  MISS:          0
cpu0_ITLB RFO       ACCESS:          0  HIT:          0  MISS:          0
cpu0_ITLB PREFETCH  ACCESS:          0  HIT:          0  MISS:          0
cpu0_ITLB WRITEBACK ACCESS:          0  HIT:          0  MISS:          0
cpu0_L1I TOTAL     ACCESS:       9136  HIT:       9136  MISS:          0
cpu0_L1I LOAD      ACCESS:       9136  HIT:       9136  MISS:          0
cpu0_L1I RFO       ACCESS:          0  HIT:          0  MISS:          0
cpu0_L1I PREFETCH  ACCESS:          0  HIT:          0  MISS:          0
cpu0_L1I WRITEBACK ACCESS:          0  HIT:          0  MISS:          0
cpu0_STLB TOTAL     ACCESS:      32279  HIT:      22392  MISS:       9887
cpu0_STLB LOAD      ACCESS:      31038  HIT:      21340  MISS:       9698
cpu0_STLB RFO       ACCESS:       1241  HIT:       1052  MISS:        189
cpu0_STLB PREFETCH  ACCESS:          0  HIT:          0  MISS:          0
cpu0_STLB WRITEBACK ACCESS:          0  HIT:          0  MISS:          0
cpu0_L1D TOTAL     ACCESS:    2993282  HIT:    2625254  MISS:     368028
cpu0_L1D LOAD      ACCESS:    2619724  HIT:    2269031  MISS:     350693
cpu0_L1D RFO       ACCESS:     364151  HIT:     346926  MISS:      17225
cpu0_L1D PREFETCH  ACCESS:          0  HIT:          0  MISS:          0
cpu0_L1D WRITEBACK ACCESS:          0  HIT:          0  MISS:          0
cpu0_L2C TOTAL     ACCESS:     388883  HIT:      75908  MISS:     312975
cpu0_L2C LOAD      ACCESS:     350692  HIT:      53534  MISS:     297158
cpu0_L2C RFO       ACCESS:      17225  HIT:       1511  MISS:      15714
cpu0_L2C PREFETCH  ACCESS:          0  HIT:          0  MISS:          0
cpu0_L2C WRITEBACK ACCESS:      20856  HIT:      20786  MISS:         70
LLC TOTAL     ACCESS:     331909  HIT:     148941  MISS:     182968
LLC LOAD      ACCESS:     297158  HIT:     114236  MISS:     182922
LLC RFO       ACCESS:      15714  HIT:      15677  MISS:         37
LLC PREFETCH  ACCESS:          0  HIT:          0  MISS:          0
LLC WRITEBACK ACCESS:      19004  HIT:      18999  MISS:          5
Heartbeat CPU 0 instructions: 78000002 cycles: 39564084 heartbeat IPC: 1.43697 cumulative IPC: 1.05454 (Simulation time: 0 hr 54 min 31 sec) 

Region of Interest Statistics
cpu0_DTLB TOTAL     ACCESS:    4910380  HIT:    4876651  MISS:      33729
cpu0_DTLB LOAD      ACCESS:    4643125  HIT:    4610811  MISS:      32314
cpu0_DTLB RFO       ACCESS:     267255  HIT:     265840  MISS:       1415
cpu0_DTLB PREFETCH  ACCESS:          0  HIT:          0  MISS:          0
cpu0_DTLB WRITEBACK ACCESS:          0  HIT:          0  MISS:          0
cpu0_ITLB TOTAL     ACCESS:    2444155  HIT:    2444155  MISS:          0
cpu0_ITLB LOAD      ACCESS:    2444155  HIT:    2444155  MISS:          0
cpu0_ITLB RFO       ACCESS:          0  HIT:          0  MISS:          0
cpu0_ITLB PREFETCH  ACCESS:          0  HIT:          0  MISS:          0
cpu0_ITLB WRITEBACK ACCESS:          0  HIT:          0  MISS:          0
cpu0_L1I TOTAL     ACCESS:      12215  HIT:      12215  MISS:          0
cpu0_L1I LOAD      ACCESS:      12215  HIT:      12215  MISS:          0
cpu0_L1I RFO       ACCESS:          0  HIT:          0  MISS:          0
cpu0_L1I PREFETCH  ACCESS:          0  HIT:          0  MISS:          0
cpu0_L1I WRITEBACK ACCESS:          0  HIT:          0  MISS:          0
cpu0_STLB TOTAL     ACCESS:      33729  HIT:      23288  MISS:      10441
cpu0_STLB LOAD      ACCESS:      32314  HIT:      22099  MISS:      10215
cpu0_STLB RFO       ACCESS:       1415  HIT:       1189  MISS:        226
cpu0_STLB PREFETCH  ACCESS:          0  HIT:          0  MISS:          0
cpu0_STLB WRITEBACK ACCESS:          0  HIT:          0  MISS:          0
cpu0_L1D TOTAL     ACCESS:    3218706  HIT:    2822264  MISS:     396442
cpu0_L1D LOAD      ACCESS:    2823709  HIT:    2447858  MISS:     375851
cpu0_L1D RFO       ACCESS:     385051  HIT:     364582  MISS:      20469
cpu0_L1D PREFETCH  ACCESS:          0  HIT:          0  MISS:          0
cpu0_L1D WRITEBACK ACCESS:          0  HIT:          0  MISS:          0
cpu0_L2C TOTAL     ACCESS:     421478  HIT:      83247  MISS:     338231
cpu0_L2C LOAD      ACCESS:     375848  HIT:      56351  MISS:     319497
cpu0_L2C RFO       ACCESS:      20469  HIT:       1849  MISS:      18620
cpu0_L2C PREFETCH  ACCESS:          0  HIT:          0  MISS:          0
cpu0_L2C WRITEBACK ACCESS:      25039  HIT:      24964  MISS:         75
LLC TOTAL     ACCESS:     360866  HIT:     167558  MISS:     193308
LLC LOAD      ACCESS:     319497  HIT:     126254  MISS:     193243
LLC RFO       ACCESS:      18620  HIT:      18566  MISS:         54
LLC PREFETCH  ACCESS:          0  HIT:          0  MISS:          0
LLC WRITEBACK ACCESS:      22710  HIT:      22704  MISS:          6
Heartbeat CPU 0 instructions: 80000004 cycles: 41296956 heartbeat IPC: 1.15415 cumulative IPC: 1.06064 (Simulation time: 0 hr 56 min 9 sec) 

Region of Interest Statistics
cpu0_DTLB TOTAL     ACCESS:    5259303  HIT:    5223255  MISS:      36048
cpu0_DTLB LOAD      ACCESS:    4974113  HIT:    4939579  MISS:      34534
cpu0_DTLB RFO       ACCESS:     285190  HIT:     283676  MISS:       1514
cpu0_DTLB PREFETCH  ACCESS:          0  HIT:          0  MISS:          0
cpu0_DTLB WRITEBACK ACCESS:          0  HIT:          0  MISS:          0
cpu0_ITLB TOTAL     ACCESS:    2617650  HIT:    2617650  MISS:          0
cpu0_ITLB LOAD      ACCESS:    2617650  HIT:    2617650  MISS:          0
cpu0_ITLB RFO       ACCESS:          0  HIT:          0  MISS:          0
cpu0_ITLB PREFETCH  ACCESS:          0  HIT:          0  MISS:          0
cpu0_ITLB WRITEBACK ACCESS:          0  HIT:          0  MISS:          0
cpu0_L1I TOTAL     ACCESS:      12248  HIT:      12248  MISS:          0
cpu0_L1I LOAD      ACCESS:      12248  HIT:      12248  MISS:          0
cpu0_L1I RFO       ACCESS:          0  HIT:          0  MISS:          0
cpu0_L1I PREFETCH  ACCESS:          0  HIT:          0  MISS:          0
cpu0_L1I WRITEBACK ACCESS:          0  HIT:          0  MISS:          0
cpu0_STLB TOTAL     ACCESS:      36048  HIT:      24790  MISS:      11258
cpu0_STLB LOAD      ACCESS:      34534  HIT:      23506  MISS:      11028
cpu0_STLB RFO       ACCESS:       1514  HIT:       1284  MISS:        230
cpu0_STLB PREFETCH  ACCESS:          0  HIT:          0  MISS:          0
cpu0_STLB WRITEBACK ACCESS:          0  HIT:          0  MISS:          0
cpu0_L1D TOTAL     ACCESS:    3452280  HIT:    3027847  MISS:     424433
cpu0_L1D LOAD      ACCESS:    3029112  HIT:    2625872  MISS:     403240
cpu0_L1D RFO       ACCESS:     412452  HIT:     391386  MISS:      21066
cpu0_L1D PREFETCH  ACCESS:          0  HIT:          0  MISS:          0
cpu0_L1D WRITEBACK ACCESS:          0  HIT:          0  MISS:          0
cpu0_L2C TOTAL     ACCESS:     450065  HIT:      87139  MISS:     362926
cpu0_L2C LOAD      ACCESS:     403237  HIT:      59646  MISS:     343591
cpu0_L2C RFO       ACCESS:      21066  HIT:       1849  MISS:      19217
cpu0_L2C PREFETCH  ACCESS:          0  HIT:          0  MISS:          0
cpu0_L2C WRITEBACK ACCESS:      25635  HIT:      25559  MISS:         76
LLC TOTAL     ACCESS:     386184  HIT:     181183  MISS:     205001
LLC LOAD      ACCESS:     343591  HIT:     138659  MISS:     204932
LLC RFO       ACCESS:      19217  HIT:      19160  MISS:         57
LLC PREFETCH  ACCESS:          0  HIT:          0  MISS:          0
LLC WRITEBACK ACCESS:      23334  HIT:      23327  MISS:          7
Heartbeat CPU 0 instructions: 82000003 cycles: 43080105 heartbeat IPC: 1.12161 cumulative IPC: 1.06426 (Simulation time: 0 hr 57 min 52 sec) 

Region of Interest Statistics
cpu0_DTLB TOTAL     ACCESS:    5618752  HIT:    5579315  MISS:      39437
cpu0_DTLB LOAD      ACCESS:    5314040  HIT:    5276238  MISS:      37802
cpu0_DTLB RFO       ACCESS:     304712  HIT:     303077  MISS:       1635
cpu0_DTLB PREFETCH  ACCESS:          0  HIT:          0  MISS:          0
cpu0_DTLB WRITEBACK ACCESS:          0  HIT:          0  MISS:          0
cpu0_ITLB TOTAL     ACCESS:    2777644  HIT:    2777644  MISS:          0
cpu0_ITLB LOAD      ACCESS:    2777644  HIT:    2777644  MISS:          0
cpu0_ITLB RFO       ACCESS:          0  HIT:          0  MISS:          0
cpu0_ITLB PREFETCH  ACCESS:          0  HIT:          0  MISS:          0
cpu0_ITLB WRITEBACK ACCESS:          0  HIT:          0  MISS:          0
cpu0_L1I TOTAL     ACCESS:      14249  HIT:      14249  MISS:          0
cpu0_L1I LOAD      ACCESS:      14249  HIT:      14249  MISS:          0
cpu0_L1I RFO       ACCESS:          0  HIT:          0  MISS:          0
cpu0_L1I PREFETCH  ACCESS:          0  HIT:          0  MISS:          0
cpu0_L1I WRITEBACK ACCESS:          0  HIT:          0  MISS:          0
cpu0_STLB TOTAL     ACCESS:      39437  HIT:      27251  MISS:      12186
cpu0_STLB LOAD      ACCESS:      37802  HIT:      25856  MISS:      11946
cpu0_STLB RFO       ACCESS:       1635  HIT:       1395  MISS:        240
cpu0_STLB PREFETCH  ACCESS:          0  HIT:          0  MISS:          0
cpu0_STLB WRITEBACK ACCESS:          0  HIT:          0  MISS:          0
cpu0_L1D TOTAL     ACCESS:    3699747  HIT:    3247508  MISS:     452239
cpu0_L1D LOAD      ACCESS:    3241882  HIT:    2811263  MISS:     430619
cpu0_L1D RFO       ACCESS:     446269  HIT:     424789  MISS:      21480
cpu0_L1D PREFETCH  ACCESS:          0  HIT:          0  MISS:          0
cpu0_L1D WRITEBACK ACCESS:          0  HIT:          0  MISS:          0
cpu0_L2C TOTAL     ACCESS:     479137  HIT:      92858  MISS:     386279
cpu0_L2C LOAD      ACCESS:     430616  HIT:      64065  MISS:     366551
cpu0_L2C RFO       ACCESS:      21480  HIT:       1887  MISS:      19593
cpu0_L2C PREFETCH  ACCESS:          0  HIT:          0  MISS:          0
cpu0_L2C WRITEBACK ACCESS:      26901  HIT:      26813  MISS:         88
LLC TOTAL     ACCESS:     410303  HIT:     194712  MISS:     215591
LLC LOAD      ACCESS:     366551  HIT:     151047  MISS:     215504
LLC RFO       ACCESS:      19593  HIT:      19533  MISS:         60
LLC PREFETCH  ACCESS:          0  HIT:          0  MISS:          0
LLC WRITEBACK ACCESS:      24112  HIT:      24091  MISS:         21
Heartbeat CPU 0 instructions: 84000000 cycles: 44419306 heartbeat IPC: 1.49343 cumulative IPC: 1.08256 (Simulation time: 0 hr 59 min 17 sec) 

Region of Interest Statistics
cpu0_DTLB TOTAL     ACCESS:    5946265  HIT:    5906064  MISS:      40201
cpu0_DTLB LOAD      ACCESS:    5625127  HIT:    5586644  MISS:      38483
cpu0_DTLB RFO       ACCESS:     321138  HIT:     319420  MISS:       1718
cpu0_DTLB PREFETCH  ACCESS:          0  HIT:          0  MISS:          0
cpu0_DTLB WRITEBACK ACCESS:          0  HIT:          0  MISS:          0
cpu0_ITLB TOTAL     ACCESS:    2974888  HIT:    2974888  MISS:          0
cpu0_ITLB LOAD      ACCESS:    2974888  HIT:    2974888  MISS:          0
cpu0_ITLB RFO       ACCESS:          0  HIT:          0  MISS:          0
cpu0_ITLB PREFETCH  ACCESS:          0  HIT:          0  MISS:          0
cpu0_ITLB WRITEBACK ACCESS:          0  HIT:          0  MISS:          0
cpu0_L1I TOTAL     ACCESS:      14763  HIT:      14763  MISS:          0
cpu0_L1I LOAD      ACCESS:      14763  HIT:      14763  MISS:          0
cpu0_L1I RFO       ACCESS:          0  HIT:          0  MISS:          0
cpu0_L1I PREFETCH  ACCESS:          0  HIT:          0  MISS:          0
cpu0_L1I WRITEBACK ACCESS:          0  HIT:          0  MISS:          0
cpu0_STLB TOTAL     ACCESS:      40201  HIT:      27622  MISS:      12579
cpu0_STLB LOAD      ACCESS:      38483  HIT:      26174  MISS:      12309
cpu0_STLB RFO       ACCESS:       1718  HIT:       1448  MISS:        270
cpu0_STLB PREFETCH  ACCESS:          0  HIT:          0  MISS:          0
cpu0_STLB WRITEBACK ACCESS:          0  HIT:          0  MISS:          0
cpu0_L1D TOTAL     ACCESS:    3915057  HIT:    3434730  MISS:     480327
cpu0_L1D LOAD      ACCESS:    3441788  HIT:    2986522  MISS:     455266
cpu0_L1D RFO       ACCESS:     461297  HIT:     436381  MISS:      24916
cpu0_L1D PREFETCH  ACCESS:          0  HIT:          0  MISS:          0
cpu0_L1D WRITEBACK ACCESS:          0  HIT:          0  MISS:          0
cpu0_L2C TOTAL     ACCESS:     510781  HIT:      99186  MISS:     411595
cpu0_L2C LOAD      ACCESS:     455263  HIT:      66467  MISS:     388796
cpu0_L2C RFO       ACCESS:      24916  HIT:       2255  MISS:      22661
cpu0_L2C PREFETCH  ACCESS:          0  HIT:          0  MISS:          0
cpu0_L2C WRITEBACK ACCESS:      30457  HIT:      30367  MISS:         90
LLC TOTAL     ACCESS:     439160  HIT:     213454  MISS:     225706
LLC LOAD      ACCESS:     388796  HIT:     163224  MISS:     225572
LLC RFO       ACCESS:      22661  HIT:      22557  MISS:        104
LLC PREFETCH  ACCESS:          0  HIT:          0  MISS:          0
LLC WRITEBACK ACCESS:      27655  HIT:      27631  MISS:         24
Heartbeat CPU 0 instructions: 86000002 cycles: 46275215 heartbeat IPC: 1.07764 cumulative IPC: 1.08228 (Simulation time: 1 hr 1 min 0 sec) 

Region of Interest Statistics
cpu0_DTLB TOTAL     ACCESS:    6307597  HIT:    6263904  MISS:      43693
cpu0_DTLB LOAD      ACCESS:    5965730  HIT:    5923857  MISS:      41873
cpu0_DTLB RFO       ACCESS:     341867  HIT:     340047  MISS:       1820
cpu0_DTLB PREFETCH  ACCESS:          0  HIT:          0  MISS:          0
cpu0_DTLB WRITEBACK ACCESS:          0  HIT:          0  MISS:          0
cpu0_ITLB TOTAL     ACCESS:    3142889  HIT:    3142889  MISS:          0
cpu0_ITLB LOAD      ACCESS:    3142889  HIT:    3142889  MISS:          0
cpu0_ITLB RFO       ACCESS:          0  HIT:          0  MISS:          0
cpu0_ITLB PREFETCH  ACCESS:          0  HIT:          0  MISS:          0
cpu0_ITLB WRITEBACK ACCESS:          0  HIT:          0  MISS:          0
cpu0_L1I TOTAL     ACCESS:      14782  HIT:      14782  MISS:          0
cpu0_L1I LOAD      ACCESS:      14782  HIT:      14782  MISS:          0
cpu0_L1I RFO       ACCESS:          0  HIT:          0  MISS:          0
cpu0_L1I PREFETCH  ACCESS:          0  HIT:          0  MISS:          0
cpu0_L1I WRITEBACK ACCESS:          0  HIT:          0  MISS:          0
cpu0_STLB TOTAL     ACCESS:      43693  HIT:      30269  MISS:      13424
cpu0_STLB LOAD      ACCESS:      41873  HIT:      28723  MISS:      13150
cpu0_STLB RFO       ACCESS:       1820  HIT:       1546  MISS:        274
cpu0_STLB PREFETCH  ACCESS:          0  HIT:          0  MISS:          0
cpu0_STLB WRITEBACK ACCESS:          0  HIT:          0  MISS:          0
cpu0_L1D TOTAL     ACCESS:    4152225  HIT:    3643217  MISS:     509008
cpu0_L1D LOAD      ACCESS:    3644401  HIT:    3160854  MISS:     483547
cpu0_L1D RFO       ACCESS:     495051  HIT:     469745  MISS:      25306
cpu0_L1D PREFETCH  ACCESS:          0  HIT:          0  MISS:          0
cpu0_L1D WRITEBACK ACCESS:          0  HIT:          0  MISS:          0
cpu0_L2C TOTAL     ACCESS:     539878  HIT:     104594  MISS:     435284
cpu0_L2C LOAD      ACCESS:     483544  HIT:      71453  MISS:     412091
cpu0_L2C RFO       ACCESS:      25306  HIT:       2255  MISS:      23051
cpu0_L2C PREFETCH  ACCESS:          0  HIT:          0  MISS:          0
cpu0_L2C WRITEBACK ACCESS:      30873  HIT:      30782  MISS:         91
LLC TOTAL     ACCESS:     463321  HIT:     226479  MISS:     236842
LLC LOAD      ACCESS:     412091  HIT:     175386  MISS:     236705
LLC RFO       ACCESS:      23051  HIT:      22944  MISS:        107
LLC PREFETCH  ACCESS:          0  HIT:          0  MISS:          0
LLC WRITEBACK ACCESS:      28128  HIT:      28104  MISS:         24
Heartbeat CPU 0 instructions: 88000001 cycles: 48553068 heartbeat IPC: 0.878019 cumulative IPC: 1.06919 (Simulation time: 1 hr 2 min 55 sec) 

Region of Interest Statistics
cpu0_DTLB TOTAL     ACCESS:    6677064  HIT:    6630044  MISS:      47020
cpu0_DTLB LOAD      ACCESS:    6314051  HIT:    6268988  MISS:      45063
cpu0_DTLB RFO       ACCESS:     363013  HIT:     361056  MISS:       1957
cpu0_DTLB PREFETCH  ACCESS:          0  HIT:          0  MISS:          0
cpu0_DTLB WRITEBACK ACCESS:          0  HIT:          0  MISS:          0
cpu0_ITLB TOTAL     ACCESS:    3310666  HIT:    3310666  MISS:          0
cpu0_ITLB LOAD      ACCESS:    3310666  HIT:    3310666  MISS:          0
cpu0_ITLB RFO       ACCESS:          0  HIT:          0  MISS:          0
cpu0_ITLB PREFETCH  ACCESS:          0  HIT:          0  MISS:          0
cpu0_ITLB WRITEBACK ACCESS:          0  HIT:          0  MISS:          0
cpu0_L1I TOTAL     ACCESS:      16641  HIT:      16641  MISS:          0
cpu0_L1I LOAD      ACCESS:      16641  HIT:      16641  MISS:          0
cpu0_L1I RFO       ACCESS:          0  HIT:          0  MISS:          0
cpu0_L1I PREFETCH  ACCESS:          0  HIT:          0  MISS:          0
cpu0_L1I WRITEBACK ACCESS:          0  HIT:          0  MISS:          0
cpu0_STLB TOTAL     ACCESS:      47020  HIT:      32504  MISS:      14516
cpu0_STLB LOAD      ACCESS:      45063  HIT:      30833  MISS:      14230
cpu0_STLB RFO       ACCESS:       1957  HIT:       1671  MISS:        286
cpu0_STLB PREFETCH  ACCESS:          0  HIT:          0  MISS:          0
cpu0_STLB WRITEBACK ACCESS:          0  HIT:          0  MISS:          0
cpu0_L1D TOTAL     ACCESS:    4396222  HIT:    3858294  MISS:     537928
cpu0_L1D LOAD      ACCESS:    3851265  HIT:    3339216  MISS:     512049
cpu0_L1D RFO       ACCESS:     531146  HIT:     505436  MISS:      25710
cpu0_L1D PREFETCH  ACCESS:          0  HIT:          0  MISS:          0
cpu0_L1D WRITEBACK ACCESS:          0  HIT:          0  MISS:          0
cpu0_L2C TOTAL     ACCESS:     570041  HIT:     111215  MISS:     458826
cpu0_L2C LOAD      ACCESS:     512046  HIT:      76818  MISS:     435228
cpu0_L2C RFO       ACCESS:      25710  HIT:       2271  MISS:      23439
cpu0_L2C PREFETCH  ACCESS:          0  HIT:          0  MISS:          0
cpu0_L2C WRITEBACK ACCESS:      32116  HIT:      32013  MISS:        103
LLC TOTAL     ACCESS:     487231  HIT:     235557  MISS:     251674
LLC LOAD      ACCESS:     435228  HIT:     183710  MISS:     251518
LLC RFO       ACCESS:      23439  HIT:      23319  MISS:        120
LLC PREFETCH  ACCESS:          0  HIT:          0  MISS:          0
LLC WRITEBACK ACCESS:      28508  HIT:      28479  MISS:         29
Heartbeat CPU 0 instructions: 90000002 cycles: 49971669 heartbeat IPC: 1.40984 cumulative IPC: 1.08227 (Simulation time: 1 hr 4 min 35 sec) 

Region of Interest Statistics
cpu0_DTLB TOTAL     ACCESS:    7003383  HIT:    6955480  MISS:      47903
cpu0_DTLB LOAD      ACCESS:    6623895  HIT:    6578029  MISS:      45866
cpu0_DTLB RFO       ACCESS:     379488  HIT:     377451  MISS:       2037
cpu0_DTLB PREFETCH  ACCESS:          0  HIT:          0  MISS:          0
cpu0_DTLB WRITEBACK ACCESS:          0  HIT:          0  MISS:          0
cpu0_ITLB TOTAL     ACCESS:    3496674  HIT:    3496674  MISS:          0
cpu0_ITLB LOAD      ACCESS:    3496674  HIT:    3496674  MISS:          0
cpu0_ITLB RFO       ACCESS:          0  HIT:          0  MISS:          0
cpu0_ITLB PREFETCH  ACCESS:          0  HIT:          0  MISS:          0
cpu0_ITLB WRITEBACK ACCESS:          0  HIT:          0  MISS:          0
cpu0_L1I TOTAL     ACCESS:      17682  HIT:      17682  MISS:          0
cpu0_L1I LOAD      ACCESS:      17682  HIT:      17682  MISS:          0
cpu0_L1I RFO       ACCESS:          0  HIT:          0  MISS:          0
cpu0_L1I PREFETCH  ACCESS:          0  HIT:          0  MISS:          0
cpu0_L1I WRITEBACK ACCESS:          0  HIT:          0  MISS:          0
cpu0_STLB TOTAL     ACCESS:      47903  HIT:      33006  MISS:      14897
cpu0_STLB LOAD      ACCESS:      45866  HIT:      31287  MISS:      14579
cpu0_STLB RFO       ACCESS:       2037  HIT:       1719  MISS:        318
cpu0_STLB PREFETCH  ACCESS:          0  HIT:          0  MISS:          0
cpu0_STLB WRITEBACK ACCESS:          0  HIT:          0  MISS:          0
cpu0_L1D TOTAL     ACCESS:    4613063  HIT:    4047100  MISS:     565963
cpu0_L1D LOAD      ACCESS:    4051228  HIT:    3514520  MISS:     536708
cpu0_L1D RFO       ACCESS:     547660  HIT:     518579  MISS:      29081
cpu0_L1D PREFETCH  ACCESS:          0  HIT:          0  MISS:          0
cpu0_L1D WRITEBACK ACCESS:          0  HIT:          0  MISS:          0
cpu0_L2C TOTAL     ACCESS:     601576  HIT:     117627  MISS:     483949
cpu0_L2C LOAD      ACCESS:     536705  HIT:      79297  MISS:     457408
cpu0_L2C RFO       ACCESS:      29081  HIT:       2702  MISS:      26379
cpu0_L2C PREFETCH  ACCESS:          0  HIT:          0  MISS:          0
cpu0_L2C WRITEBACK ACCESS:      35616  HIT:      35510  MISS:        106
LLC TOTAL     ACCESS:     516084  HIT:     253502  MISS:     262582
LLC LOAD      ACCESS:     457408  HIT:     195031  MISS:     262377
LLC RFO       ACCESS:      26379  HIT:      26212  MISS:        167
LLC PREFETCH  ACCESS:          0  HIT:          0  MISS:          0
LLC WRITEBACK ACCESS:      32241  HIT:      32210  MISS:         31
Heartbeat CPU 0 instructions: 92000003 cycles: 51976876 heartbeat IPC: 0.997404 cumulative IPC: 1.0779 (Simulation time: 1 hr 6 min 27 sec) 

Region of Interest Statistics
cpu0_DTLB TOTAL     ACCESS:    7359308  HIT:    7308652  MISS:      50656
cpu0_DTLB LOAD      ACCESS:    6960390  HIT:    6911888  MISS:      48502
cpu0_DTLB RFO       ACCESS:     398918  HIT:     396764  MISS:       2154
cpu0_DTLB PREFETCH  ACCESS:          0  HIT:          0  MISS:          0
cpu0_DTLB WRITEBACK ACCESS:          0  HIT:          0  MISS:          0
cpu0_ITLB TOTAL     ACCESS:    3667802  HIT:    3667802  MISS:          0
cpu0_ITLB LOAD      ACCESS:    3667802  HIT:    3667802  MISS:          0
cpu0_ITLB RFO       ACCESS:          0  HIT:          0  MISS:          0
cpu0_ITLB PREFETCH  ACCESS:          0  HIT:          0  MISS:          0
cpu0_ITLB WRITEBACK ACCESS:          0  HIT:          0  MISS:          0
cpu0_L1I TOTAL     ACCESS:      17701  HIT:      17701  MISS:          0
cpu0_L1I LOAD      ACCESS:      17701  HIT:      17701  MISS:          0
cpu0_L1I RFO       ACCESS:          0  HIT:          0  MISS:          0
cpu0_L1I PREFETCH  ACCESS:          0  HIT:          0  MISS:          0
cpu0_L1I WRITEBACK ACCESS:          0  HIT:          0  MISS:          0
cpu0_STLB TOTAL     ACCESS:      50656  HIT:      34873  MISS:      15783
cpu0_STLB LOAD      ACCESS:      48502  HIT:      33042  MISS:      15460
cpu0_STLB RFO       ACCESS:       2154  HIT:       1831  MISS:        323
cpu0_STLB PREFETCH  ACCESS:          0  HIT:          0  MISS:          0
cpu0_STLB WRITEBACK ACCESS:          0  HIT:          0  MISS:          0
cpu0_L1D TOTAL     ACCESS:    4846518  HIT:    4251734  MISS:     594784
cpu0_L1D LOAD      ACCESS:    4252996  HIT:    3687986  MISS:     565010
cpu0_L1D RFO       ACCESS:     578506  HIT:     548912  MISS:      29594
cpu0_L1D PREFETCH  ACCESS:          0  HIT:          0  MISS:          0
cpu0_L1D WRITEBACK ACCESS:          0  HIT:          0  MISS:          0
cpu0_L2C TOTAL     ACCESS:     630935  HIT:     122462  MISS:     508473
cpu0_L2C LOAD      ACCESS:     565007  HIT:      83592  MISS:     481415
cpu0_L2C RFO       ACCESS:      29594  HIT:       2702  MISS:      26892
cpu0_L2C PREFETCH  ACCESS:          0  HIT:          0  MISS:          0
cpu0_L2C WRITEBACK ACCESS:      36154  HIT:      36047  MISS:        107
LLC TOTAL     ACCESS:     541187  HIT:     264722  MISS:     276465
LLC LOAD      ACCESS:     481415  HIT:     205177  MISS:     276238
LLC RFO       ACCESS:      26892  HIT:      26703  MISS:        189
LLC PREFETCH  ACCESS:          0  HIT:          0  MISS:          0
LLC WRITEBACK ACCESS:      32821  HIT:      32790  MISS:         31
Heartbeat CPU 0 instructions: 94000004 cycles: 54379497 heartbeat IPC: 0.832425 cumulative IPC: 1.06364 (Simulation time: 1 hr 8 min 31 sec) 

Region of Interest Statistics
cpu0_DTLB TOTAL     ACCESS:    7724358  HIT:    7670405  MISS:      53953
cpu0_DTLB LOAD      ACCESS:    7304920  HIT:    7253181  MISS:      51739
cpu0_DTLB RFO       ACCESS:     419438  HIT:     417224  MISS:       2214
cpu0_DTLB PREFETCH  ACCESS:          0  HIT:          0  MISS:          0
cpu0_DTLB WRITEBACK ACCESS:          0  HIT:          0  MISS:          0
cpu0_ITLB TOTAL     ACCESS:    3834999  HIT:    3834999  MISS:          0
cpu0_ITLB LOAD      ACCESS:    3834999  HIT:    3834999  MISS:          0
cpu0_ITLB RFO       ACCESS:          0  HIT:          0  MISS:          0
cpu0_ITLB PREFETCH  ACCESS:          0  HIT:          0  MISS:          0
cpu0_ITLB WRITEBACK ACCESS:          0  HIT:          0  MISS:          0
cpu0_L1I TOTAL     ACCESS:      17701  HIT:      17701  MISS:          0
cpu0_L1I LOAD      ACCESS:      17701  HIT:      17701  MISS:          0
cpu0_L1I RFO       ACCESS:          0  HIT:          0  MISS:          0
cpu0_L1I PREFETCH  ACCESS:          0  HIT:          0  MISS:          0
cpu0_L1I WRITEBACK ACCESS:          0  HIT:          0  MISS:          0
cpu0_STLB TOTAL     ACCESS:      53953  HIT:      37378  MISS:      16575
cpu0_STLB LOAD      ACCESS:      51739  HIT:      35491  MISS:      16248
cpu0_STLB RFO       ACCESS:       2214  HIT:       1887  MISS:        327
cpu0_STLB PREFETCH  ACCESS:          0  HIT:          0  MISS:          0
cpu0_STLB WRITEBACK ACCESS:          0  HIT:          0  MISS:          0
cpu0_L1D TOTAL     ACCESS:    5077425  HIT:    4453258  MISS:     624167
cpu0_L1D LOAD      ACCESS:    4447885  HIT:    3853720  MISS:     594165
cpu0_L1D RFO       ACCESS:     613764  HIT:     583953  MISS:      29811
cpu0_L1D PREFETCH  ACCESS:          0  HIT:          0  MISS:          0
cpu0_L1D WRITEBACK ACCESS:          0  HIT:          0  MISS:          0
cpu0_L2C TOTAL     ACCESS:     660536  HIT:     128711  MISS:     531825
cpu0_L2C LOAD      ACCESS:     594162  HIT:      89614  MISS:     504548
cpu0_L2C RFO       ACCESS:      29811  HIT:       2702  MISS:      27109
cpu0_L2C PREFETCH  ACCESS:          0  HIT:          0  MISS:          0
cpu0_L2C WRITEBACK ACCESS:      36372  HIT:      36265  MISS:        107
LLC TOTAL     ACCESS:     564893  HIT:     272255  MISS:     292638
LLC LOAD      ACCESS:     504548  HIT:     212141  MISS:     292407
LLC RFO       ACCESS:      27109  HIT:      26918  MISS:        191
LLC PREFETCH  ACCESS:          0  HIT:          0  MISS:          0
LLC WRITEBACK ACCESS:      33175  HIT:      33142  MISS:         33
Heartbeat CPU 0 instructions: 96000003 cycles: 56149173 heartbeat IPC: 1.13015 cumulative IPC: 1.06637 (Simulation time: 1 hr 10 min 15 sec) 

Region of Interest Statistics
cpu0_DTLB TOTAL     ACCESS:    8079202  HIT:    8022749  MISS:      56453
cpu0_DTLB LOAD      ACCESS:    7637089  HIT:    7583033  MISS:      54056
cpu0_DTLB RFO       ACCESS:     442113  HIT:     439716  MISS:       2397
cpu0_DTLB PREFETCH  ACCESS:          0  HIT:          0  MISS:          0
cpu0_DTLB WRITEBACK ACCESS:          0  HIT:          0  MISS:          0
cpu0_ITLB TOTAL     ACCESS:    4011477  HIT:    4011477  MISS:          0
cpu0_ITLB LOAD      ACCESS:    4011477  HIT:    4011477  MISS:          0
cpu0_ITLB RFO       ACCESS:          0  HIT:          0  MISS:          0
cpu0_ITLB PREFETCH  ACCESS:          0  HIT:          0  MISS:          0
cpu0_ITLB WRITEBACK ACCESS:          0  HIT:          0  MISS:          0
cpu0_L1I TOTAL     ACCESS:      20374  HIT:      20374  MISS:          0
cpu0_L1I LOAD      ACCESS:      20374  HIT:      20374  MISS:          0
cpu0_L1I RFO       ACCESS:          0  HIT:          0  MISS:          0
cpu0_L1I PREFETCH  ACCESS:          0  HIT:          0  MISS:          0
cpu0_L1I WRITEBACK ACCESS:          0  HIT:          0  MISS:          0
cpu0_STLB TOTAL     ACCESS:      56453  HIT:      39050  MISS:      17403
cpu0_STLB LOAD      ACCESS:      54056  HIT:      37021  MISS:      17035
cpu0_STLB RFO       ACCESS:       2397  HIT:       2029  MISS:        368
cpu0_STLB PREFETCH  ACCESS:          0  HIT:          0  MISS:          0
cpu0_STLB WRITEBACK ACCESS:          0  HIT:          0  MISS:          0
cpu0_L1D TOTAL     ACCESS:    5313774  HIT:    4659893  MISS:     653881
cpu0_L1D LOAD      ACCESS:    4652788  HIT:    4032136  MISS:     620652
cpu0_L1D RFO       ACCESS:     644416  HIT:     611392  MISS:      33024
cpu0_L1D PREFETCH  ACCESS:          0  HIT:          0  MISS:          0
cpu0_L1D WRITEBACK ACCESS:          0  HIT:          0  MISS:          0
cpu0_L2C TOTAL     ACCESS:     694661  HIT:     138532  MISS:     556129
cpu0_L2C LOAD      ACCESS:     620649  HIT:      94567  MISS:     526082
cpu0_L2C RFO       ACCESS:      33024  HIT:       3164  MISS:      29860
cpu0_L2C PREFETCH  ACCESS:          0  HIT:          0  MISS:          0
cpu0_L2C WRITEBACK ACCESS:      40783  HIT:      40662  MISS:        121
LLC TOTAL     ACCESS:     591241  HIT:     286912  MISS:     304329
LLC LOAD      ACCESS:     526083  HIT:     222045  MISS:     304038
LLC RFO       ACCESS:      29860  HIT:      29620  MISS:        240
LLC PREFETCH  ACCESS:          0  HIT:          0  MISS:          0
LLC WRITEBACK ACCESS:      35232  HIT:      35191  MISS:         41
Heartbeat CPU 0 instructions: 98000003 cycles: 57929039 heartbeat IPC: 1.12368 cumulative IPC: 1.06864 (Simulation time: 1 hr 11 min 51 sec) 

Region of Interest Statistics
cpu0_DTLB TOTAL     ACCESS:    8413517  HIT:    8355766  MISS:      57751
cpu0_DTLB LOAD      ACCESS:    7957103  HIT:    7901814  MISS:      55289
cpu0_DTLB RFO       ACCESS:     456414  HIT:     453952  MISS:       2462
cpu0_DTLB PREFETCH  ACCESS:          0  HIT:          0  MISS:          0
cpu0_DTLB WRITEBACK ACCESS:          0  HIT:          0  MISS:          0
cpu0_ITLB TOTAL     ACCESS:    4194106  HIT:    4194106  MISS:          0
cpu0_ITLB LOAD      ACCESS:    4194106  HIT:    4194106  MISS:          0
cpu0_ITLB RFO       ACCESS:          0  HIT:          0  MISS:          0
cpu0_ITLB PREFETCH  ACCESS:          0  HIT:          0  MISS:          0
cpu0_ITLB WRITEBACK ACCESS:          0  HIT:          0  MISS:          0
cpu0_L1I TOTAL     ACCESS:      20423  HIT:      20423  MISS:          0
cpu0_L1I LOAD      ACCESS:      20423  HIT:      20423  MISS:          0
cpu0_L1I RFO       ACCESS:          0  HIT:          0  MISS:          0
cpu0_L1I PREFETCH  ACCESS:          0  HIT:          0  MISS:          0
cpu0_L1I WRITEBACK ACCESS:          0  HIT:          0  MISS:          0
cpu0_STLB TOTAL     ACCESS:      57751  HIT:      39722  MISS:      18029
cpu0_STLB LOAD      ACCESS:      55289  HIT:      37629  MISS:      17660
cpu0_STLB RFO       ACCESS:       2462  HIT:       2093  MISS:        369
cpu0_STLB PREFETCH  ACCESS:          0  HIT:          0  MISS:          0
cpu0_STLB WRITEBACK ACCESS:          0  HIT:          0  MISS:          0
cpu0_L1D TOTAL     ACCESS:    5538823  HIT:    4857343  MISS:     681480
cpu0_L1D LOAD      ACCESS:    4857610  HIT:    4210113  MISS:     647497
cpu0_L1D RFO       ACCESS:     664045  HIT:     630271  MISS:      33774
cpu0_L1D PREFETCH  ACCESS:          0  HIT:          0  MISS:          0
cpu0_L1D WRITEBACK ACCESS:          0  HIT:          0  MISS:          0
cpu0_L2C TOTAL     ACCESS:     723044  HIT:     140670  MISS:     582374
cpu0_L2C LOAD      ACCESS:     647494  HIT:      95921  MISS:     551573
cpu0_L2C RFO       ACCESS:      33774  HIT:       3164  MISS:      30610
cpu0_L2C PREFETCH  ACCESS:          0  HIT:          0  MISS:          0
cpu0_L2C WRITEBACK ACCESS:      41567  HIT:      41445  MISS:        122
LLC TOTAL     ACCESS:     619901  HIT:     300629  MISS:     319272
LLC LOAD      ACCESS:     551573  HIT:     232621  MISS:     318952
LLC RFO       ACCESS:      30610  HIT:      30342  MISS:        268
LLC PREFETCH  ACCESS:          0  HIT:          0  MISS:          0
LLC WRITEBACK ACCESS:      37649  HIT:      37607  MISS:         42
Heartbeat CPU 0 instructions: 100000002 cycles: 60219309 heartbeat IPC: 0.873259 cumulative IPC: 1.05916 (Simulation time: 1 hr 13 min 44 sec) 

Region of Interest Statistics
cpu0_DTLB TOTAL     ACCESS:    8784422  HIT:    8722815  MISS:      61607
cpu0_DTLB LOAD      ACCESS:    8306860  HIT:    8247797  MISS:      59063
cpu0_DTLB RFO       ACCESS:     477562  HIT:     475018  MISS:       2544
cpu0_DTLB PREFETCH  ACCESS:          0  HIT:          0  MISS:          0
cpu0_DTLB WRITEBACK ACCESS:          0  HIT:          0  MISS:          0
cpu0_ITLB TOTAL     ACCESS:    4361048  HIT:    4361048  MISS:          0
cpu0_ITLB LOAD      ACCESS:    4361048  HIT:    4361048  MISS:          0
cpu0_ITLB RFO       ACCESS:          0  HIT:          0  MISS:          0
cpu0_ITLB PREFETCH  ACCESS:          0  HIT:          0  MISS:          0
cpu0_ITLB WRITEBACK ACCESS:          0  HIT:          0  MISS:          0
cpu0_L1I TOTAL     ACCESS:      20423  HIT:      20423  MISS:          0
cpu0_L1I LOAD      ACCESS:      20423  HIT:      20423  MISS:          0
cpu0_L1I RFO       ACCESS:          0  HIT:          0  MISS:          0
cpu0_L1I PREFETCH  ACCESS:          0  HIT:          0  MISS:          0
cpu0_L1I WRITEBACK ACCESS:          0  HIT:          0  MISS:          0
cpu0_STLB TOTAL     ACCESS:      61607  HIT:      42672  MISS:      18935
cpu0_STLB LOAD      ACCESS:      59063  HIT:      40503  MISS:      18560
cpu0_STLB RFO       ACCESS:       2544  HIT:       2169  MISS:        375
cpu0_STLB PREFETCH  ACCESS:          0  HIT:          0  MISS:          0
cpu0_STLB WRITEBACK ACCESS:          0  HIT:          0  MISS:          0
cpu0_L1D TOTAL     ACCESS:    5780513  HIT:    5069308  MISS:     711205
cpu0_L1D LOAD      ACCESS:    5062339  HIT:    4385418  MISS:     676921
cpu0_L1D RFO       ACCESS:     700142  HIT:     666076  MISS:      34066
cpu0_L1D PREFETCH  ACCESS:          0  HIT:          0  MISS:          0
cpu0_L1D WRITEBACK ACCESS:          0  HIT:          0  MISS:          0
cpu0_L2C TOTAL     ACCESS:     753065  HIT:     147200  MISS:     605865
cpu0_L2C LOAD      ACCESS:     676918  HIT:     102147  MISS:     574771
cpu0_L2C RFO       ACCESS:      34066  HIT:       3164  MISS:      30902
cpu0_L2C PREFETCH  ACCESS:          0  HIT:          0  MISS:          0
cpu0_L2C WRITEBACK ACCESS:      41863  HIT:      41741  MISS:        122
LLC TOTAL     ACCESS:     643810  HIT:     309422  MISS:     334388
LLC LOAD      ACCESS:     574771  HIT:     240706  MISS:     334065
LLC RFO       ACCESS:      30902  HIT:      30631  MISS:        271
LLC PREFETCH  ACCESS:          0  HIT:          0  MISS:          0
LLC WRITEBACK ACCESS:      38067  HIT:      38025  MISS:         42
Heartbeat CPU 0 instructions: 102000002 cycles: 62417046 heartbeat IPC: 0.910027 cumulative IPC: 1.05253 (Simulation time: 1 hr 15 min 43 sec) 

Region of Interest Statistics
cpu0_DTLB TOTAL     ACCESS:    9151719  HIT:    9087197  MISS:      64522
cpu0_DTLB LOAD      ACCESS:    8653109  HIT:    8591266  MISS:      61843
cpu0_DTLB RFO       ACCESS:     498610  HIT:     495931  MISS:       2679
cpu0_DTLB PREFETCH  ACCESS:          0  HIT:          0  MISS:          0
cpu0_DTLB WRITEBACK ACCESS:          0  HIT:          0  MISS:          0
cpu0_ITLB TOTAL     ACCESS:    4524312  HIT:    4524312  MISS:          0
cpu0_ITLB LOAD      ACCESS:    4524312  HIT:    4524312  MISS:          0
cpu0_ITLB RFO       ACCESS:          0  HIT:          0  MISS:          0
cpu0_ITLB PREFETCH  ACCESS:          0  HIT:          0  MISS:          0
cpu0_ITLB WRITEBACK ACCESS:          0  HIT:          0  MISS:          0
cpu0_L1I TOTAL     ACCESS:      22796  HIT:      22796  MISS:          0
cpu0_L1I LOAD      ACCESS:      22796  HIT:      22796  MISS:          0
cpu0_L1I RFO       ACCESS:          0  HIT:          0  MISS:          0
cpu0_L1I PREFETCH  ACCESS:          0  HIT:          0  MISS:          0
cpu0_L1I WRITEBACK ACCESS:          0  HIT:          0  MISS:          0
cpu0_STLB TOTAL     ACCESS:      64522  HIT:      44587  MISS:      19935
cpu0_STLB LOAD      ACCESS:      61843  HIT:      42293  MISS:      19550
cpu0_STLB RFO       ACCESS:       2679  HIT:       2294  MISS:        385
cpu0_STLB PREFETCH  ACCESS:          0  HIT:          0  MISS:          0
cpu0_STLB WRITEBACK ACCESS:          0  HIT:          0  MISS:          0
cpu0_L1D TOTAL     ACCESS:    6031244  HIT:    5290447  MISS:     740797
cpu0_L1D LOAD      ACCESS:    5274614  HIT:    4568484  MISS:     706130
cpu0_L1D RFO       ACCESS:     737634  HIT:     703199  MISS:      34435
cpu0_L1D PREFETCH  ACCESS:          0  HIT:          0  MISS:          0
cpu0_L1D WRITEBACK ACCESS:          0  HIT:          0  MISS:          0
cpu0_L2C TOTAL     ACCESS:     784360  HIT:     154363  MISS:     629997
cpu0_L2C LOAD      ACCESS:     706127  HIT:     107549  MISS:     598578
cpu0_L2C RFO       ACCESS:      34435  HIT:       3226  MISS:      31209
cpu0_L2C PREFETCH  ACCESS:          0  HIT:          0  MISS:          0
cpu0_L2C WRITEBACK ACCESS:      43566  HIT:      43432  MISS:        134
LLC TOTAL     ACCESS:     668485  HIT:     319571  MISS:     348914
LLC LOAD      ACCESS:     598578  HIT:     250003  MISS:     348575
LLC RFO       ACCESS:      31209  HIT:      30925  MISS:        284
LLC PREFETCH  ACCESS:          0  HIT:          0  MISS:          0
LLC WRITEBACK ACCESS:      38622  HIT:      38578  MISS:         44
Heartbeat CPU 0 instructions: 104000000 cycles: 63891927 heartbeat IPC: 1.35604 cumulative IPC: 1.06133 (Simulation time: 1 hr 17 min 16 sec) 

Region of Interest Statistics
cpu0_DTLB TOTAL     ACCESS:    9479717  HIT:    9414408  MISS:      65309
cpu0_DTLB LOAD      ACCESS:    8964173  HIT:    8901630  MISS:      62543
cpu0_DTLB RFO       ACCESS:     515544  HIT:     512778  MISS:       2766
cpu0_DTLB PREFETCH  ACCESS:          0  HIT:          0  MISS:          0
cpu0_DTLB WRITEBACK ACCESS:          0  HIT:          0  MISS:          0
cpu0_ITLB TOTAL     ACCESS:    4718864  HIT:    4718864  MISS:          0
cpu0_ITLB LOAD      ACCESS:    4718864  HIT:    4718864  MISS:          0
cpu0_ITLB RFO       ACCESS:          0  HIT:          0  MISS:          0
cpu0_ITLB PREFETCH  ACCESS:          0  HIT:          0  MISS:          0
cpu0_ITLB WRITEBACK ACCESS:          0  HIT:          0  MISS:          0
cpu0_L1I TOTAL     ACCESS:      23476  HIT:      23476  MISS:          0
cpu0_L1I LOAD      ACCESS:      23476  HIT:      23476  MISS:          0
cpu0_L1I RFO       ACCESS:          0  HIT:          0  MISS:          0
cpu0_L1I PREFETCH  ACCESS:          0  HIT:          0  MISS:          0
cpu0_L1I WRITEBACK ACCESS:          0  HIT:          0  MISS:          0
cpu0_STLB TOTAL     ACCESS:      65309  HIT:      44976  MISS:      20333
cpu0_STLB LOAD      ACCESS:      62543  HIT:      42626  MISS:      19917
cpu0_STLB RFO       ACCESS:       2766  HIT:       2350  MISS:        416
cpu0_STLB PREFETCH  ACCESS:          0  HIT:          0  MISS:          0
cpu0_STLB WRITEBACK ACCESS:          0  HIT:          0  MISS:          0
cpu0_L1D TOTAL     ACCESS:    6244872  HIT:    5475875  MISS:     768997
cpu0_L1D LOAD      ACCESS:    5472045  HIT:    4741177  MISS:     730868
cpu0_L1D RFO       ACCESS:     753447  HIT:     715555  MISS:      37892
cpu0_L1D PREFETCH  ACCESS:          0  HIT:          0  MISS:          0
cpu0_L1D WRITEBACK ACCESS:          0  HIT:          0  MISS:          0
cpu0_L2C TOTAL     ACCESS:     816139  HIT:     160813  MISS:     655326
cpu0_L2C LOAD      ACCESS:     730865  HIT:     110002  MISS:     620863
cpu0_L2C RFO       ACCESS:      37892  HIT:       3642  MISS:      34250
cpu0_L2C PREFETCH  ACCESS:          0  HIT:          0  MISS:          0
cpu0_L2C WRITEBACK ACCESS:      47145  HIT:      47009  MISS:        136
LLC TOTAL     ACCESS:     697718  HIT:     336664  MISS:     361054
LLC LOAD      ACCESS:     620863  HIT:     260155  MISS:     360708
LLC RFO       ACCESS:      34250  HIT:      33960  MISS:        290
LLC PREFETCH  ACCESS:          0  HIT:          0  MISS:          0
LLC WRITEBACK ACCESS:      42528  HIT:      42483  MISS:         45
Heartbeat CPU 0 instructions: 106000003 cycles: 66026121 heartbeat IPC: 0.937123 cumulative IPC: 1.05633 (Simulation time: 1 hr 19 min 9 sec) 

Region of Interest Statistics
cpu0_DTLB TOTAL     ACCESS:    9842097  HIT:    9773191  MISS:      68906
cpu0_DTLB LOAD      ACCESS:    9305112  HIT:    9239076  MISS:      66036
cpu0_DTLB RFO       ACCESS:     536985  HIT:     534115  MISS:       2870
cpu0_DTLB PREFETCH  ACCESS:          0  HIT:          0  MISS:          0
cpu0_DTLB WRITEBACK ACCESS:          0  HIT:          0  MISS:          0
cpu0_ITLB TOTAL     ACCESS:    4888018  HIT:    4888018  MISS:          0
cpu0_ITLB LOAD      ACCESS:    4888018  HIT:    4888018  MISS:          0
cpu0_ITLB RFO       ACCESS:          0  HIT:          0  MISS:          0
cpu0_ITLB PREFETCH  ACCESS:          0  HIT:          0  MISS:          0
cpu0_ITLB WRITEBACK ACCESS:          0  HIT:          0  MISS:          0
cpu0_L1I TOTAL     ACCESS:      23495  HIT:      23495  MISS:          0
cpu0_L1I LOAD      ACCESS:      23495  HIT:      23495  MISS:          0
cpu0_L1I RFO       ACCESS:          0  HIT:          0  MISS:          0
cpu0_L1I PREFETCH  ACCESS:          0  HIT:          0  MISS:          0
cpu0_L1I WRITEBACK ACCESS:          0  HIT:          0  MISS:          0
cpu0_STLB TOTAL     ACCESS:      68906  HIT:      47594  MISS:      21312
cpu0_STLB LOAD      ACCESS:      66036  HIT:      45145  MISS:      20891
cpu0_STLB RFO       ACCESS:       2870  HIT:       2449  MISS:        421
cpu0_STLB PREFETCH  ACCESS:          0  HIT:          0  MISS:          0
cpu0_STLB WRITEBACK ACCESS:          0  HIT:          0  MISS:          0
cpu0_L1D TOTAL     ACCESS:    6483776  HIT:    5684696  MISS:     799080
cpu0_L1D LOAD      ACCESS:    5674626  HIT:    4914146  MISS:     760480
cpu0_L1D RFO       ACCESS:     788842  HIT:     750490  MISS:      38352
cpu0_L1D PREFETCH  ACCESS:          0  HIT:          0  MISS:          0
cpu0_L1D WRITEBACK ACCESS:          0  HIT:          0  MISS:          0
cpu0_L2C TOTAL     ACCESS:     846702  HIT:     166711  MISS:     679991
cpu0_L2C LOAD      ACCESS:     760477  HIT:     115413  MISS:     645064
cpu0_L2C RFO       ACCESS:      38352  HIT:       3642  MISS:      34710
cpu0_L2C PREFETCH  ACCESS:          0  HIT:          0  MISS:          0
cpu0_L2C WRITEBACK ACCESS:      47625  HIT:      47488  MISS:        137
[...]
cpu0_DTLB PREFETCH  ACCESS:          0  HIT:          0  MISS:          0
cpu0_DTLB WRITEBACK ACCESS:          0  HIT:          0  MISS:          0
cpu0_DTLB TRANSLATION ACCESS:          0  HIT:          0  MISS:          0
cpu0_DTLB PREFETCH  REQUESTED:          0  ISSUED:          0  USEFUL:          0  USELESS:          0
cpu0_DTLB AVERAGE MISS LATENCY: 11.0758 cycles
cpu0_ITLB TOTAL     ACCESS:  129010712  HIT:  129010712  MISS:          0
cpu0_ITLB LOAD      ACCESS:  129010712  HIT:  129010712  MISS:          0
cpu0_ITLB RFO       ACCESS:          0  HIT:          0  MISS:          0
cpu0_ITLB PREFETCH  ACCESS:          0  HIT:          0  MISS:          0
cpu0_ITLB WRITEBACK ACCESS:          0  HIT:          0  MISS:          0
cpu0_ITLB TRANSLATION ACCESS:          0  HIT:          0  MISS:          0
cpu0_ITLB PREFETCH  REQUESTED:          0  ISSUED:          0  USEFUL:          0  USELESS:          0
cpu0_ITLB AVERAGE MISS LATENCY: -nan cycles
cpu0_L1I TOTAL     ACCESS:    1302227  HIT:    1301422  MISS:        805
cpu0_L1I LOAD      ACCESS:    1302227  HIT:    1301422  MISS:        805
cpu0_L1I RFO       ACCESS:          0  HIT:          0  MISS:          0
cpu0_L1I PREFETCH  ACCESS:          0  HIT:          0  MISS:          0
cpu0_L1I WRITEBACK ACCESS:          0  HIT:          0  MISS:          0
cpu0_L1I TRANSLATION ACCESS:          0  HIT:          0  MISS:          0
cpu0_L1I PREFETCH  REQUESTED:          0  ISSUED:          0  USEFUL:          0  USELESS:          0
cpu0_L1I AVERAGE MISS LATENCY: 201.057 cycles
cpu0_STLB TOTAL     ACCESS:    2200012  HIT:    1673187  MISS:     526825
cpu0_STLB LOAD      ACCESS:    2100233  HIT:    1581927  MISS:     518306
cpu0_STLB RFO       ACCESS:      99779  HIT:      91260  MISS:       8519
cpu0_STLB PREFETCH  ACCESS:          0  HIT:          0  MISS:          0
cpu0_STLB WRITEBACK ACCESS:          0  HIT:          0  MISS:          0
cpu0_STLB TRANSLATION ACCESS:          0  HIT:          0  MISS:          0
cpu0_STLB PREFETCH  REQUESTED:          0  ISSUED:          0  USEFUL:          0  USELESS:          0
cpu0_STLB AVERAGE MISS LATENCY: 8.53152 cycles
cpu0_L1D TOTAL     ACCESS:  175976217  HIT:  153685663  MISS:   22290554
cpu0_L1D LOAD      ACCESS:  148801664  HIT:  127330008  MISS:   21471656
cpu0_L1D RFO       ACCESS:   26663211  HIT:   25853710  MISS:     809501
cpu0_L1D PREFETCH  ACCESS:          0  HIT:          0  MISS:          0
cpu0_L1D WRITEBACK ACCESS:          0  HIT:          0  MISS:          0
cpu0_L1D TRANSLATION ACCESS:     511342  HIT:     501945  MISS:       9397
cpu0_L1D PREFETCH  REQUESTED:          0  ISSUED:          0  USEFUL:          0  USELESS:          0
cpu0_L1D AVERAGE MISS LATENCY: 163.038 cycles
cpu0_L2C TOTAL     ACCESS:   23686032  HIT:    5461658  MISS:   18224374
cpu0_L2C LOAD      ACCESS:   21472376  HIT:    3924871  MISS:   17547505
cpu0_L2C RFO       ACCESS:     809414  HIT:     136646  MISS:     672768
cpu0_L2C PREFETCH  ACCESS:          0  HIT:          0  MISS:          0
cpu0_L2C WRITEBACK ACCESS:    1394845  HIT:    1392120  MISS:       2725
cpu0_L2C TRANSLATION ACCESS:       9397  HIT:       8021  MISS:       1376
cpu0_L2C PREFETCH  REQUESTED:          0  ISSUED:          0  USEFUL:          0  USELESS:          0
cpu0_L2C AVERAGE MISS LATENCY: 185.917 cycles
LLC TOTAL     ACCESS:   19349684  HIT:    5634271  MISS:   13715413
LLC LOAD      ACCESS:   17547447  HIT:    3877159  MISS:   13670288
LLC RFO       ACCESS:     672768  HIT:     628224  MISS:      44544
LLC PREFETCH  ACCESS:          0  HIT:          0  MISS:          0
LLC WRITEBACK ACCESS:    1128093  HIT:    1127745  MISS:        348
LLC TRANSLATION ACCESS:       1376  HIT:       1143  MISS:        233
LLC PREFETCH  REQUESTED:          0  ISSUED:          0  USEFUL:          0  USELESS:          0
LLC AVERAGE MISS LATENCY: 219.137 cycles
~~~~~~~~~~Reuse Distance Profiler output~~~~~~~~~~
0	31546784	18491120
1	27785168	25735008
2	18998112	17093504
3	10149856	9543200
4	7430048	6965376
5	4106144	3736688
6	3588272	2997568
7	2311120	2060816
8	1707856	1503632
9	1419200	1251200
10	1125536	973440
11	807696	655088
12	755152	596224
13	629248	489776
14	863696	574496
15	604144	494384
16	631056	475584
17	766416	637456
18	579824	479024
19	456048	346400
20	399504	287408
21	398864	273024
22	445264	313344
23	420864	300896
24	442736	354400
25	524560	416144
26	510688	403744
27	557152	471600
28	611968	521376
29	588400	503760
30	617792	536176
31	686032	609344
32	779264	678448
33	897936	786384
34	903536	806480
35	947664	839824
36	994240	865152
37	1041424	944752
38	1082576	987296
39	1186960	1086832
40	1175808	1079712
41	1155280	1049760
42	1176528	1057504
43	1184992	1032880
44	1182736	1065792
45	1116048	1005872
46	1039776	923376
47	1003712	904064
48	1055840	952352
49	1080624	972416
50	979040	893408
51	942336	868080
52	900768	838096
53	743088	685344
54	615632	565312
55	500784	454368
56	419760	375264
57	343600	308832
58	306976	276896
59	286976	259680
60	308160	280720
61	229584	206704
62	177968	158368
63	167696	141712
64	312960	264816
66	173696	141776
68	157968	128864
70	142448	117856
72	140512	122944
74	192704	176480
76	313248	297568
78	235648	220016
80	230880	213216
82	220192	204528
84	152256	138112
86	158672	142928
88	168208	153072
90	217248	175504
92	178512	153168
94	168384	136960
96	153952	114048
98	127488	102992
100	131968	102912
102	134400	107584
104	116064	94768
106	123872	102336
108	133424	112896
110	130272	107984
112	120640	85680
114	113680	68224
116	89072	61616
118	68080	37360
120	53088	34704
122	42192	29904
124	46160	32384
126	59984	41376
128	146976	117872
132	116496	97232
136	100336	86416
140	135264	121040
144	212784	201136
148	240784	232080
152	250816	243168
156	255648	248192
160	219312	212080
164	168256	162896
168	133872	128704
172	97504	92784
176	71488	66576
180	57424	52720
184	56304	52256
188	58304	54256
192	65488	62160
196	79920	75648
200	89616	83728
204	86304	81216
208	79296	75776
212	61616	58560
216	46720	43616
220	36240	32848
224	32064	28976
228	27456	24464
232	26240	23520
236	26064	22848
240	30384	26192
244	31216	25776
248	34752	27424
252	38656	26384
256	74976	56880
264	48048	37696
272	38608	31904
280	47184	36272
288	57536	37936
296	67616	35552
304	63744	30704
312	57696	28880
320	52688	28496
328	53680	33184
336	54048	37056
344	52704	39232
352	51680	41392
360	58192	49072
368	72560	64032
376	103408	94800
384	138992	129104
392	162608	154528
400	177696	170608
408	177632	170688
416	163472	157040
424	140192	132800
432	116304	107408
440	104784	93760
448	105216	93904
456	127616	114656
464	184288	166208
472	269424	240192
480	367744	324784
488	437424	380864
496	435872	375600
504	356672	306592
512	421072	359136
528	175776	150080
544	75680	64224
560	42320	35984
576	30704	25216
592	26576	21168
608	25264	20192
624	23104	16848
640	20384	15088
656	16656	13136
672	14864	11856
688	14624	12400
704	14160	11824
720	13552	11536
736	13552	11264
752	13744	11680
768	14800	12496
784	15184	12784
800	16112	14128
816	13744	11632
832	15024	12864
848	14976	12528
864	16720	14592
880	20608	18512
896	18288	15888
912	18720	16592
928	19600	18032
944	22768	21136
960	34464	32496
976	55648	53584
992	71632	68304
1008	73200	67936
1024	87104	79520
1056	37280	33552
1088	24192	21648
1120	19200	16496
1152	15680	13408
1184	14896	12640
1216	14528	11792
1248	12864	10720
1280	13472	11280
1312	13712	11264
1344	15024	12464
1376	15232	12832
1408	17664	15552
1440	28304	26464
1472	50976	49344
1504	54432	52384
1536	39712	37504
1568	26096	24064
1600	19600	18208
1632	13792	12480
1664	13216	11520
1696	11568	9920
1728	11840	10208
1760	10112	8816
1792	10416	9088
1824	10944	9728
1856	11408	10208
1888	12576	11504
1920	17456	16448
1952	28048	26784
1984	39616	38288
2016	42304	40656
2048	55584	52976
2112	31808	29216
2176	22496	20480
2240	19664	17648
2304	22256	20224
2368	23440	21680
2432	43648	41264
2496	58960	56816
2560	41280	38112
2624	28544	21296
2688	22272	16432
2752	16816	13808
2816	16496	14784
2880	22336	20736
2944	36720	34944
3008	46480	44864
3072	33488	32016
3136	21936	20176
3200	16992	15648
3264	14976	13776
3328	14576	13600
3392	19872	19072
3456	33840	33088
3520	37024	36480
3584	27632	27184
3648	19072	18576
3712	16448	15936
3776	14304	13776
3840	14592	14160
3904	20512	20048
3968	29952	29488
4032	29872	29536
4096	42304	41616
4224	28160	27488
4352	34784	34048
4480	54944	54240
4608	38720	37920
4736	25904	25200
4864	36960	36480
4992	50944	50272
5120	36496	36032
5248	28560	28016
5376	36912	36224
5504	45408	44384
5632	34400	33920
5760	27600	27168
5888	34992	34320
6016	42688	42144
6144	32592	31872
6272	27472	26880
6400	33424	32752
6528	39360	38864
6656	30224	29792
6784	24384	23776
6912	30880	30400
7040	35520	35104
7168	29040	28608
7296	23920	23648
7424	31488	30832
7552	31424	30368
7680	27232	26672
7808	24944	24448
7936	32384	30416
8064	34896	31056
8192	53120	51744
8448	57968	55520
8704	52352	48896
8960	57584	54704
9216	47984	46960
9472	52944	52016
9728	49440	48192
9984	51792	49984
10240	46096	44320
10496	46432	45296
10752	49696	43152
11008	46528	43136
11264	41856	40256
11520	42992	41504
11776	42880	39888
12032	41920	39088
12288	39456	38256
12544	38880	38112
12800	39776	38976
13056	38256	37600
13312	37568	36512
13568	39856	35856
13824	38272	37440
14080	36992	35920
14336	35104	34336
14592	35152	34128
14848	35648	34512
15104	33744	32976
15360	33264	32656
15616	30592	30144
15872	31328	30544
16128	29840	29328
16384	62544	60736
16896	60704	58960
17408	61200	59440
17920	65216	55952
18432	57120	55008
18944	66096	55280
19456	56704	53696
19968	54240	51808
20480	61664	58720
20992	76048	71344
21504	46720	44784
22016	48960	46064
22528	44112	42480
23040	43152	41856
23552	40928	39872
24064	40064	39344
24576	40944	39936
25088	35824	35232
25600	35360	34864
26112	33888	33504
26624	32176	31504
27136	29760	29264
27648	29088	28848
28160	27312	26960
28672	28528	28176
29184	26656	26288
29696	26448	26112
30208	25648	25440
30720	26352	26128
31232	25120	24928
31744	22960	22816
32256	23120	22992
32768	44192	43920
33792	41648	41472
34816	39808	39488
35840	37616	37376
36864	34464	34352
37888	35840	35600
38912	33776	33568
39936	33088	32896
40960	31408	31152
41984	30288	29984
43008	27600	27392
44032	26976	26672
45056	26800	26592
46080	25120	24896
47104	22928	22800
48128	22864	22800
49152	23536	23296
50176	22144	22080
51200	19776	19680
52224	19824	19408
53248	19232	18992
54272	19024	18832
55296	19232	18944
56320	18480	18304
57344	19200	19024
58368	17696	17600
59392	20992	20928
60416	22608	22544
61440	21440	21312
62464	20960	20800
63488	19248	19104
64512	19008	18912
65536	35360	35136
67584	32576	32464
69632	30208	30080
71680	28864	28704
73728	29488	29328
75776	28512	28464
77824	24880	24880
79872	22992	22944
81920	22256	22160
83968	21776	21568
86016	20272	19296
88064	20272	18464
90112	21120	18096
92160	22528	18880
94208	21296	17312
96256	23648	18576
98304	20800	18048
100352	18000	16384
102400	16656	15552
104448	16112	15232
106496	16112	15056
108544	16528	15712
110592	16064	14576
112640	14784	13808
114688	15760	15088
116736	13312	12320
118784	12544	11568
120832	11744	10336
122880	10928	8688
124928	10448	8448
126976	11456	9264
129024	9136	7264
131072	17488	15328
135168	17904	15456
139264	18160	15360
143360	15088	13408
147456	16080	14544
151552	14880	13072
155648	14400	13008
159744	12704	11344
163840	12672	11024
167936	11824	10048
172032	12208	10480
176128	11696	9792
180224	11968	10224
184320	11600	9840
188416	11504	9568
192512	10672	8608
196608	9840	7648
200704	8464	6704
204800	8624	6624
208896	9456	7280
212992	9712	7792
217088	10240	7200
221184	9984	7216
225280	9632	6880
229376	10176	7696
233472	9888	7600
237568	9904	7328
241664	9312	6864
245760	9248	6912
249856	9232	7104
253952	8256	5952
258048	9040	6656
262144	17344	12416
270336	15632	10736
278528	16112	9792
286720	14032	9136
294912	13216	8000
303104	13872	8080
311296	14256	9168
319488	14320	9424
327680	13472	8272
335872	12864	8560
344064	13840	10400
352256	12064	8096
360448	11376	8240
368640	10544	7984
376832	10096	7344
385024	9328	7184
393216	8896	7472
401408	8432	6928
409600	8064	6256
417792	8096	6224
425984	7888	6032
434176	7376	6032
442368	6784	5664
450560	6704	5200
458752	6960	5504
466944	7072	5648
475136	6400	5152
483328	6480	5120
491520	6640	5456
499712	6000	4496
507904	6592	5328
516096	6192	5040
524288	12896	10432
540672	11840	9648
557056	13312	10208
573440	26608	17072
589824	201968	197680
606208	19648	14272
622592	124960	116416
638976	159904	152416
655360	157392	148176
671744	163184	159920
688128	38224	35136
704512	94400	88480
720896	146032	140144
737280	73296	71680
753664	64560	59472
770048	131984	126080
786432	176592	167920
802816	262336	252000
819200	319552	313360
835584	88720	78720
851968	511232	486352
868352	1090560	1060096
884736	685936	665424
901120	706976	691376
917504	486912	469296
933888	559216	544080
950272	493632	479184
966656	345920	334864
983040	354256	348064
999424	199008	192512
1015808	284528	275456
1032192	325488	316448
1048576	666416	648624
1081344	426160	411552
1114112	611616	599104
1146880	248832	243888
1179648	181232	175920
1212416	112240	107696
1245184	605312	586480
1277952	880496	869264
1310720	143248	140384
1343488	138064	134928
1376256	173120	167952
1409024	118432	117696
1441792	96224	94192
1474560	170640	164288
1507328	212720	207344
1540096	170016	167008
1572864	348864	342416
1605632	167552	164032
1638400	169120	166064
1671168	282688	274672
1703936	265744	259760
1736704	290512	287232
1769472	376096	366672
1802240	509072	499072
1835008	461920	456912
1867776	119472	119152
1900544	1472	1440
1933312	5952	5888
1966080	2864	2704
1998848	2080	1936
2031616	4528	4448
2064384	8576	6256
2097152	167120	166352
2162688	4496	4448
2228224	14368	14224
2293760	19248	19152
2359296	10832	10784
2424832	11184	10240
2490368	53488	49872
2555904	68272	67712
2621440	31056	31024
2686976	32080	31888
2752512	30416	30016
2818048	5792	5664
2883584	59040	58704
2949120	17632	17568
3014656	42304	40160
3080192	10400	10400
3145728	560	528
3211264	1696	1696
3276800	1760	1728
3342336	1536	1536
3407872	1152	1152
3473408	304	304
3538944	2288	2272
3604480	1536	1504
3670016	1968	1968
3735552	7216	7216
3801088	1616	1616
3866624	1968	1952
3932160	784	784
3997696	864	864
4063232	4128	4112
4128768	880	848
4194304	3680	3664
4325376	1200	1184
4456448	4176	4160
4587520	5104	5040
4718592	2704	2688
4849664	944	944
4980736	1520	1488
5111808	1872	1824
5242880	4928	4912
5373952	2208	2192
5505024	5504	5488
5636096	1392	1296
5767168	3264	3264
5898240	1744	1728
6029312	2416	2400
6160384	3792	3744
6291456	4064	4064
6422528	736	688
6553600	2816	2784
6684672	640	592
6815744	3632	3584
6946816	7696	7680
7077888	3312	3264
7208960	3952	3952
7340032	2608	2608
7471104	1344	1344
7602176	7728	7728
7733248	4256	4240
7864320	4608	4512
7995392	2880	2864
8126464	2160	2128
8257536	6688	6640
8388608	2032	1984
8650752	4944	4912
8912896	3600	3552
9175040	2992	2448
9437184	6832	6432
9699328	1520	1424
9961472	2624	2544
10223616	1200	1200
10485760	6304	5568
10747904	5264	4752
11010048	1888	1504
11272192	7200	6576
11534336	1200	1136
11796480	688	672
12058624	4128	4128
12320768	8496	8256
12582912	4368	3200
12845056	2096	1680
13107200	4256	4048
13369344	2416	1584
13631488	4464	3648
13893632	1200	816
14155776	2576	2576
14417920	3376	3360
14680064	1408	1392
14942208	1008	1008
15204352	11936	11920
15466496	3040	3024
15728640	1680	1664
15990784	3936	3936
16252928	2784	2768
16515072	1920	1920
16777216	4736	4736
17301504	5728	5696
17825792	2048	2032
18350080	4496	3376
18874368	976	944
19398656	3344	3280
19922944	896	848
20447232	1008	976
20971520	1920	1920
21495808	896	880
22020096	464	464
22544384	3120	2400
23068672	576	512
23592960	448	432
24117248	160	144
24641536	2160	2112
25165824	864	848
25690112	880	864
26214400	1488	1488
26738688	576	576
27262976	560	544
27787264	1824	1824
28311552	928	880
28835840	416	416
29360128	2368	2368
29884416	320	288
30408704	1440	1440
30932992	320	304
31457280	912	912
31981568	112	112
32505856	3024	3024
33030144	1120	1072
33554432	2448	2432
34603008	1200	1120
35651584	2512	2464
36700160	4496	4496
37748736	3296	3296
38797312	3232	3184
39845888	3168	3088
40894464	2672	2560
41943040	2944	2928
42991616	2848	2832
44040192	4288	4256
45088768	3040	3024
46137344	1888	1856
47185920	2256	2240
48234496	5232	5152
49283072	4416	4400
50331648	2240	2240
51380224	2736	2688
52428800	912	912
53477376	2784	2736
54525952	800	800
55574528	784	768
56623104	624	624
57671680	288	272
58720256	1040	1024
59768832	160	160
60817408	768	752
61865984	336	320
62914560	432	432
63963136	1296	1296
65011712	176	176
66060288	160	160
67108864	800	800
69206016	2352	2336
71303168	1840	1840
73400320	544	544
75497472	3472	3472
77594624	2832	2832
79691776	4560	4560
81788928	1712	1712
83886080	2304	2304
85983232	1152	1152
88080384	1344	1344
90177536	4288	4288
92274688	864	864
94371840	640	640
96468992	432	432
98566144	624	624
100663296	768	768
102760448	192	192
104857600	0	0
106954752	0	0
109051904	0	0
111149056	16	16
113246208	80	80
115343360	32	32
117440512	16	16
119537664	48	48
121634816	160	160
123731968	0	0
125829120	512	512
127926272	720	720
130023424	32	32
132120576	0	0
134217728	16	16
138412032	64	64
142606336	32	32
146800640	0	0
150994944	0	0
155189248	0	0
159383552	0	0
163577856	0	0
167772160	0	0
171966464	0	0
176160768	16	16
180355072	0	0
184549376	0	0
188743680	0	0
192937984	0	0
197132288	0	0
201326592	0	0
205520896	0	0
209715200	0	0
213909504	0	0
218103808	0	0
222298112	0	0
226492416	0	0
230686720	0	0
234881024	0	0
239075328	0	0
243269632	0	0
247463936	0	0
251658240	0	0
255852544	0	0
260046848	0	0
264241152	0	0
268435456	0	0
276824064	0	0
285212672	0	0
293601280	0	0
301989888	0	0
310378496	0	0
318767104	0	0
327155712	0	0
335544320	0	0
343932928	0	0
352321536	0	0
360710144	0	0
369098752	0	0
377487360	0	0
385875968	0	0
394264576	0	0
402653184	0	0
411041792	0	0
419430400	0	0
427819008	0	0
436207616	0	0
444596224	0	0
452984832	0	0
461373440	0	0
469762048	0	0
478150656	0	0
486539264	0	0
494927872	0	0
503316480	0	0
511705088	0	0
520093696	0	0
528482304	0	0
536870912	0	0
553648128	0	0
570425344	0	0
587202560	0	0
603979776	0	0
620756992	0	0
637534208	0	0
654311424	0	0
671088640	0	0
687865856	0	0
704643072	0	0
721420288	0	0
738197504	0	0
754974720	0	0
771751936	0	0
788529152	0	0
805306368	0	0
822083584	0	0
838860800	0	0
855638016	0	0
872415232	0	0
889192448	0	0
905969664	0	0
922746880	0	0
939524096	0	0
956301312	0	0
973078528	0	0
989855744	0	0
1006632960	0	0
1023410176	0	0
1040187392	0	0
1056964608	0	0
1073741824	0	0
1107296256	0	0
1140850688	0	0
1174405120	0	0
1207959552	0	0
1241513984	0	0
1275068416	0	0
1308622848	0	0
1342177280	0	0
1375731712	0	0
1409286144	0	0
1442840576	0	0
1476395008	0	0
1509949440	0	0
1543503872	0	0
1577058304	0	0
1610612736	0	0
1644167168	0	0
1677721600	0	0
1711276032	0	0
1744830464	0	0
1778384896	0	0
1811939328	0	0
1845493760	0	0
1879048192	0	0
1912602624	0	0
1946157056	0	0
1979711488	0	0
2013265920	0	0
2046820352	0	0
2080374784	0	0
2113929216	0	0
2147483648	0	0
2214592512	0	0
2281701376	0	0
2348810240	0	0
2415919104	0	0
2483027968	0	0
2550136832	0	0
2617245696	0	0
2684354560	0	0
2751463424	0	0
2818572288	0	0
2885681152	0	0
2952790016	0	0
3019898880	0	0
3087007744	0	0
3154116608	0	0
3221225472	0	0
3288334336	0	0
3355443200	0	0
3422552064	0	0
3489660928	0	0
3556769792	0	0
3623878656	0	0
3690987520	0	0
3758096384	0	0
3825205248	0	0
3892314112	0	0
3959422976	0	0
4026531840	0	0
4093640704	0	0
4160749568	0	0
4227858432	0	0
~~~~~~~~~~Reuse Distance Profiler output end~~~~~~~~~~

Sampler size:11638

DRAM Statistics
 CHANNEL 0
 RQ ROW_BUFFER_HIT:    1192788  ROW_BUFFER_MISS:   12522162
 DBUS AVG_CONGESTED_CYCLE:    3.86614
 WQ ROW_BUFFER_HIT:      54218  ROW_BUFFER_MISS:      72778  FULL:          0


CPU 0 Branch Prediction Accuracy: 92.9794% MPKI: 6.62931 Average ROB Occupancy at Mispredict: 182.067
Branch type MPKI
BRANCH_DIRECT_JUMP: 6.66667e-06
BRANCH_INDIRECT: 0
BRANCH_CONDITIONAL: 6.62929
BRANCH_DIRECT_CALL: 1.33333e-06
BRANCH_INDIRECT_CALL: 2e-06
BRANCH_RETURN: 3.33333e-06

