
*** ChampSim Multicore Out-of-Order Simulator ***

Warmup Instructions: 50000000
Simulation Instructions: 1500000000
Number of CPUs: 1
Off-chip DRAM Size: 4 GiB Channels: 1 Width: 64-bit Data Rate: 3200 MT/s

VirtualMemory physical capacity: 8588881920 num_ppages: 2096895
VirtualMemory page size: 4096 log2_page_size: 12

CPU 0 runs /s/traces/champsim_traces/482.sphinx3-417B.champsimtrace.xz
CPU 0 Bimodal branch predictor
Basic BTB sets: 1024 ways: 8 indirect buffer size: 4096 RAS size: 64
Initializing LRU.
Initializing LRU.
Initializing LRU.
Initializing LRU.
Initializing rdLRU.
Initializing LRU.
Heartbeat CPU 0 instructions: 2000003 cycles: 539198 heartbeat IPC: 3.70922 cumulative IPC: 3.70922 (Simulation time: 0 hr 0 min 56 sec) 
Heartbeat CPU 0 instructions: 4000001 cycles: 1042932 heartbeat IPC: 3.97035 cumulative IPC: 3.83534 (Simulation time: 0 hr 1 min 43 sec) 
Heartbeat CPU 0 instructions: 6000000 cycles: 1590199 heartbeat IPC: 3.65452 cumulative IPC: 3.77311 (Simulation time: 0 hr 2 min 37 sec) 
Heartbeat CPU 0 instructions: 8000003 cycles: 2127647 heartbeat IPC: 3.7213 cumulative IPC: 3.76002 (Simulation time: 0 hr 3 min 27 sec) 
Heartbeat CPU 0 instructions: 10000003 cycles: 2634153 heartbeat IPC: 3.94862 cumulative IPC: 3.79629 (Simulation time: 0 hr 4 min 19 sec) 
Heartbeat CPU 0 instructions: 12000000 cycles: 3174658 heartbeat IPC: 3.70024 cumulative IPC: 3.77993 (Simulation time: 0 hr 5 min 14 sec) 
Heartbeat CPU 0 instructions: 14000003 cycles: 3677305 heartbeat IPC: 3.97894 cumulative IPC: 3.80714 (Simulation time: 0 hr 5 min 59 sec) 
Heartbeat CPU 0 instructions: 16000003 cycles: 4213498 heartbeat IPC: 3.73 cumulative IPC: 3.79732 (Simulation time: 0 hr 6 min 56 sec) 
Heartbeat CPU 0 instructions: 18000002 cycles: 4721461 heartbeat IPC: 3.93729 cumulative IPC: 3.81238 (Simulation time: 0 hr 7 min 44 sec) 
Heartbeat CPU 0 instructions: 20000003 cycles: 5245345 heartbeat IPC: 3.81764 cumulative IPC: 3.81291 (Simulation time: 0 hr 8 min 41 sec) 
Heartbeat CPU 0 instructions: 22000003 cycles: 5767243 heartbeat IPC: 3.83217 cumulative IPC: 3.81465 (Simulation time: 0 hr 9 min 31 sec) 
Heartbeat CPU 0 instructions: 24000003 cycles: 6278488 heartbeat IPC: 3.91202 cumulative IPC: 3.82258 (Simulation time: 0 hr 10 min 24 sec) 
Heartbeat CPU 0 instructions: 26000003 cycles: 6809025 heartbeat IPC: 3.76977 cumulative IPC: 3.81846 (Simulation time: 0 hr 11 min 14 sec) 
Heartbeat CPU 0 instructions: 28000000 cycles: 7317855 heartbeat IPC: 3.93058 cumulative IPC: 3.82626 (Simulation time: 0 hr 12 min 8 sec) 
Heartbeat CPU 0 instructions: 30000001 cycles: 7847854 heartbeat IPC: 3.77359 cumulative IPC: 3.8227 (Simulation time: 0 hr 12 min 58 sec) 
Heartbeat CPU 0 instructions: 32000001 cycles: 8357330 heartbeat IPC: 3.9256 cumulative IPC: 3.82897 (Simulation time: 0 hr 13 min 48 sec) 
Heartbeat CPU 0 instructions: 34000000 cycles: 8886692 heartbeat IPC: 3.77813 cumulative IPC: 3.82595 (Simulation time: 0 hr 14 min 40 sec) 
Heartbeat CPU 0 instructions: 36000004 cycles: 9396972 heartbeat IPC: 3.91942 cumulative IPC: 3.83102 (Simulation time: 0 hr 15 min 34 sec) 
Heartbeat CPU 0 instructions: 38000000 cycles: 9925309 heartbeat IPC: 3.78546 cumulative IPC: 3.8286 (Simulation time: 0 hr 16 min 26 sec) 
Heartbeat CPU 0 instructions: 40000000 cycles: 10440371 heartbeat IPC: 3.88303 cumulative IPC: 3.83128 (Simulation time: 0 hr 17 min 17 sec) 
Heartbeat CPU 0 instructions: 42000001 cycles: 10962133 heartbeat IPC: 3.83317 cumulative IPC: 3.83137 (Simulation time: 0 hr 18 min 4 sec) 
Heartbeat CPU 0 instructions: 44000002 cycles: 11477308 heartbeat IPC: 3.88218 cumulative IPC: 3.83365 (Simulation time: 0 hr 18 min 57 sec) 
Heartbeat CPU 0 instructions: 46000003 cycles: 11999146 heartbeat IPC: 3.83261 cumulative IPC: 3.83361 (Simulation time: 0 hr 19 min 43 sec) 
Heartbeat CPU 0 instructions: 48000003 cycles: 12516509 heartbeat IPC: 3.86576 cumulative IPC: 3.83494 (Simulation time: 0 hr 20 min 27 sec) 
Heartbeat CPU 0 instructions: 50000000 cycles: 13038475 heartbeat IPC: 3.83166 cumulative IPC: 3.8348 (Simulation time: 0 hr 21 min 13 sec) 

Warmup complete CPU 0 instructions: 50000004 cycles: 13038476 (Simulation time: 0 hr 21 min 13 sec) 

Heartbeat CPU 0 instructions: 52000002 cycles: 14350235 heartbeat IPC: 1.52467 cumulative IPC: 1.52467 (Simulation time: 0 hr 22 min 14 sec) 

Region of Interest Statistics
cpu0_DTLB TOTAL     ACCESS:     355406  HIT:     349278  MISS:       6128
cpu0_DTLB LOAD      ACCESS:     320904  HIT:     314964  MISS:       5940
cpu0_DTLB RFO       ACCESS:      34502  HIT:      34314  MISS:        188
cpu0_DTLB PREFETCH  ACCESS:          0  HIT:          0  MISS:          0
cpu0_DTLB WRITEBACK ACCESS:          0  HIT:          0  MISS:          0
cpu0_ITLB TOTAL     ACCESS:     188563  HIT:     188563  MISS:          0
cpu0_ITLB LOAD      ACCESS:     188563  HIT:     188563  MISS:          0
cpu0_ITLB RFO       ACCESS:          0  HIT:          0  MISS:          0
cpu0_ITLB PREFETCH  ACCESS:          0  HIT:          0  MISS:          0
cpu0_ITLB WRITEBACK ACCESS:          0  HIT:          0  MISS:          0
cpu0_L1I TOTAL     ACCESS:        698  HIT:        698  MISS:          0
cpu0_L1I LOAD      ACCESS:        698  HIT:        698  MISS:          0
cpu0_L1I RFO       ACCESS:          0  HIT:          0  MISS:          0
cpu0_L1I PREFETCH  ACCESS:          0  HIT:          0  MISS:          0
cpu0_L1I WRITEBACK ACCESS:          0  HIT:          0  MISS:          0
cpu0_STLB TOTAL     ACCESS:       6128  HIT:       3812  MISS:       2316
cpu0_STLB LOAD      ACCESS:       5940  HIT:       3640  MISS:       2300
cpu0_STLB RFO       ACCESS:        188  HIT:        172  MISS:         16
cpu0_STLB PREFETCH  ACCESS:          0  HIT:          0  MISS:          0
cpu0_STLB WRITEBACK ACCESS:          0  HIT:          0  MISS:          0
cpu0_L1D TOTAL     ACCESS:     306220  HIT:     265842  MISS:      40378
cpu0_L1D LOAD      ACCESS:     239271  HIT:     199857  MISS:      39414
cpu0_L1D RFO       ACCESS:      64765  HIT:      63817  MISS:        948
cpu0_L1D PREFETCH  ACCESS:          0  HIT:          0  MISS:          0
cpu0_L1D WRITEBACK ACCESS:          0  HIT:          0  MISS:          0
cpu0_L2C TOTAL     ACCESS:      43046  HIT:      13700  MISS:      29346
cpu0_L2C LOAD      ACCESS:      39414  HIT:      11017  MISS:      28397
cpu0_L2C RFO       ACCESS:        948  HIT:         21  MISS:        927
cpu0_L2C PREFETCH  ACCESS:          0  HIT:          0  MISS:          0
cpu0_L2C WRITEBACK ACCESS:       2668  HIT:       2657  MISS:         11
LLC TOTAL     ACCESS:      30259  HIT:      28838  MISS:       1421
LLC LOAD      ACCESS:      28397  HIT:      26976  MISS:       1421
LLC RFO       ACCESS:        927  HIT:        927  MISS:          0
LLC PREFETCH  ACCESS:          0  HIT:          0  MISS:          0
LLC WRITEBACK ACCESS:        924  HIT:        924  MISS:          0
Heartbeat CPU 0 instructions: 54000002 cycles: 15151504 heartbeat IPC: 2.49604 cumulative IPC: 1.89302 (Simulation time: 0 hr 23 min 7 sec) 

Region of Interest Statistics
cpu0_DTLB TOTAL     ACCESS:     677054  HIT:     670004  MISS:       7050
cpu0_DTLB LOAD      ACCESS:     627287  HIT:     620520  MISS:       6767
cpu0_DTLB RFO       ACCESS:      49767  HIT:      49484  MISS:        283
cpu0_DTLB PREFETCH  ACCESS:          0  HIT:          0  MISS:          0
cpu0_DTLB WRITEBACK ACCESS:          0  HIT:          0  MISS:          0
cpu0_ITLB TOTAL     ACCESS:     379684  HIT:     379684  MISS:          0
cpu0_ITLB LOAD      ACCESS:     379684  HIT:     379684  MISS:          0
cpu0_ITLB RFO       ACCESS:          0  HIT:          0  MISS:          0
cpu0_ITLB PREFETCH  ACCESS:          0  HIT:          0  MISS:          0
cpu0_ITLB WRITEBACK ACCESS:          0  HIT:          0  MISS:          0
cpu0_L1I TOTAL     ACCESS:       1413  HIT:       1413  MISS:          0
cpu0_L1I LOAD      ACCESS:       1413  HIT:       1413  MISS:          0
cpu0_L1I RFO       ACCESS:          0  HIT:          0  MISS:          0
cpu0_L1I PREFETCH  ACCESS:          0  HIT:          0  MISS:          0
cpu0_L1I WRITEBACK ACCESS:          0  HIT:          0  MISS:          0
cpu0_STLB TOTAL     ACCESS:       7050  HIT:       4353  MISS:       2697
cpu0_STLB LOAD      ACCESS:       6767  HIT:       4119  MISS:       2648
cpu0_STLB RFO       ACCESS:        283  HIT:        234  MISS:         49
cpu0_STLB PREFETCH  ACCESS:          0  HIT:          0  MISS:          0
cpu0_STLB WRITEBACK ACCESS:          0  HIT:          0  MISS:          0
cpu0_L1D TOTAL     ACCESS:     530452  HIT:     461702  MISS:      68750
cpu0_L1D LOAD      ACCESS:     446868  HIT:     382519  MISS:      64349
cpu0_L1D RFO       ACCESS:      81044  HIT:      76666  MISS:       4378
cpu0_L1D PREFETCH  ACCESS:          0  HIT:          0  MISS:          0
cpu0_L1D WRITEBACK ACCESS:          0  HIT:          0  MISS:          0
cpu0_L2C TOTAL     ACCESS:      74936  HIT:      20188  MISS:      54748
cpu0_L2C LOAD      ACCESS:      64349  HIT:      13588  MISS:      50761
cpu0_L2C RFO       ACCESS:       4378  HIT:        416  MISS:       3962
cpu0_L2C PREFETCH  ACCESS:          0  HIT:          0  MISS:          0
cpu0_L2C WRITEBACK ACCESS:       6186  HIT:       6173  MISS:         13
LLC TOTAL     ACCESS:      60078  HIT:      58653  MISS:       1425
LLC LOAD      ACCESS:      50761  HIT:      49338  MISS:       1423
LLC RFO       ACCESS:       3962  HIT:       3960  MISS:          2
LLC PREFETCH  ACCESS:          0  HIT:          0  MISS:          0
LLC WRITEBACK ACCESS:       5343  HIT:       5343  MISS:          0
Heartbeat CPU 0 instructions: 56000003 cycles: 16481253 heartbeat IPC: 1.50404 cumulative IPC: 1.74278 (Simulation time: 0 hr 24 min 9 sec) 

Region of Interest Statistics
cpu0_DTLB TOTAL     ACCESS:    1033072  HIT:    1020061  MISS:      13011
cpu0_DTLB LOAD      ACCESS:     949447  HIT:     936852  MISS:      12595
cpu0_DTLB RFO       ACCESS:      83625  HIT:      83209  MISS:        416
cpu0_DTLB PREFETCH  ACCESS:          0  HIT:          0  MISS:          0
cpu0_DTLB WRITEBACK ACCESS:          0  HIT:          0  MISS:          0
cpu0_ITLB TOTAL     ACCESS:     571231  HIT:     571231  MISS:          0
cpu0_ITLB LOAD      ACCESS:     571231  HIT:     571231  MISS:          0
cpu0_ITLB RFO       ACCESS:          0  HIT:          0  MISS:          0
cpu0_ITLB PREFETCH  ACCESS:          0  HIT:          0  MISS:          0
cpu0_ITLB WRITEBACK ACCESS:          0  HIT:          0  MISS:          0
cpu0_L1I TOTAL     ACCESS:       1433  HIT:       1433  MISS:          0
cpu0_L1I LOAD      ACCESS:       1433  HIT:       1433  MISS:          0
cpu0_L1I RFO       ACCESS:          0  HIT:          0  MISS:          0
cpu0_L1I PREFETCH  ACCESS:          0  HIT:          0  MISS:          0
cpu0_L1I WRITEBACK ACCESS:          0  HIT:          0  MISS:          0
cpu0_STLB TOTAL     ACCESS:      13011  HIT:       8176  MISS:       4835
cpu0_STLB LOAD      ACCESS:      12595  HIT:       7821  MISS:       4774
cpu0_STLB RFO       ACCESS:        416  HIT:        355  MISS:         61
cpu0_STLB PREFETCH  ACCESS:          0  HIT:          0  MISS:          0
cpu0_STLB WRITEBACK ACCESS:          0  HIT:          0  MISS:          0
cpu0_L1D TOTAL     ACCESS:     828167  HIT:     719265  MISS:     108902
cpu0_L1D LOAD      ACCESS:     679701  HIT:     576143  MISS:     103558
cpu0_L1D RFO       ACCESS:     143918  HIT:     138605  MISS:       5313
cpu0_L1D PREFETCH  ACCESS:          0  HIT:          0  MISS:          0
cpu0_L1D WRITEBACK ACCESS:          0  HIT:          0  MISS:          0
cpu0_L2C TOTAL     ACCESS:     116146  HIT:      32399  MISS:      83747
cpu0_L2C LOAD      ACCESS:     103558  HIT:      24727  MISS:      78831
cpu0_L2C RFO       ACCESS:       5313  HIT:        438  MISS:       4875
cpu0_L2C PREFETCH  ACCESS:          0  HIT:          0  MISS:          0
cpu0_L2C WRITEBACK ACCESS:       7244  HIT:       7220  MISS:         24
LLC TOTAL     ACCESS:      89794  HIT:      86601  MISS:       3193
LLC LOAD      ACCESS:      78831  HIT:      75640  MISS:       3191
LLC RFO       ACCESS:       4875  HIT:       4873  MISS:          2
LLC PREFETCH  ACCESS:          0  HIT:          0  MISS:          0
LLC WRITEBACK ACCESS:       6071  HIT:       6071  MISS:          0
Heartbeat CPU 0 instructions: 58000001 cycles: 17462985 heartbeat IPC: 2.03721 cumulative IPC: 1.80811 (Simulation time: 0 hr 25 min 7 sec) 

Region of Interest Statistics
cpu0_DTLB TOTAL     ACCESS:    1361709  HIT:    1346762  MISS:      14947
cpu0_DTLB LOAD      ACCESS:    1258214  HIT:    1243864  MISS:      14350
cpu0_DTLB RFO       ACCESS:     103495  HIT:     102898  MISS:        597
cpu0_DTLB PREFETCH  ACCESS:          0  HIT:          0  MISS:          0
cpu0_DTLB WRITEBACK ACCESS:          0  HIT:          0  MISS:          0
cpu0_ITLB TOTAL     ACCESS:     757228  HIT:     757228  MISS:          0
cpu0_ITLB LOAD      ACCESS:     757228  HIT:     757228  MISS:          0
cpu0_ITLB RFO       ACCESS:          0  HIT:          0  MISS:          0
cpu0_ITLB PREFETCH  ACCESS:          0  HIT:          0  MISS:          0
cpu0_ITLB WRITEBACK ACCESS:          0  HIT:          0  MISS:          0
cpu0_L1I TOTAL     ACCESS:       3511  HIT:       3507  MISS:          4
cpu0_L1I LOAD      ACCESS:       3511  HIT:       3507  MISS:          4
cpu0_L1I RFO       ACCESS:          0  HIT:          0  MISS:          0
cpu0_L1I PREFETCH  ACCESS:          0  HIT:          0  MISS:          0
cpu0_L1I WRITEBACK ACCESS:          0  HIT:          0  MISS:          0
cpu0_STLB TOTAL     ACCESS:      14947  HIT:       9429  MISS:       5518
cpu0_STLB LOAD      ACCESS:      14350  HIT:       8935  MISS:       5415
cpu0_STLB RFO       ACCESS:        597  HIT:        494  MISS:        103
cpu0_STLB PREFETCH  ACCESS:          0  HIT:          0  MISS:          0
cpu0_STLB WRITEBACK ACCESS:          0  HIT:          0  MISS:          0
cpu0_L1D TOTAL     ACCESS:    1070527  HIT:     929590  MISS:     140937
cpu0_L1D LOAD      ACCESS:     894828  HIT:     762890  MISS:     131938
cpu0_L1D RFO       ACCESS:     170490  HIT:     161539  MISS:       8951
cpu0_L1D PREFETCH  ACCESS:          0  HIT:          0  MISS:          0
cpu0_L1D WRITEBACK ACCESS:          0  HIT:          0  MISS:          0
cpu0_L2C TOTAL     ACCESS:     154154  HIT:      43052  MISS:     111102
cpu0_L2C LOAD      ACCESS:     131942  HIT:      28793  MISS:     103149
cpu0_L2C RFO       ACCESS:       8951  HIT:       1047  MISS:       7904
cpu0_L2C PREFETCH  ACCESS:          0  HIT:          0  MISS:          0
cpu0_L2C WRITEBACK ACCESS:      13213  HIT:      13187  MISS:         26
LLC TOTAL     ACCESS:     122163  HIT:     117981  MISS:       4182
LLC LOAD      ACCESS:     103149  HIT:      99009  MISS:       4140
LLC RFO       ACCESS:       7904  HIT:       7862  MISS:         42
LLC PREFETCH  ACCESS:          0  HIT:          0  MISS:          0
LLC WRITEBACK ACCESS:      11087  HIT:      11087  MISS:          0
Heartbeat CPU 0 instructions: 60000000 cycles: 19028111 heartbeat IPC: 1.27785 cumulative IPC: 1.66955 (Simulation time: 0 hr 26 min 22 sec) 

Region of Interest Statistics
cpu0_DTLB TOTAL     ACCESS:    1701018  HIT:    1680928  MISS:      20090
cpu0_DTLB LOAD      ACCESS:    1567222  HIT:    1547829  MISS:      19393
cpu0_DTLB RFO       ACCESS:     133796  HIT:     133099  MISS:        697
cpu0_DTLB PREFETCH  ACCESS:          0  HIT:          0  MISS:          0
cpu0_DTLB WRITEBACK ACCESS:          0  HIT:          0  MISS:          0
cpu0_ITLB TOTAL     ACCESS:     943963  HIT:     943963  MISS:          0
cpu0_ITLB LOAD      ACCESS:     943963  HIT:     943963  MISS:          0
cpu0_ITLB RFO       ACCESS:          0  HIT:          0  MISS:          0
cpu0_ITLB PREFETCH  ACCESS:          0  HIT:          0  MISS:          0
cpu0_ITLB WRITEBACK ACCESS:          0  HIT:          0  MISS:          0
cpu0_L1I TOTAL     ACCESS:       3547  HIT:       3543  MISS:          4
cpu0_L1I LOAD      ACCESS:       3547  HIT:       3543  MISS:          4
cpu0_L1I RFO       ACCESS:          0  HIT:          0  MISS:          0
cpu0_L1I PREFETCH  ACCESS:          0  HIT:          0  MISS:          0
cpu0_L1I WRITEBACK ACCESS:          0  HIT:          0  MISS:          0
cpu0_STLB TOTAL     ACCESS:      20090  HIT:      12751  MISS:       7339
cpu0_STLB LOAD      ACCESS:      19393  HIT:      12164  MISS:       7229
cpu0_STLB RFO       ACCESS:        697  HIT:        587  MISS:        110
cpu0_STLB PREFETCH  ACCESS:          0  HIT:          0  MISS:          0
cpu0_STLB WRITEBACK ACCESS:          0  HIT:          0  MISS:          0
cpu0_L1D TOTAL     ACCESS:    1354577  HIT:    1174396  MISS:     180181
cpu0_L1D LOAD      ACCESS:    1119857  HIT:     949519  MISS:     170338
cpu0_L1D RFO       ACCESS:     227770  HIT:     217981  MISS:       9789
cpu0_L1D PREFETCH  ACCESS:          0  HIT:          0  MISS:          0
cpu0_L1D WRITEBACK ACCESS:          0  HIT:          0  MISS:          0
cpu0_L2C TOTAL     ACCESS:     194261  HIT:      53567  MISS:     140694
cpu0_L2C LOAD      ACCESS:     170342  HIT:      38427  MISS:     131915
cpu0_L2C RFO       ACCESS:       9789  HIT:       1063  MISS:       8726
cpu0_L2C PREFETCH  ACCESS:          0  HIT:          0  MISS:          0
cpu0_L2C WRITEBACK ACCESS:      14076  HIT:      14049  MISS:         27
LLC TOTAL     ACCESS:     152620  HIT:     143341  MISS:       9279
LLC LOAD      ACCESS:     131914  HIT:     122677  MISS:       9237
LLC RFO       ACCESS:       8726  HIT:       8684  MISS:         42
LLC PREFETCH  ACCESS:          0  HIT:          0  MISS:          0
LLC WRITEBACK ACCESS:      11954  HIT:      11954  MISS:          0
Heartbeat CPU 0 instructions: 62000004 cycles: 20423922 heartbeat IPC: 1.43286 cumulative IPC: 1.62482 (Simulation time: 0 hr 27 min 35 sec) 

Region of Interest Statistics
cpu0_DTLB TOTAL     ACCESS:    2086138  HIT:    2061883  MISS:      24255
cpu0_DTLB LOAD      ACCESS:    1869288  HIT:    1845905  MISS:      23383
cpu0_DTLB RFO       ACCESS:     216850  HIT:     215978  MISS:        872
cpu0_DTLB PREFETCH  ACCESS:          0  HIT:          0  MISS:          0
cpu0_DTLB WRITEBACK ACCESS:          0  HIT:          0  MISS:          0
cpu0_ITLB TOTAL     ACCESS:    1104162  HIT:    1104162  MISS:          0
cpu0_ITLB LOAD      ACCESS:    1104162  HIT:    1104162  MISS:          0
cpu0_ITLB RFO       ACCESS:          0  HIT:          0  MISS:          0
cpu0_ITLB PREFETCH  ACCESS:          0  HIT:          0  MISS:          0
cpu0_ITLB WRITEBACK ACCESS:          0  HIT:          0  MISS:          0
cpu0_L1I TOTAL     ACCESS:      27671  HIT:      27625  MISS:         46
cpu0_L1I LOAD      ACCESS:      27671  HIT:      27625  MISS:         46
cpu0_L1I RFO       ACCESS:          0  HIT:          0  MISS:          0
cpu0_L1I PREFETCH  ACCESS:          0  HIT:          0  MISS:          0
cpu0_L1I WRITEBACK ACCESS:          0  HIT:          0  MISS:          0
cpu0_STLB TOTAL     ACCESS:      24255  HIT:      15712  MISS:       8543
cpu0_STLB LOAD      ACCESS:      23383  HIT:      14973  MISS:       8410
cpu0_STLB RFO       ACCESS:        872  HIT:        739  MISS:        133
cpu0_STLB PREFETCH  ACCESS:          0  HIT:          0  MISS:          0
cpu0_STLB WRITEBACK ACCESS:          0  HIT:          0  MISS:          0
cpu0_L1D TOTAL     ACCESS:    1786214  HIT:    1579976  MISS:     206238
cpu0_L1D LOAD      ACCESS:    1375530  HIT:    1180735  MISS:     194795
cpu0_L1D RFO       ACCESS:     402585  HIT:     391222  MISS:      11363
cpu0_L1D PREFETCH  ACCESS:          0  HIT:          0  MISS:          0
cpu0_L1D WRITEBACK ACCESS:          0  HIT:          0  MISS:          0
cpu0_L2C TOTAL     ACCESS:     225621  HIT:      67587  MISS:     158034
cpu0_L2C LOAD      ACCESS:     194841  HIT:      46726  MISS:     148115
cpu0_L2C RFO       ACCESS:      11363  HIT:       1514  MISS:       9849
cpu0_L2C PREFETCH  ACCESS:          0  HIT:          0  MISS:          0
cpu0_L2C WRITEBACK ACCESS:      19337  HIT:      19300  MISS:         37
LLC TOTAL     ACCESS:     171273  HIT:     159497  MISS:      11776
LLC LOAD      ACCESS:     148114  HIT:     136465  MISS:      11649
LLC RFO       ACCESS:       9849  HIT:       9723  MISS:        126
LLC PREFETCH  ACCESS:          0  HIT:          0  MISS:          0
LLC WRITEBACK ACCESS:      13277  HIT:      13276  MISS:          1
Heartbeat CPU 0 instructions: 64000001 cycles: 21265999 heartbeat IPC: 2.37508 cumulative IPC: 1.70161 (Simulation time: 0 hr 28 min 29 sec) 

Region of Interest Statistics
cpu0_DTLB TOTAL     ACCESS:    2411590  HIT:    2386336  MISS:      25254
cpu0_DTLB LOAD      ACCESS:    2178422  HIT:    2154187  MISS:      24235
cpu0_DTLB RFO       ACCESS:     233168  HIT:     232149  MISS:       1019
cpu0_DTLB PREFETCH  ACCESS:          0  HIT:          0  MISS:          0
cpu0_DTLB WRITEBACK ACCESS:          0  HIT:          0  MISS:          0
cpu0_ITLB TOTAL     ACCESS:    1294654  HIT:    1294654  MISS:          0
cpu0_ITLB LOAD      ACCESS:    1294654  HIT:    1294654  MISS:          0
cpu0_ITLB RFO       ACCESS:          0  HIT:          0  MISS:          0
cpu0_ITLB PREFETCH  ACCESS:          0  HIT:          0  MISS:          0
cpu0_ITLB WRITEBACK ACCESS:          0  HIT:          0  MISS:          0
cpu0_L1I TOTAL     ACCESS:      28194  HIT:      28143  MISS:         51
cpu0_L1I LOAD      ACCESS:      28194  HIT:      28143  MISS:         51
cpu0_L1I RFO       ACCESS:          0  HIT:          0  MISS:          0
cpu0_L1I PREFETCH  ACCESS:          0  HIT:          0  MISS:          0
cpu0_L1I WRITEBACK ACCESS:          0  HIT:          0  MISS:          0
cpu0_STLB TOTAL     ACCESS:      25254  HIT:      16341  MISS:       8913
cpu0_STLB LOAD      ACCESS:      24235  HIT:      15486  MISS:       8749
cpu0_STLB RFO       ACCESS:       1019  HIT:        855  MISS:        164
cpu0_STLB PREFETCH  ACCESS:          0  HIT:          0  MISS:          0
cpu0_STLB WRITEBACK ACCESS:          0  HIT:          0  MISS:          0
cpu0_L1D TOTAL     ACCESS:    2013012  HIT:    1777213  MISS:     235799
cpu0_L1D LOAD      ACCESS:    1584059  HIT:    1363513  MISS:     220546
cpu0_L1D RFO       ACCESS:     420509  HIT:     405341  MISS:      15168
cpu0_L1D PREFETCH  ACCESS:          0  HIT:          0  MISS:          0
cpu0_L1D WRITEBACK ACCESS:          0  HIT:          0  MISS:          0
cpu0_L2C TOTAL     ACCESS:     258991  HIT:      74306  MISS:     184685
cpu0_L2C LOAD      ACCESS:     220597  HIT:      48873  MISS:     171724
cpu0_L2C RFO       ACCESS:      15168  HIT:       2283  MISS:      12885
cpu0_L2C PREFETCH  ACCESS:          0  HIT:          0  MISS:          0
cpu0_L2C WRITEBACK ACCESS:      23141  HIT:      23099  MISS:         42
LLC TOTAL     ACCESS:     203654  HIT:     191676  MISS:      11978
LLC LOAD      ACCESS:     171723  HIT:     159874  MISS:      11849
LLC RFO       ACCESS:      12885  HIT:      12758  MISS:        127
LLC PREFETCH  ACCESS:          0  HIT:          0  MISS:          0
LLC WRITEBACK ACCESS:      19012  HIT:      19010  MISS:          2
Heartbeat CPU 0 instructions: 66000004 cycles: 22811084 heartbeat IPC: 1.29443 cumulative IPC: 1.63723 (Simulation time: 0 hr 29 min 43 sec) 

Region of Interest Statistics
cpu0_DTLB TOTAL     ACCESS:    2758203  HIT:    2726699  MISS:      31504
cpu0_DTLB LOAD      ACCESS:    2489990  HIT:    2459606  MISS:      30384
cpu0_DTLB RFO       ACCESS:     268213  HIT:     267093  MISS:       1120
cpu0_DTLB PREFETCH  ACCESS:          0  HIT:          0  MISS:          0
cpu0_DTLB WRITEBACK ACCESS:          0  HIT:          0  MISS:          0
cpu0_ITLB TOTAL     ACCESS:    1481252  HIT:    1481252  MISS:          0
cpu0_ITLB LOAD      ACCESS:    1481252  HIT:    1481252  MISS:          0
cpu0_ITLB RFO       ACCESS:          0  HIT:          0  MISS:          0
cpu0_ITLB PREFETCH  ACCESS:          0  HIT:          0  MISS:          0
cpu0_ITLB WRITEBACK ACCESS:          0  HIT:          0  MISS:          0
cpu0_L1I TOTAL     ACCESS:      28245  HIT:      28189  MISS:         56
cpu0_L1I LOAD      ACCESS:      28245  HIT:      28189  MISS:         56
cpu0_L1I RFO       ACCESS:          0  HIT:          0  MISS:          0
cpu0_L1I PREFETCH  ACCESS:          0  HIT:          0  MISS:          0
cpu0_L1I WRITEBACK ACCESS:          0  HIT:          0  MISS:          0
cpu0_STLB TOTAL     ACCESS:      31504  HIT:      20565  MISS:      10939
cpu0_STLB LOAD      ACCESS:      30384  HIT:      19616  MISS:      10768
cpu0_STLB RFO       ACCESS:       1120  HIT:        949  MISS:        171
cpu0_STLB PREFETCH  ACCESS:          0  HIT:          0  MISS:          0
cpu0_STLB WRITEBACK ACCESS:          0  HIT:          0  MISS:          0
cpu0_L1D TOTAL     ACCESS:    2309517  HIT:    2031157  MISS:     278360
cpu0_L1D LOAD      ACCESS:    1811061  HIT:    1548718  MISS:     262343
cpu0_L1D RFO       ACCESS:     488069  HIT:     472143  MISS:      15926
cpu0_L1D PREFETCH  ACCESS:          0  HIT:          0  MISS:          0
cpu0_L1D WRITEBACK ACCESS:          0  HIT:          0  MISS:          0
cpu0_L2C TOTAL     ACCESS:     302329  HIT:      87308  MISS:     215021
cpu0_L2C LOAD      ACCESS:     262399  HIT:      61086  MISS:     201313
cpu0_L2C RFO       ACCESS:      15926  HIT:       2298  MISS:      13628
cpu0_L2C PREFETCH  ACCESS:          0  HIT:          0  MISS:          0
cpu0_L2C WRITEBACK ACCESS:      23913  HIT:      23870  MISS:         43
LLC TOTAL     ACCESS:     234610  HIT:     218610  MISS:      16000
LLC LOAD      ACCESS:     201311  HIT:     185442  MISS:      15869
LLC RFO       ACCESS:      13628  HIT:      13499  MISS:        129
LLC PREFETCH  ACCESS:          0  HIT:          0  MISS:          0
LLC WRITEBACK ACCESS:      19634  HIT:      19632  MISS:          2
Heartbeat CPU 0 instructions: 68000002 cycles: 24053938 heartbeat IPC: 1.6092 cumulative IPC: 1.63407 (Simulation time: 0 hr 30 min 44 sec) 

Region of Interest Statistics
cpu0_DTLB TOTAL     ACCESS:    3116452  HIT:    3079908  MISS:      36544
cpu0_DTLB LOAD      ACCESS:    2814026  HIT:    2778906  MISS:      35120
cpu0_DTLB RFO       ACCESS:     302426  HIT:     301002  MISS:       1424
cpu0_DTLB PREFETCH  ACCESS:          0  HIT:          0  MISS:          0
cpu0_DTLB WRITEBACK ACCESS:          0  HIT:          0  MISS:          0
cpu0_ITLB TOTAL     ACCESS:    1675328  HIT:    1675328  MISS:          0
cpu0_ITLB LOAD      ACCESS:    1675328  HIT:    1675328  MISS:          0
cpu0_ITLB RFO       ACCESS:          0  HIT:          0  MISS:          0
cpu0_ITLB PREFETCH  ACCESS:          0  HIT:          0  MISS:          0
cpu0_ITLB WRITEBACK ACCESS:          0  HIT:          0  MISS:          0
cpu0_L1I TOTAL     ACCESS:      31693  HIT:      31621  MISS:         72
cpu0_L1I LOAD      ACCESS:      31693  HIT:      31621  MISS:         72
cpu0_L1I RFO       ACCESS:          0  HIT:          0  MISS:          0
cpu0_L1I PREFETCH  ACCESS:          0  HIT:          0  MISS:          0
cpu0_L1I WRITEBACK ACCESS:          0  HIT:          0  MISS:          0
cpu0_STLB TOTAL     ACCESS:      36544  HIT:      24365  MISS:      12179
cpu0_STLB LOAD      ACCESS:      35120  HIT:      23166  MISS:      11954
cpu0_STLB RFO       ACCESS:       1424  HIT:       1199  MISS:        225
cpu0_STLB PREFETCH  ACCESS:          0  HIT:          0  MISS:          0
cpu0_STLB WRITEBACK ACCESS:          0  HIT:          0  MISS:          0
cpu0_L1D TOTAL     ACCESS:    2596887  HIT:    2277919  MISS:     318968
cpu0_L1D LOAD      ACCESS:    2042658  HIT:    1743633  MISS:     299025
cpu0_L1D RFO       ACCESS:     542662  HIT:     522830  MISS:      19832
cpu0_L1D PREFETCH  ACCESS:          0  HIT:          0  MISS:          0
cpu0_L1D WRITEBACK ACCESS:          0  HIT:          0  MISS:          0
cpu0_L2C TOTAL     ACCESS:     351157  HIT:     106847  MISS:     244310
cpu0_L2C LOAD      ACCESS:     299097  HIT:      71519  MISS:     227578
cpu0_L2C RFO       ACCESS:      19832  HIT:       3201  MISS:      16631
cpu0_L2C PREFETCH  ACCESS:          0  HIT:          0  MISS:          0
cpu0_L2C WRITEBACK ACCESS:      32117  HIT:      32062  MISS:         55
LLC TOTAL     ACCESS:     268724  HIT:     251643  MISS:      17081
LLC LOAD      ACCESS:     227576  HIT:     210691  MISS:      16885
LLC RFO       ACCESS:      16631  HIT:      16438  MISS:        193
LLC PREFETCH  ACCESS:          0  HIT:          0  MISS:          0
LLC WRITEBACK ACCESS:      24471  HIT:      24468  MISS:          3
Heartbeat CPU 0 instructions: 70000000 cycles: 25059287 heartbeat IPC: 1.98936 cumulative IPC: 1.66378 (Simulation time: 0 hr 31 min 40 sec) 

Region of Interest Statistics
cpu0_DTLB TOTAL     ACCESS:    3443503  HIT:    3405036  MISS:      38467
cpu0_DTLB LOAD      ACCESS:    3123679  HIT:    3086669  MISS:      37010
cpu0_DTLB RFO       ACCESS:     319824  HIT:     318367  MISS:       1457
cpu0_DTLB PREFETCH  ACCESS:          0  HIT:          0  MISS:          0
cpu0_DTLB WRITEBACK ACCESS:          0  HIT:          0  MISS:          0
cpu0_ITLB TOTAL     ACCESS:    1862621  HIT:    1862621  MISS:          0
cpu0_ITLB LOAD      ACCESS:    1862621  HIT:    1862621  MISS:          0
cpu0_ITLB RFO       ACCESS:          0  HIT:          0  MISS:          0
cpu0_ITLB PREFETCH  ACCESS:          0  HIT:          0  MISS:          0
cpu0_ITLB WRITEBACK ACCESS:          0  HIT:          0  MISS:          0
cpu0_L1I TOTAL     ACCESS:      31741  HIT:      31669  MISS:         72
cpu0_L1I LOAD      ACCESS:      31741  HIT:      31669  MISS:         72
cpu0_L1I RFO       ACCESS:          0  HIT:          0  MISS:          0
cpu0_L1I PREFETCH  ACCESS:          0  HIT:          0  MISS:          0
cpu0_L1I WRITEBACK ACCESS:          0  HIT:          0  MISS:          0
cpu0_STLB TOTAL     ACCESS:      38467  HIT:      25371  MISS:      13096
cpu0_STLB LOAD      ACCESS:      37010  HIT:      24143  MISS:      12867
cpu0_STLB RFO       ACCESS:       1457  HIT:       1228  MISS:        229
cpu0_STLB PREFETCH  ACCESS:          0  HIT:          0  MISS:          0
cpu0_STLB WRITEBACK ACCESS:          0  HIT:          0  MISS:          0
cpu0_L1D TOTAL     ACCESS:    2846486  HIT:    2495761  MISS:     350725
cpu0_L1D LOAD      ACCESS:    2261504  HIT:    1931523  MISS:     329981
cpu0_L1D RFO       ACCESS:     572535  HIT:     551904  MISS:      20631
cpu0_L1D PREFETCH  ACCESS:          0  HIT:          0  MISS:          0
cpu0_L1D WRITEBACK ACCESS:          0  HIT:          0  MISS:          0
cpu0_L2C TOTAL     ACCESS:     383738  HIT:     111502  MISS:     272236
cpu0_L2C LOAD      ACCESS:     330053  HIT:      75347  MISS:     254706
cpu0_L2C RFO       ACCESS:      20631  HIT:       3205  MISS:      17426
cpu0_L2C PREFETCH  ACCESS:          0  HIT:          0  MISS:          0
cpu0_L2C WRITEBACK ACCESS:      32941  HIT:      32885  MISS:         56
LLC TOTAL     ACCESS:     298834  HIT:     280776  MISS:      18058
LLC LOAD      ACCESS:     254703  HIT:     236841  MISS:      17862
LLC RFO       ACCESS:      17426  HIT:      17233  MISS:        193
LLC PREFETCH  ACCESS:          0  HIT:          0  MISS:          0
LLC WRITEBACK ACCESS:      26657  HIT:      26654  MISS:          3
Heartbeat CPU 0 instructions: 72000002 cycles: 26754065 heartbeat IPC: 1.1801 cumulative IPC: 1.60401 (Simulation time: 0 hr 32 min 55 sec) 

Region of Interest Statistics
cpu0_DTLB TOTAL     ACCESS:    3816786  HIT:    3769322  MISS:      47464
cpu0_DTLB LOAD      ACCESS:    3452328  HIT:    3406562  MISS:      45766
cpu0_DTLB RFO       ACCESS:     364458  HIT:     362760  MISS:       1698
cpu0_DTLB PREFETCH  ACCESS:          0  HIT:          0  MISS:          0
cpu0_DTLB WRITEBACK ACCESS:          0  HIT:          0  MISS:          0
cpu0_ITLB TOTAL     ACCESS:    2056721  HIT:    2056721  MISS:          0
cpu0_ITLB LOAD      ACCESS:    2056721  HIT:    2056721  MISS:          0
cpu0_ITLB RFO       ACCESS:          0  HIT:          0  MISS:          0
cpu0_ITLB PREFETCH  ACCESS:          0  HIT:          0  MISS:          0
cpu0_ITLB WRITEBACK ACCESS:          0  HIT:          0  MISS:          0
cpu0_L1I TOTAL     ACCESS:      33383  HIT:      33311  MISS:         72
cpu0_L1I LOAD      ACCESS:      33383  HIT:      33311  MISS:         72
cpu0_L1I RFO       ACCESS:          0  HIT:          0  MISS:          0
cpu0_L1I PREFETCH  ACCESS:          0  HIT:          0  MISS:          0
cpu0_L1I WRITEBACK ACCESS:          0  HIT:          0  MISS:          0
cpu0_STLB TOTAL     ACCESS:      47464  HIT:      31990  MISS:      15474
cpu0_STLB LOAD      ACCESS:      45766  HIT:      30538  MISS:      15228
cpu0_STLB RFO       ACCESS:       1698  HIT:       1452  MISS:        246
cpu0_STLB PREFETCH  ACCESS:          0  HIT:          0  MISS:          0
cpu0_STLB WRITEBACK ACCESS:          0  HIT:          0  MISS:          0
cpu0_L1D TOTAL     ACCESS:    3179976  HIT:    2781031  MISS:     398945
cpu0_L1D LOAD      ACCESS:    2506089  HIT:    2128702  MISS:     377387
cpu0_L1D RFO       ACCESS:     659165  HIT:     637734  MISS:      21431
cpu0_L1D PREFETCH  ACCESS:          0  HIT:          0  MISS:          0
cpu0_L1D WRITEBACK ACCESS:          0  HIT:          0  MISS:          0
cpu0_L2C TOTAL     ACCESS:     436260  HIT:     132688  MISS:     303572
cpu0_L2C LOAD      ACCESS:     377459  HIT:      92143  MISS:     285316
cpu0_L2C RFO       ACCESS:      21431  HIT:       3298  MISS:      18133
cpu0_L2C PREFETCH  ACCESS:          0  HIT:          0  MISS:          0
cpu0_L2C WRITEBACK ACCESS:      37243  HIT:      37177  MISS:         66
LLC TOTAL     ACCESS:     330922  HIT:     309788  MISS:      21134
LLC LOAD      ACCESS:     285313  HIT:     264391  MISS:      20922
LLC RFO       ACCESS:      18133  HIT:      17926  MISS:        207
LLC PREFETCH  ACCESS:          0  HIT:          0  MISS:          0
LLC WRITEBACK ACCESS:      27419  HIT:      27415  MISS:          4
Heartbeat CPU 0 instructions: 74000000 cycles: 27639609 heartbeat IPC: 2.2585 cumulative IPC: 1.64371 (Simulation time: 0 hr 33 min 52 sec) 

Region of Interest Statistics
cpu0_DTLB TOTAL     ACCESS:    4142279  HIT:    4093659  MISS:      48620
cpu0_DTLB LOAD      ACCESS:    3760477  HIT:    3713692  MISS:      46785
cpu0_DTLB RFO       ACCESS:     381802  HIT:     379967  MISS:       1835
cpu0_DTLB PREFETCH  ACCESS:          0  HIT:          0  MISS:          0
cpu0_DTLB WRITEBACK ACCESS:          0  HIT:          0  MISS:          0
cpu0_ITLB TOTAL     ACCESS:    2243389  HIT:    2243389  MISS:          0
cpu0_ITLB LOAD      ACCESS:    2243389  HIT:    2243389  MISS:          0
cpu0_ITLB RFO       ACCESS:          0  HIT:          0  MISS:          0
cpu0_ITLB PREFETCH  ACCESS:          0  HIT:          0  MISS:          0
cpu0_ITLB WRITEBACK ACCESS:          0  HIT:          0  MISS:          0
cpu0_L1I TOTAL     ACCESS:      34813  HIT:      34741  MISS:         72
cpu0_L1I LOAD      ACCESS:      34813  HIT:      34741  MISS:         72
cpu0_L1I RFO       ACCESS:          0  HIT:          0  MISS:          0
cpu0_L1I PREFETCH  ACCESS:          0  HIT:          0  MISS:          0
cpu0_L1I WRITEBACK ACCESS:          0  HIT:          0  MISS:          0
cpu0_STLB TOTAL     ACCESS:      48620  HIT:      32777  MISS:      15843
cpu0_STLB LOAD      ACCESS:      46785  HIT:      31220  MISS:      15565
cpu0_STLB RFO       ACCESS:       1835  HIT:       1557  MISS:        278
cpu0_STLB PREFETCH  ACCESS:          0  HIT:          0  MISS:          0
cpu0_STLB WRITEBACK ACCESS:          0  HIT:          0  MISS:          0
cpu0_L1D TOTAL     ACCESS:    3412083  HIT:    2982590  MISS:     429493
cpu0_L1D LOAD      ACCESS:    2717169  HIT:    2312987  MISS:     404182
cpu0_L1D RFO       ACCESS:     679846  HIT:     654671  MISS:      25175
cpu0_L1D PREFETCH  ACCESS:          0  HIT:          0  MISS:          0
cpu0_L1D WRITEBACK ACCESS:          0  HIT:          0  MISS:          0
cpu0_L2C TOTAL     ACCESS:     471289  HIT:     140882  MISS:     330407
cpu0_L2C LOAD      ACCESS:     404254  HIT:      95070  MISS:     309184
cpu0_L2C RFO       ACCESS:      25175  HIT:       4079  MISS:      21096
cpu0_L2C PREFETCH  ACCESS:          0  HIT:          0  MISS:          0
cpu0_L2C WRITEBACK ACCESS:      41724  HIT:      41656  MISS:         68
LLC TOTAL     ACCESS:     363943  HIT:     342602  MISS:      21341
LLC LOAD      ACCESS:     309181  HIT:     288071  MISS:      21110
LLC RFO       ACCESS:      21096  HIT:      20871  MISS:        225
LLC PREFETCH  ACCESS:          0  HIT:          0  MISS:          0
LLC WRITEBACK ACCESS:      33607  HIT:      33602  MISS:          5
Heartbeat CPU 0 instructions: 76000001 cycles: 29001567 heartbeat IPC: 1.46847 cumulative IPC: 1.62876 (Simulation time: 0 hr 35 min 3 sec) 

Region of Interest Statistics
cpu0_DTLB TOTAL     ACCESS:    4482474  HIT:    4428886  MISS:      53588
cpu0_DTLB LOAD      ACCESS:    4073204  HIT:    4021524  MISS:      51680
cpu0_DTLB RFO       ACCESS:     409270  HIT:     407362  MISS:       1908
cpu0_DTLB PREFETCH  ACCESS:          0  HIT:          0  MISS:          0
cpu0_DTLB WRITEBACK ACCESS:          0  HIT:          0  MISS:          0
cpu0_ITLB TOTAL     ACCESS:    2427899  HIT:    2427899  MISS:          0
cpu0_ITLB LOAD      ACCESS:    2427899  HIT:    2427899  MISS:          0
cpu0_ITLB RFO       ACCESS:          0  HIT:          0  MISS:          0
cpu0_ITLB PREFETCH  ACCESS:          0  HIT:          0  MISS:          0
cpu0_ITLB WRITEBACK ACCESS:          0  HIT:          0  MISS:          0
cpu0_L1I TOTAL     ACCESS:      34846  HIT:      34774  MISS:         72
cpu0_L1I LOAD      ACCESS:      34846  HIT:      34774  MISS:         72
cpu0_L1I RFO       ACCESS:          0  HIT:          0  MISS:          0
cpu0_L1I PREFETCH  ACCESS:          0  HIT:          0  MISS:          0
cpu0_L1I WRITEBACK ACCESS:          0  HIT:          0  MISS:          0
cpu0_STLB TOTAL     ACCESS:      53588  HIT:      36285  MISS:      17303
cpu0_STLB LOAD      ACCESS:      51680  HIT:      34661  MISS:      17019
cpu0_STLB RFO       ACCESS:       1908  HIT:       1624  MISS:        284
cpu0_STLB PREFETCH  ACCESS:          0  HIT:          0  MISS:          0
cpu0_STLB WRITEBACK ACCESS:          0  HIT:          0  MISS:          0
cpu0_L1D TOTAL     ACCESS:    3683277  HIT:    3215562  MISS:     467715
cpu0_L1D LOAD      ACCESS:    2935610  HIT:    2493891  MISS:     441719
cpu0_L1D RFO       ACCESS:     731182  HIT:     705333  MISS:      25849
cpu0_L1D PREFETCH  ACCESS:          0  HIT:          0  MISS:          0
cpu0_L1D WRITEBACK ACCESS:          0  HIT:          0  MISS:          0
cpu0_L2C TOTAL     ACCESS:     510215  HIT:     150645  MISS:     359570
cpu0_L2C LOAD      ACCESS:     441791  HIT:     104111  MISS:     337680
cpu0_L2C RFO       ACCESS:      25849  HIT:       4090  MISS:      21759
cpu0_L2C PREFETCH  ACCESS:          0  HIT:          0  MISS:          0
cpu0_L2C WRITEBACK ACCESS:      42428  HIT:      42359  MISS:         69
LLC TOTAL     ACCESS:     393735  HIT:     369618  MISS:      24117
LLC LOAD      ACCESS:     337676  HIT:     313790  MISS:      23886
LLC RFO       ACCESS:      21759  HIT:      21534  MISS:        225
LLC PREFETCH  ACCESS:          0  HIT:          0  MISS:          0
LLC WRITEBACK ACCESS:      34238  HIT:      34233  MISS:          5
Heartbeat CPU 0 instructions: 78000001 cycles: 30617803 heartbeat IPC: 1.23744 cumulative IPC: 1.59278 (Simulation time: 0 hr 36 min 14 sec) 

Region of Interest Statistics
cpu0_DTLB TOTAL     ACCESS:    4844206  HIT:    4783889  MISS:      60317
cpu0_DTLB LOAD      ACCESS:    4397598  HIT:    4339451  MISS:      58147
cpu0_DTLB RFO       ACCESS:     446608  HIT:     444438  MISS:       2170
cpu0_DTLB PREFETCH  ACCESS:          0  HIT:          0  MISS:          0
cpu0_DTLB WRITEBACK ACCESS:          0  HIT:          0  MISS:          0
cpu0_ITLB TOTAL     ACCESS:    2610342  HIT:    2610342  MISS:          0
cpu0_ITLB LOAD      ACCESS:    2610342  HIT:    2610342  MISS:          0
cpu0_ITLB RFO       ACCESS:          0  HIT:          0  MISS:          0
cpu0_ITLB PREFETCH  ACCESS:          0  HIT:          0  MISS:          0
cpu0_ITLB WRITEBACK ACCESS:          0  HIT:          0  MISS:          0
cpu0_L1I TOTAL     ACCESS:      40535  HIT:      40463  MISS:         72
cpu0_L1I LOAD      ACCESS:      40535  HIT:      40463  MISS:         72
cpu0_L1I RFO       ACCESS:          0  HIT:          0  MISS:          0
cpu0_L1I PREFETCH  ACCESS:          0  HIT:          0  MISS:          0
cpu0_L1I WRITEBACK ACCESS:          0  HIT:          0  MISS:          0
cpu0_STLB TOTAL     ACCESS:      60317  HIT:      41172  MISS:      19145
cpu0_STLB LOAD      ACCESS:      58147  HIT:      39312  MISS:      18835
cpu0_STLB RFO       ACCESS:       2170  HIT:       1860  MISS:        310
cpu0_STLB PREFETCH  ACCESS:          0  HIT:          0  MISS:          0
cpu0_STLB WRITEBACK ACCESS:          0  HIT:          0  MISS:          0
cpu0_L1D TOTAL     ACCESS:    4000535  HIT:    3489865  MISS:     510670
cpu0_L1D LOAD      ACCESS:    3177353  HIT:    2693380  MISS:     483973
cpu0_L1D RFO       ACCESS:     804939  HIT:     778405  MISS:      26534
cpu0_L1D PREFETCH  ACCESS:          0  HIT:          0  MISS:          0
cpu0_L1D WRITEBACK ACCESS:          0  HIT:          0  MISS:          0
cpu0_L2C TOTAL     ACCESS:     557812  HIT:     168277  MISS:     389535
cpu0_L2C LOAD      ACCESS:     484045  HIT:     116996  MISS:     367049
cpu0_L2C RFO       ACCESS:      26534  HIT:       4196  MISS:      22338
cpu0_L2C PREFETCH  ACCESS:          0  HIT:          0  MISS:          0
cpu0_L2C WRITEBACK ACCESS:      47070  HIT:      46992  MISS:         78
LLC TOTAL     ACCESS:     426296  HIT:     399010  MISS:      27286
LLC LOAD      ACCESS:     367045  HIT:     340044  MISS:      27001
LLC RFO       ACCESS:      22338  HIT:      22059  MISS:        279
LLC PREFETCH  ACCESS:          0  HIT:          0  MISS:          0
LLC WRITEBACK ACCESS:      36843  HIT:      36838  MISS:          5
Heartbeat CPU 0 instructions: 80000004 cycles: 31546360 heartbeat IPC: 2.15388 cumulative IPC: 1.62093 (Simulation time: 0 hr 37 min 10 sec) 

Region of Interest Statistics
cpu0_DTLB TOTAL     ACCESS:    5176899  HIT:    5115404  MISS:      61495
cpu0_DTLB LOAD      ACCESS:    4710542  HIT:    4651380  MISS:      59162
cpu0_DTLB RFO       ACCESS:     466357  HIT:     464024  MISS:       2333
cpu0_DTLB PREFETCH  ACCESS:          0  HIT:          0  MISS:          0
cpu0_DTLB WRITEBACK ACCESS:          0  HIT:          0  MISS:          0
cpu0_ITLB TOTAL     ACCESS:    2806293  HIT:    2806293  MISS:          0
cpu0_ITLB LOAD      ACCESS:    2806293  HIT:    2806293  MISS:          0
cpu0_ITLB RFO       ACCESS:          0  HIT:          0  MISS:          0
cpu0_ITLB PREFETCH  ACCESS:          0  HIT:          0  MISS:          0
cpu0_ITLB WRITEBACK ACCESS:          0  HIT:          0  MISS:          0
cpu0_L1I TOTAL     ACCESS:      41991  HIT:      41919  MISS:         72
cpu0_L1I LOAD      ACCESS:      41991  HIT:      41919  MISS:         72
cpu0_L1I RFO       ACCESS:          0  HIT:          0  MISS:          0
cpu0_L1I PREFETCH  ACCESS:          0  HIT:          0  MISS:          0
cpu0_L1I WRITEBACK ACCESS:          0  HIT:          0  MISS:          0
cpu0_STLB TOTAL     ACCESS:      61495  HIT:      41977  MISS:      19518
cpu0_STLB LOAD      ACCESS:      59162  HIT:      39987  MISS:      19175
cpu0_STLB RFO       ACCESS:       2333  HIT:       1990  MISS:        343
cpu0_STLB PREFETCH  ACCESS:          0  HIT:          0  MISS:          0
cpu0_STLB WRITEBACK ACCESS:          0  HIT:          0  MISS:          0
cpu0_L1D TOTAL     ACCESS:    4236010  HIT:    3693914  MISS:     542096
cpu0_L1D LOAD      ACCESS:    3388912  HIT:    2877590  MISS:     511322
cpu0_L1D RFO       ACCESS:     828509  HIT:     797903  MISS:      30606
cpu0_L1D PREFETCH  ACCESS:          0  HIT:          0  MISS:          0
cpu0_L1D WRITEBACK ACCESS:          0  HIT:          0  MISS:          0
cpu0_L2C TOTAL     ACCESS:     594075  HIT:     177046  MISS:     417029
cpu0_L2C LOAD      ACCESS:     511394  HIT:     120023  MISS:     391371
cpu0_L2C RFO       ACCESS:      30606  HIT:       5099  MISS:      25507
cpu0_L2C PREFETCH  ACCESS:          0  HIT:          0  MISS:          0
cpu0_L2C WRITEBACK ACCESS:      51907  HIT:      51827  MISS:         80
LLC TOTAL     ACCESS:     458609  HIT:     430435  MISS:      28174
LLC LOAD      ACCESS:     391367  HIT:     363543  MISS:      27824
LLC RFO       ACCESS:      25507  HIT:      25163  MISS:        344
LLC PREFETCH  ACCESS:          0  HIT:          0  MISS:          0
LLC WRITEBACK ACCESS:      41664  HIT:      41659  MISS:          5
Heartbeat CPU 0 instructions: 82000003 cycles: 33208879 heartbeat IPC: 1.20299 cumulative IPC: 1.58648 (Simulation time: 0 hr 38 min 26 sec) 

Region of Interest Statistics
cpu0_DTLB TOTAL     ACCESS:    5525565  HIT:    5457550  MISS:      68015
cpu0_DTLB LOAD      ACCESS:    5026136  HIT:    4960548  MISS:      65588
cpu0_DTLB RFO       ACCESS:     499429  HIT:     497002  MISS:       2427
cpu0_DTLB PREFETCH  ACCESS:          0  HIT:          0  MISS:          0
cpu0_DTLB WRITEBACK ACCESS:          0  HIT:          0  MISS:          0
cpu0_ITLB TOTAL     ACCESS:    2989016  HIT:    2989016  MISS:          0
cpu0_ITLB LOAD      ACCESS:    2989016  HIT:    2989016  MISS:          0
cpu0_ITLB RFO       ACCESS:          0  HIT:          0  MISS:          0
cpu0_ITLB PREFETCH  ACCESS:          0  HIT:          0  MISS:          0
cpu0_ITLB WRITEBACK ACCESS:          0  HIT:          0  MISS:          0
cpu0_L1I TOTAL     ACCESS:      42014  HIT:      41942  MISS:         72
cpu0_L1I LOAD      ACCESS:      42014  HIT:      41942  MISS:         72
cpu0_L1I RFO       ACCESS:          0  HIT:          0  MISS:          0
cpu0_L1I PREFETCH  ACCESS:          0  HIT:          0  MISS:          0
cpu0_L1I WRITEBACK ACCESS:          0  HIT:          0  MISS:          0
cpu0_STLB TOTAL     ACCESS:      68015  HIT:      46782  MISS:      21233
cpu0_STLB LOAD      ACCESS:      65588  HIT:      44705  MISS:      20883
cpu0_STLB RFO       ACCESS:       2427  HIT:       2077  MISS:        350
cpu0_STLB PREFETCH  ACCESS:          0  HIT:          0  MISS:          0
cpu0_STLB WRITEBACK ACCESS:          0  HIT:          0  MISS:          0
cpu0_L1D TOTAL     ACCESS:    4523585  HIT:    3939654  MISS:     583931
cpu0_L1D LOAD      ACCESS:    3611482  HIT:    3058908  MISS:     552574
cpu0_L1D RFO       ACCESS:     891853  HIT:     860682  MISS:      31171
cpu0_L1D PREFETCH  ACCESS:          0  HIT:          0  MISS:          0
cpu0_L1D WRITEBACK ACCESS:          0  HIT:          0  MISS:          0
cpu0_L2C TOTAL     ACCESS:     636501  HIT:     189692  MISS:     446809
cpu0_L2C LOAD      ACCESS:     552646  HIT:     132052  MISS:     420594
cpu0_L2C RFO       ACCESS:      31171  HIT:       5112  MISS:      26059
cpu0_L2C PREFETCH  ACCESS:          0  HIT:          0  MISS:          0
cpu0_L2C WRITEBACK ACCESS:      52498  HIT:      52416  MISS:         82
LLC TOTAL     ACCESS:     488893  HIT:     455882  MISS:      33011
LLC LOAD      ACCESS:     420589  HIT:     387930  MISS:      32659
LLC RFO       ACCESS:      26060  HIT:      25714  MISS:        346
LLC PREFETCH  ACCESS:          0  HIT:          0  MISS:          0
LLC WRITEBACK ACCESS:      42170  HIT:      42165  MISS:          5
Heartbeat CPU 0 instructions: 84000003 cycles: 34842015 heartbeat IPC: 1.22464 cumulative IPC: 1.55938 (Simulation time: 0 hr 39 min 35 sec) 

Region of Interest Statistics
cpu0_DTLB TOTAL     ACCESS:    5894018  HIT:    5818977  MISS:      75041
cpu0_DTLB LOAD      ACCESS:    5348820  HIT:    5276618  MISS:      72202
cpu0_DTLB RFO       ACCESS:     545198  HIT:     542359  MISS:       2839
cpu0_DTLB PREFETCH  ACCESS:          0  HIT:          0  MISS:          0
cpu0_DTLB WRITEBACK ACCESS:          0  HIT:          0  MISS:          0
cpu0_ITLB TOTAL     ACCESS:    3168742  HIT:    3168742  MISS:          0
cpu0_ITLB LOAD      ACCESS:    3168742  HIT:    3168742  MISS:          0
cpu0_ITLB RFO       ACCESS:          0  HIT:          0  MISS:          0
cpu0_ITLB PREFETCH  ACCESS:          0  HIT:          0  MISS:          0
cpu0_ITLB WRITEBACK ACCESS:          0  HIT:          0  MISS:          0
cpu0_L1I TOTAL     ACCESS:      48661  HIT:      48589  MISS:         72
cpu0_L1I LOAD      ACCESS:      48661  HIT:      48589  MISS:         72
cpu0_L1I RFO       ACCESS:          0  HIT:          0  MISS:          0
cpu0_L1I PREFETCH  ACCESS:          0  HIT:          0  MISS:          0
cpu0_L1I WRITEBACK ACCESS:          0  HIT:          0  MISS:          0
cpu0_STLB TOTAL     ACCESS:      75041  HIT:      52175  MISS:      22866
cpu0_STLB LOAD      ACCESS:      72202  HIT:      49730  MISS:      22472
cpu0_STLB RFO       ACCESS:       2839  HIT:       2445  MISS:        394
cpu0_STLB PREFETCH  ACCESS:          0  HIT:          0  MISS:          0
cpu0_STLB WRITEBACK ACCESS:          0  HIT:          0  MISS:          0
cpu0_L1D TOTAL     ACCESS:    4849293  HIT:    4217549  MISS:     631744
cpu0_L1D LOAD      ACCESS:    3856500  HIT:    3260030  MISS:     596470
cpu0_L1D RFO       ACCESS:     970994  HIT:     935931  MISS:      35063
cpu0_L1D PREFETCH  ACCESS:          0  HIT:          0  MISS:          0
cpu0_L1D WRITEBACK ACCESS:          0  HIT:          0  MISS:          0
cpu0_L2C TOTAL     ACCESS:     693047  HIT:     212560  MISS:     480487
cpu0_L2C LOAD      ACCESS:     596541  HIT:     145296  MISS:     451245
cpu0_L2C RFO       ACCESS:      35062  HIT:       5997  MISS:      29065
cpu0_L2C PREFETCH  ACCESS:          0  HIT:          0  MISS:          0
cpu0_L2C WRITEBACK ACCESS:      61233  HIT:      61140  MISS:         93
LLC TOTAL     ACCESS:     526317  HIT:     490150  MISS:      36167
LLC LOAD      ACCESS:     451240  HIT:     415508  MISS:      35732
LLC RFO       ACCESS:      29065  HIT:      28638  MISS:        427
LLC PREFETCH  ACCESS:          0  HIT:          0  MISS:          0
LLC WRITEBACK ACCESS:      45928  HIT:      45921  MISS:          7
Heartbeat CPU 0 instructions: 86000002 cycles: 35675811 heartbeat IPC: 2.39867 cumulative IPC: 1.59029 (Simulation time: 0 hr 40 min 31 sec) 

Region of Interest Statistics
cpu0_DTLB TOTAL     ACCESS:    6219913  HIT:    6144309  MISS:      75604
cpu0_DTLB LOAD      ACCESS:    5664602  HIT:    5591858  MISS:      72744
cpu0_DTLB RFO       ACCESS:     555311  HIT:     552451  MISS:       2860
cpu0_DTLB PREFETCH  ACCESS:          0  HIT:          0  MISS:          0
cpu0_DTLB WRITEBACK ACCESS:          0  HIT:          0  MISS:          0
cpu0_ITLB TOTAL     ACCESS:    3368254  HIT:    3368254  MISS:          0
cpu0_ITLB LOAD      ACCESS:    3368254  HIT:    3368254  MISS:          0
cpu0_ITLB RFO       ACCESS:          0  HIT:          0  MISS:          0
cpu0_ITLB PREFETCH  ACCESS:          0  HIT:          0  MISS:          0
cpu0_ITLB WRITEBACK ACCESS:          0  HIT:          0  MISS:          0
cpu0_L1I TOTAL     ACCESS:      48724  HIT:      48652  MISS:         72
cpu0_L1I LOAD      ACCESS:      48724  HIT:      48652  MISS:         72
cpu0_L1I RFO       ACCESS:          0  HIT:          0  MISS:          0
cpu0_L1I PREFETCH  ACCESS:          0  HIT:          0  MISS:          0
cpu0_L1I WRITEBACK ACCESS:          0  HIT:          0  MISS:          0
cpu0_STLB TOTAL     ACCESS:      75604  HIT:      52389  MISS:      23215
cpu0_STLB LOAD      ACCESS:      72744  HIT:      49924  MISS:      22820
cpu0_STLB RFO       ACCESS:       2860  HIT:       2465  MISS:        395
cpu0_STLB PREFETCH  ACCESS:          0  HIT:          0  MISS:          0
cpu0_STLB WRITEBACK ACCESS:          0  HIT:          0  MISS:          0
cpu0_L1D TOTAL     ACCESS:    5074959  HIT:    4416870  MISS:     658089
cpu0_L1D LOAD      ACCESS:    4067191  HIT:    3445527  MISS:     621664
cpu0_L1D RFO       ACCESS:     985647  HIT:     949434  MISS:      36213
cpu0_L1D PREFETCH  ACCESS:          0  HIT:          0  MISS:          0
cpu0_L1D WRITEBACK ACCESS:          0  HIT:          0  MISS:          0
cpu0_L2C TOTAL     ACCESS:     721010  HIT:     216505  MISS:     504505
cpu0_L2C LOAD      ACCESS:     621735  HIT:     147185  MISS:     474550
cpu0_L2C RFO       ACCESS:      36212  HIT:       6434  MISS:      29778
cpu0_L2C PREFETCH  ACCESS:          0  HIT:          0  MISS:          0
cpu0_L2C WRITEBACK ACCESS:      62851  HIT:      62758  MISS:         93
LLC TOTAL     ACCESS:     554354  HIT:     517752  MISS:      36602
LLC LOAD      ACCESS:     474545  HIT:     438385  MISS:      36160
LLC RFO       ACCESS:      29778  HIT:      29344  MISS:        434
LLC PREFETCH  ACCESS:          0  HIT:          0  MISS:          0
LLC WRITEBACK ACCESS:      49947  HIT:      49940  MISS:          7
Heartbeat CPU 0 instructions: 88000002 cycles: 37186093 heartbeat IPC: 1.32426 cumulative IPC: 1.57365 (Simulation time: 0 hr 41 min 44 sec) 

Region of Interest Statistics
cpu0_DTLB TOTAL     ACCESS:    6570107  HIT:    6487823  MISS:      82284
cpu0_DTLB LOAD      ACCESS:    5980443  HIT:    5901111  MISS:      79332
cpu0_DTLB RFO       ACCESS:     589664  HIT:     586712  MISS:       2952
cpu0_DTLB PREFETCH  ACCESS:          0  HIT:          0  MISS:          0
cpu0_DTLB WRITEBACK ACCESS:          0  HIT:          0  MISS:          0
cpu0_ITLB TOTAL     ACCESS:    3551563  HIT:    3551563  MISS:          0
cpu0_ITLB LOAD      ACCESS:    3551563  HIT:    3551563  MISS:          0
cpu0_ITLB RFO       ACCESS:          0  HIT:          0  MISS:          0
cpu0_ITLB PREFETCH  ACCESS:          0  HIT:          0  MISS:          0
cpu0_ITLB WRITEBACK ACCESS:          0  HIT:          0  MISS:          0
cpu0_L1I TOTAL     ACCESS:      48743  HIT:      48671  MISS:         72
cpu0_L1I LOAD      ACCESS:      48743  HIT:      48671  MISS:         72
cpu0_L1I RFO       ACCESS:          0  HIT:          0  MISS:          0
cpu0_L1I PREFETCH  ACCESS:          0  HIT:          0  MISS:          0
cpu0_L1I WRITEBACK ACCESS:          0  HIT:          0  MISS:          0
cpu0_STLB TOTAL     ACCESS:      82284  HIT:      57269  MISS:      25015
cpu0_STLB LOAD      ACCESS:      79332  HIT:      54719  MISS:      24613
cpu0_STLB RFO       ACCESS:       2952  HIT:       2550  MISS:        402
cpu0_STLB PREFETCH  ACCESS:          0  HIT:          0  MISS:          0
cpu0_STLB WRITEBACK ACCESS:          0  HIT:          0  MISS:          0
cpu0_L1D TOTAL     ACCESS:    5363488  HIT:    4662475  MISS:     701013
cpu0_L1D LOAD      ACCESS:    4287944  HIT:    3623921  MISS:     664023
cpu0_L1D RFO       ACCESS:    1051681  HIT:    1014919  MISS:      36762
cpu0_L1D PREFETCH  ACCESS:          0  HIT:          0  MISS:          0
cpu0_L1D WRITEBACK ACCESS:          0  HIT:          0  MISS:          0
cpu0_L2C TOTAL     ACCESS:     764506  HIT:     229891  MISS:     534615
cpu0_L2C LOAD      ACCESS:     664094  HIT:     159972  MISS:     504122
cpu0_L2C RFO       ACCESS:      36761  HIT:       6450  MISS:      30311
cpu0_L2C PREFETCH  ACCESS:          0  HIT:          0  MISS:          0
cpu0_L2C WRITEBACK ACCESS:      63423  HIT:      63328  MISS:         95
LLC TOTAL     ACCESS:     584976  HIT:     545703  MISS:      39273
LLC LOAD      ACCESS:     504116  HIT:     465285  MISS:      38831
LLC RFO       ACCESS:      30311  HIT:      29877  MISS:        434
LLC PREFETCH  ACCESS:          0  HIT:          0  MISS:          0
LLC WRITEBACK ACCESS:      50462  HIT:      50455  MISS:          7
Heartbeat CPU 0 instructions: 90000003 cycles: 38718434 heartbeat IPC: 1.30519 cumulative IPC: 1.55763 (Simulation time: 0 hr 42 min 57 sec) 

Region of Interest Statistics
cpu0_DTLB TOTAL     ACCESS:    6938885  HIT:    6849237  MISS:      89648
cpu0_DTLB LOAD      ACCESS:    6303992  HIT:    6217737  MISS:      86255
cpu0_DTLB RFO       ACCESS:     634893  HIT:     631500  MISS:       3393
cpu0_DTLB PREFETCH  ACCESS:          0  HIT:          0  MISS:          0
cpu0_DTLB WRITEBACK ACCESS:          0  HIT:          0  MISS:          0
cpu0_ITLB TOTAL     ACCESS:    3730969  HIT:    3730969  MISS:          0
cpu0_ITLB LOAD      ACCESS:    3730969  HIT:    3730969  MISS:          0
cpu0_ITLB RFO       ACCESS:          0  HIT:          0  MISS:          0
cpu0_ITLB PREFETCH  ACCESS:          0  HIT:          0  MISS:          0
cpu0_ITLB WRITEBACK ACCESS:          0  HIT:          0  MISS:          0
cpu0_L1I TOTAL     ACCESS:      56606  HIT:      56534  MISS:         72
cpu0_L1I LOAD      ACCESS:      56606  HIT:      56534  MISS:         72
cpu0_L1I RFO       ACCESS:          0  HIT:          0  MISS:          0
cpu0_L1I PREFETCH  ACCESS:          0  HIT:          0  MISS:          0
cpu0_L1I WRITEBACK ACCESS:          0  HIT:          0  MISS:          0
cpu0_STLB TOTAL     ACCESS:      89648  HIT:      63054  MISS:      26594
cpu0_STLB LOAD      ACCESS:      86255  HIT:      60109  MISS:      26146
cpu0_STLB RFO       ACCESS:       3393  HIT:       2945  MISS:        448
cpu0_STLB PREFETCH  ACCESS:          0  HIT:          0  MISS:          0
cpu0_STLB WRITEBACK ACCESS:          0  HIT:          0  MISS:          0
cpu0_L1D TOTAL     ACCESS:    5690498  HIT:    4941070  MISS:     749428
cpu0_L1D LOAD      ACCESS:    4533869  HIT:    3824889  MISS:     708980
cpu0_L1D RFO       ACCESS:    1131265  HIT:    1091069  MISS:      40196
cpu0_L1D PREFETCH  ACCESS:          0  HIT:          0  MISS:          0
cpu0_L1D WRITEBACK ACCESS:          0  HIT:          0  MISS:          0
cpu0_L2C TOTAL     ACCESS:     822035  HIT:     253942  MISS:     568093
cpu0_L2C LOAD      ACCESS:     709050  HIT:     174083  MISS:     534967
cpu0_L2C RFO       ACCESS:      40192  HIT:       7269  MISS:      32923
cpu0_L2C PREFETCH  ACCESS:          0  HIT:          0  MISS:          0
cpu0_L2C WRITEBACK ACCESS:      72541  HIT:      72435  MISS:        106
LLC TOTAL     ACCESS:     622622  HIT:     581544  MISS:      41078
LLC LOAD      ACCESS:     534961  HIT:     494407  MISS:      40554
LLC RFO       ACCESS:      32923  HIT:      32407  MISS:        516
LLC PREFETCH  ACCESS:          0  HIT:          0  MISS:          0
LLC WRITEBACK ACCESS:      54641  HIT:      54634  MISS:          7
Heartbeat CPU 0 instructions: 92000004 cycles: 39558890 heartbeat IPC: 2.37966 cumulative IPC: 1.58369 (Simulation time: 0 hr 43 min 53 sec) 

Region of Interest Statistics
cpu0_DTLB TOTAL     ACCESS:    7265975  HIT:    7175746  MISS:      90229
cpu0_DTLB LOAD      ACCESS:    6619822  HIT:    6533014  MISS:      86808
cpu0_DTLB RFO       ACCESS:     646153  HIT:     642732  MISS:       3421
cpu0_DTLB PREFETCH  ACCESS:          0  HIT:          0  MISS:          0
cpu0_DTLB WRITEBACK ACCESS:          0  HIT:          0  MISS:          0
cpu0_ITLB TOTAL     ACCESS:    3930088  HIT:    3930088  MISS:          0
cpu0_ITLB LOAD      ACCESS:    3930088  HIT:    3930088  MISS:          0
cpu0_ITLB RFO       ACCESS:          0  HIT:          0  MISS:          0
cpu0_ITLB PREFETCH  ACCESS:          0  HIT:          0  MISS:          0
cpu0_ITLB WRITEBACK ACCESS:          0  HIT:          0  MISS:          0
cpu0_L1I TOTAL     ACCESS:      56682  HIT:      56610  MISS:         72
cpu0_L1I LOAD      ACCESS:      56682  HIT:      56610  MISS:         72
cpu0_L1I RFO       ACCESS:          0  HIT:          0  MISS:          0
cpu0_L1I PREFETCH  ACCESS:          0  HIT:          0  MISS:          0
cpu0_L1I WRITEBACK ACCESS:          0  HIT:          0  MISS:          0
cpu0_STLB TOTAL     ACCESS:      90229  HIT:      63288  MISS:      26941
cpu0_STLB LOAD      ACCESS:      86808  HIT:      60316  MISS:      26492
cpu0_STLB RFO       ACCESS:       3421  HIT:       2972  MISS:        449
cpu0_STLB PREFETCH  ACCESS:          0  HIT:          0  MISS:          0
cpu0_STLB WRITEBACK ACCESS:          0  HIT:          0  MISS:          0
cpu0_L1D TOTAL     ACCESS:    5916682  HIT:    5140493  MISS:     776189
cpu0_L1D LOAD      ACCESS:    4744380  HIT:    4010175  MISS:     734205
cpu0_L1D RFO       ACCESS:    1146617  HIT:    1104886  MISS:      41731
cpu0_L1D PREFETCH  ACCESS:          0  HIT:          0  MISS:          0
cpu0_L1D WRITEBACK ACCESS:          0  HIT:          0  MISS:          0
cpu0_L2C TOTAL     ACCESS:     850571  HIT:     258142  MISS:     592429
cpu0_L2C LOAD      ACCESS:     734275  HIT:     176065  MISS:     558210
cpu0_L2C RFO       ACCESS:      41727  HIT:       7711  MISS:      34016
cpu0_L2C PREFETCH  ACCESS:          0  HIT:          0  MISS:          0
cpu0_L2C WRITEBACK ACCESS:      74316  HIT:      74210  MISS:        106
LLC TOTAL     ACCESS:     650915  HIT:     609357  MISS:      41558
LLC LOAD      ACCESS:     558204  HIT:     517171  MISS:      41033
LLC RFO       ACCESS:      34016  HIT:      33500  MISS:        516
LLC PREFETCH  ACCESS:          0  HIT:          0  MISS:          0
LLC WRITEBACK ACCESS:      58598  HIT:      58590  MISS:          8
Heartbeat CPU 0 instructions: 94000003 cycles: 41057484 heartbeat IPC: 1.33458 cumulative IPC: 1.57036 (Simulation time: 0 hr 45 min 5 sec) 

Region of Interest Statistics
cpu0_DTLB TOTAL     ACCESS:    7616045  HIT:    7519366  MISS:      96679
cpu0_DTLB LOAD      ACCESS:    6936274  HIT:    6843101  MISS:      93173
cpu0_DTLB RFO       ACCESS:     679771  HIT:     676265  MISS:       3506
cpu0_DTLB PREFETCH  ACCESS:          0  HIT:          0  MISS:          0
cpu0_DTLB WRITEBACK ACCESS:          0  HIT:          0  MISS:          0
cpu0_ITLB TOTAL     ACCESS:    4113047  HIT:    4113047  MISS:          0
cpu0_ITLB LOAD      ACCESS:    4113047  HIT:    4113047  MISS:          0
cpu0_ITLB RFO       ACCESS:          0  HIT:          0  MISS:          0
cpu0_ITLB PREFETCH  ACCESS:          0  HIT:          0  MISS:          0
cpu0_ITLB WRITEBACK ACCESS:          0  HIT:          0  MISS:          0
cpu0_L1I TOTAL     ACCESS:      56709  HIT:      56637  MISS:         72
cpu0_L1I LOAD      ACCESS:      56709  HIT:      56637  MISS:         72
cpu0_L1I RFO       ACCESS:          0  HIT:          0  MISS:          0
cpu0_L1I PREFETCH  ACCESS:          0  HIT:          0  MISS:          0
cpu0_L1I WRITEBACK ACCESS:          0  HIT:          0  MISS:          0
cpu0_STLB TOTAL     ACCESS:      96679  HIT:      68051  MISS:      28628
cpu0_STLB LOAD      ACCESS:      93173  HIT:      65000  MISS:      28173
cpu0_STLB RFO       ACCESS:       3506  HIT:       3051  MISS:        455
cpu0_STLB PREFETCH  ACCESS:          0  HIT:          0  MISS:          0
cpu0_STLB WRITEBACK ACCESS:          0  HIT:          0  MISS:          0
cpu0_L1D TOTAL     ACCESS:    6204261  HIT:    5385746  MISS:     818515
cpu0_L1D LOAD      ACCESS:    4965881  HIT:    4189888  MISS:     775993
cpu0_L1D RFO       ACCESS:    1211054  HIT:    1168804  MISS:      42250
cpu0_L1D PREFETCH  ACCESS:          0  HIT:          0  MISS:          0
cpu0_L1D WRITEBACK ACCESS:          0  HIT:          0  MISS:          0
cpu0_L2C TOTAL     ACCESS:     893426  HIT:     271126  MISS:     622300
cpu0_L2C LOAD      ACCESS:     776063  HIT:     188497  MISS:     587566
cpu0_L2C RFO       ACCESS:      42246  HIT:       7721  MISS:      34525
cpu0_L2C PREFETCH  ACCESS:          0  HIT:          0  MISS:          0
cpu0_L2C WRITEBACK ACCESS:      74845  HIT:      74737  MISS:        108
LLC TOTAL     ACCESS:     681257  HIT:     636967  MISS:      44290
LLC LOAD      ACCESS:     587560  HIT:     543796  MISS:      43764
LLC RFO       ACCESS:      34525  HIT:      34008  MISS:        517
LLC PREFETCH  ACCESS:          0  HIT:          0  MISS:          0
LLC WRITEBACK ACCESS:      59071  HIT:      59063  MISS:          8
Heartbeat CPU 0 instructions: 96000003 cycles: 42583696 heartbeat IPC: 1.31043 cumulative IPC: 1.55694 (Simulation time: 0 hr 46 min 14 sec) 

Region of Interest Statistics
cpu0_DTLB TOTAL     ACCESS:    7985638  HIT:    7881608  MISS:     104030
cpu0_DTLB LOAD      ACCESS:    7266308  HIT:    7166104  MISS:     100204
cpu0_DTLB RFO       ACCESS:     719330  HIT:     715504  MISS:       3826
cpu0_DTLB PREFETCH  ACCESS:          0  HIT:          0  MISS:          0
cpu0_DTLB WRITEBACK ACCESS:          0  HIT:          0  MISS:          0
cpu0_ITLB TOTAL     ACCESS:    4299387  HIT:    4299387  MISS:          0
cpu0_ITLB LOAD      ACCESS:    4299387  HIT:    4299387  MISS:          0
cpu0_ITLB RFO       ACCESS:          0  HIT:          0  MISS:          0
cpu0_ITLB PREFETCH  ACCESS:          0  HIT:          0  MISS:          0
cpu0_ITLB WRITEBACK ACCESS:          0  HIT:          0  MISS:          0
cpu0_L1I TOTAL     ACCESS:      61052  HIT:      60980  MISS:         72
cpu0_L1I LOAD      ACCESS:      61052  HIT:      60980  MISS:         72
cpu0_L1I RFO       ACCESS:          0  HIT:          0  MISS:          0
cpu0_L1I PREFETCH  ACCESS:          0  HIT:          0  MISS:          0
cpu0_L1I WRITEBACK ACCESS:          0  HIT:          0  MISS:          0
cpu0_STLB TOTAL     ACCESS:     104030  HIT:      73724  MISS:      30306
cpu0_STLB LOAD      ACCESS:     100204  HIT:      70369  MISS:      29835
cpu0_STLB RFO       ACCESS:       3826  HIT:       3355  MISS:        471
cpu0_STLB PREFETCH  ACCESS:          0  HIT:          0  MISS:          0
cpu0_STLB WRITEBACK ACCESS:          0  HIT:          0  MISS:          0
cpu0_L1D TOTAL     ACCESS:    6530922  HIT:    5667697  MISS:     863225
cpu0_L1D LOAD      ACCESS:    5213320  HIT:    4393360  MISS:     819960
cpu0_L1D RFO       ACCESS:    1288685  HIT:    1245713  MISS:      42972
cpu0_L1D PREFETCH  ACCESS:          0  HIT:          0  MISS:          0
cpu0_L1D WRITEBACK ACCESS:          0  HIT:          0  MISS:          0
cpu0_L2C TOTAL     ACCESS:     944142  HIT:     291473  MISS:     652669
cpu0_L2C LOAD      ACCESS:     820029  HIT:     202659  MISS:     617370
cpu0_L2C RFO       ACCESS:      42968  HIT:       7894  MISS:      35074
cpu0_L2C PREFETCH  ACCESS:          0  HIT:          0  MISS:          0
cpu0_L2C WRITEBACK ACCESS:      80852  HIT:      80735  MISS:        117
LLC TOTAL     ACCESS:     714150  HIT:     668252  MISS:      45898
LLC LOAD      ACCESS:     617364  HIT:     572017  MISS:      45347
LLC RFO       ACCESS:      35074  HIT:      34534  MISS:        540
LLC PREFETCH  ACCESS:          0  HIT:          0  MISS:          0
LLC WRITEBACK ACCESS:      61604  HIT:      61594  MISS:         10
Heartbeat CPU 0 instructions: 98000002 cycles: 43503647 heartbeat IPC: 2.17403 cumulative IPC: 1.57557 (Simulation time: 0 hr 47 min 12 sec) 

Region of Interest Statistics
cpu0_DTLB TOTAL     ACCESS:    8317814  HIT:    8212555  MISS:     105259
cpu0_DTLB LOAD      ACCESS:    7578964  HIT:    7477717  MISS:     101247
cpu0_DTLB RFO       ACCESS:     738850  HIT:     734838  MISS:       4012
cpu0_DTLB PREFETCH  ACCESS:          0  HIT:          0  MISS:          0
cpu0_DTLB WRITEBACK ACCESS:          0  HIT:          0  MISS:          0
cpu0_ITLB TOTAL     ACCESS:    4493611  HIT:    4493611  MISS:          0
cpu0_ITLB LOAD      ACCESS:    4493611  HIT:    4493611  MISS:          0
cpu0_ITLB RFO       ACCESS:          0  HIT:          0  MISS:          0
cpu0_ITLB PREFETCH  ACCESS:          0  HIT:          0  MISS:          0
cpu0_ITLB WRITEBACK ACCESS:          0  HIT:          0  MISS:          0
cpu0_L1I TOTAL     ACCESS:      62667  HIT:      62595  MISS:         72
cpu0_L1I LOAD      ACCESS:      62667  HIT:      62595  MISS:         72
cpu0_L1I RFO       ACCESS:          0  HIT:          0  MISS:          0
cpu0_L1I PREFETCH  ACCESS:          0  HIT:          0  MISS:          0
cpu0_L1I WRITEBACK ACCESS:          0  HIT:          0  MISS:          0
cpu0_STLB TOTAL     ACCESS:     105259  HIT:      74584  MISS:      30675
cpu0_STLB LOAD      ACCESS:     101247  HIT:      71074  MISS:      30173
cpu0_STLB RFO       ACCESS:       4012  HIT:       3510  MISS:        502
cpu0_STLB PREFETCH  ACCESS:          0  HIT:          0  MISS:          0
cpu0_STLB WRITEBACK ACCESS:          0  HIT:          0  MISS:          0
cpu0_L1D TOTAL     ACCESS:    6766602  HIT:    5871569  MISS:     895033
cpu0_L1D LOAD      ACCESS:    5425415  HIT:    4577799  MISS:     847616
cpu0_L1D RFO       ACCESS:    1311929  HIT:    1264810  MISS:      47119
cpu0_L1D PREFETCH  ACCESS:          0  HIT:          0  MISS:          0
cpu0_L1D WRITEBACK ACCESS:          0  HIT:          0  MISS:          0
cpu0_L2C TOTAL     ACCESS:     980722  HIT:     300455  MISS:     680267
cpu0_L2C LOAD      ACCESS:     847685  HIT:     205819  MISS:     641866
cpu0_L2C RFO       ACCESS:      47115  HIT:       8942  MISS:      38173
cpu0_L2C PREFETCH  ACCESS:          0  HIT:          0  MISS:          0
cpu0_L2C WRITEBACK ACCESS:      85624  HIT:      85505  MISS:        119
LLC TOTAL     ACCESS:     747239  HIT:     700725  MISS:      46514
LLC LOAD      ACCESS:     641860  HIT:     595917  MISS:      45943
LLC RFO       ACCESS:      38173  HIT:      37613  MISS:        560
LLC PREFETCH  ACCESS:          0  HIT:          0  MISS:          0
LLC WRITEBACK ACCESS:      67097  HIT:      67087  MISS:         10
Heartbeat CPU 0 instructions: 100000002 cycles: 44881469 heartbeat IPC: 1.45157 cumulative IPC: 1.5702 (Simulation time: 0 hr 48 min 21 sec) 

Region of Interest Statistics
cpu0_DTLB TOTAL     ACCESS:    8664094  HIT:    8553207  MISS:     110887
cpu0_DTLB LOAD      ACCESS:    7894517  HIT:    7787720  MISS:     106797
cpu0_DTLB RFO       ACCESS:     769577  HIT:     765487  MISS:       4090
cpu0_DTLB PREFETCH  ACCESS:          0  HIT:          0  MISS:          0
cpu0_DTLB WRITEBACK ACCESS:          0  HIT:          0  MISS:          0
cpu0_ITLB TOTAL     ACCESS:    4676980  HIT:    4676980  MISS:          0
cpu0_ITLB LOAD      ACCESS:    4676980  HIT:    4676980  MISS:          0
cpu0_ITLB RFO       ACCESS:          0  HIT:          0  MISS:          0
cpu0_ITLB PREFETCH  ACCESS:          0  HIT:          0  MISS:          0
cpu0_ITLB WRITEBACK ACCESS:          0  HIT:          0  MISS:          0
cpu0_L1I TOTAL     ACCESS:      62686  HIT:      62614  MISS:         72
cpu0_L1I LOAD      ACCESS:      62686  HIT:      62614  MISS:         72
cpu0_L1I RFO       ACCESS:          0  HIT:          0  MISS:          0
cpu0_L1I PREFETCH  ACCESS:          0  HIT:          0  MISS:          0
cpu0_L1I WRITEBACK ACCESS:          0  HIT:          0  MISS:          0
cpu0_STLB TOTAL     ACCESS:     110887  HIT:      78696  MISS:      32191
cpu0_STLB LOAD      ACCESS:     106797  HIT:      75113  MISS:      31684
cpu0_STLB RFO       ACCESS:       4090  HIT:       3583  MISS:        507
cpu0_STLB PREFETCH  ACCESS:          0  HIT:          0  MISS:          0
cpu0_STLB WRITEBACK ACCESS:          0  HIT:          0  MISS:          0
cpu0_L1D TOTAL     ACCESS:    7045308  HIT:    6109817  MISS:     935491
cpu0_L1D LOAD      ACCESS:    5644341  HIT:    4756826  MISS:     887515
cpu0_L1D RFO       ACCESS:    1370232  HIT:    1322568  MISS:      47664
cpu0_L1D PREFETCH  ACCESS:          0  HIT:          0  MISS:          0
cpu0_L1D WRITEBACK ACCESS:          0  HIT:          0  MISS:          0
cpu0_L2C TOTAL     ACCESS:    1021747  HIT:     312066  MISS:     709681
cpu0_L2C LOAD      ACCESS:     887584  HIT:     216841  MISS:     670743
cpu0_L2C RFO       ACCESS:      47660  HIT:       8954  MISS:      38706
cpu0_L2C PREFETCH  ACCESS:          0  HIT:          0  MISS:          0
cpu0_L2C WRITEBACK ACCESS:      86191  HIT:      86071  MISS:        120
LLC TOTAL     ACCESS:     777142  HIT:     728605  MISS:      48537
LLC LOAD      ACCESS:     670737  HIT:     622772  MISS:      47965
LLC RFO       ACCESS:      38706  HIT:      38145  MISS:        561
LLC PREFETCH  ACCESS:          0  HIT:          0  MISS:          0
LLC WRITEBACK ACCESS:      67587  HIT:      67577  MISS:         10
Heartbeat CPU 0 instructions: 102000003 cycles: 46461046 heartbeat IPC: 1.26616 cumulative IPC: 1.55583 (Simulation time: 0 hr 49 min 27 sec) 

Region of Interest Statistics
cpu0_DTLB TOTAL     ACCESS:    9039745  HIT:    8920813  MISS:     118932
cpu0_DTLB LOAD      ACCESS:    8227488  HIT:    8113000  MISS:     114488
cpu0_DTLB RFO       ACCESS:     812257  HIT:     807813  MISS:       4444
cpu0_DTLB PREFETCH  ACCESS:          0  HIT:          0  MISS:          0
cpu0_DTLB WRITEBACK ACCESS:          0  HIT:          0  MISS:          0
cpu0_ITLB TOTAL     ACCESS:    4865019  HIT:    4865019  MISS:          0
cpu0_ITLB LOAD      ACCESS:    4865019  HIT:    4865019  MISS:          0
cpu0_ITLB RFO       ACCESS:          0  HIT:          0  MISS:          0
cpu0_ITLB PREFETCH  ACCESS:          0  HIT:          0  MISS:          0
cpu0_ITLB WRITEBACK ACCESS:          0  HIT:          0  MISS:          0
cpu0_L1I TOTAL     ACCESS:      69570  HIT:      69498  MISS:         72
cpu0_L1I LOAD      ACCESS:      69570  HIT:      69498  MISS:         72
cpu0_L1I RFO       ACCESS:          0  HIT:          0  MISS:          0
cpu0_L1I PREFETCH  ACCESS:          0  HIT:          0  MISS:          0
cpu0_L1I WRITEBACK ACCESS:          0  HIT:          0  MISS:          0
cpu0_STLB TOTAL     ACCESS:     118932  HIT:      84899  MISS:      34033
cpu0_STLB LOAD      ACCESS:     114488  HIT:      80979  MISS:      33509
cpu0_STLB RFO       ACCESS:       4444  HIT:       3920  MISS:        524
cpu0_STLB PREFETCH  ACCESS:          0  HIT:          0  MISS:          0
cpu0_STLB WRITEBACK ACCESS:          0  HIT:          0  MISS:          0
cpu0_L1D TOTAL     ACCESS:    7377532  HIT:    6396300  MISS:     981232
cpu0_L1D LOAD      ACCESS:    5891115  HIT:    4958659  MISS:     932456
cpu0_L1D RFO       ACCESS:    1453934  HIT:    1405490  MISS:      48444
cpu0_L1D PREFETCH  ACCESS:          0  HIT:          0  MISS:          0
cpu0_L1D WRITEBACK ACCESS:          0  HIT:          0  MISS:          0
cpu0_L2C TOTAL     ACCESS:    1073203  HIT:     333073  MISS:     740130
cpu0_L2C LOAD      ACCESS:     932524  HIT:     231944  MISS:     700580
cpu0_L2C RFO       ACCESS:      48440  HIT:       9139  MISS:      39301
cpu0_L2C PREFETCH  ACCESS:          0  HIT:          0  MISS:          0
cpu0_L2C WRITEBACK ACCESS:      91907  HIT:      91778  MISS:        129
LLC TOTAL     ACCESS:     808932  HIT:     758680  MISS:      50252
LLC LOAD      ACCESS:     700574  HIT:     650913  MISS:      49661
LLC RFO       ACCESS:      39301  HIT:      38721  MISS:        580
LLC PREFETCH  ACCESS:          0  HIT:          0  MISS:          0
LLC WRITEBACK ACCESS:      68937  HIT:      68927  MISS:         10
Heartbeat CPU 0 instructions: 104000004 cycles: 47404668 heartbeat IPC: 2.11949 cumulative IPC: 1.57131 (Simulation time: 0 hr 50 min 22 sec) 

Region of Interest Statistics
cpu0_DTLB TOTAL     ACCESS:    9370842  HIT:    9250622  MISS:     120220
cpu0_DTLB LOAD      ACCESS:    8538939  HIT:    8423334  MISS:     115605
cpu0_DTLB RFO       ACCESS:     831903  HIT:     827288  MISS:       4615
cpu0_DTLB PREFETCH  ACCESS:          0  HIT:          0  MISS:          0
cpu0_DTLB WRITEBACK ACCESS:          0  HIT:          0  MISS:          0
cpu0_ITLB TOTAL     ACCESS:    5054258  HIT:    5054258  MISS:          0
cpu0_ITLB LOAD      ACCESS:    5054258  HIT:    5054258  MISS:          0
cpu0_ITLB RFO       ACCESS:          0  HIT:          0  MISS:          0
cpu0_ITLB PREFETCH  ACCESS:          0  HIT:          0  MISS:          0
cpu0_ITLB WRITEBACK ACCESS:          0  HIT:          0  MISS:          0
cpu0_L1I TOTAL     ACCESS:      71547  HIT:      71475  MISS:         72
cpu0_L1I LOAD      ACCESS:      71547  HIT:      71475  MISS:         72
cpu0_L1I RFO       ACCESS:          0  HIT:          0  MISS:          0
cpu0_L1I PREFETCH  ACCESS:          0  HIT:          0  MISS:          0
cpu0_L1I WRITEBACK ACCESS:          0  HIT:          0  MISS:          0
cpu0_STLB TOTAL     ACCESS:     120220  HIT:      85820  MISS:      34400
cpu0_STLB LOAD      ACCESS:     115605  HIT:      81761  MISS:      33844
cpu0_STLB RFO       ACCESS:       4615  HIT:       4059  MISS:        556
cpu0_STLB PREFETCH  ACCESS:          0  HIT:          0  MISS:          0
cpu0_STLB WRITEBACK ACCESS:          0  HIT:          0  MISS:          0
cpu0_L1D TOTAL     ACCESS:    7615320  HIT:    6602614  MISS:    1012706
cpu0_L1D LOAD      ACCESS:    6104170  HIT:    5144237  MISS:     959933
cpu0_L1D RFO       ACCESS:    1478326  HIT:    1425891  MISS:      52435
cpu0_L1D PREFETCH  ACCESS:          0  HIT:          0  MISS:          0
cpu0_L1D WRITEBACK ACCESS:          0  HIT:          0  MISS:          0
cpu0_L2C TOTAL     ACCESS:    1109301  HIT:     341874  MISS:     767427
cpu0_L2C LOAD      ACCESS:     960001  HIT:     235153  MISS:     724848
cpu0_L2C RFO       ACCESS:      52430  HIT:      10104  MISS:      42326
cpu0_L2C PREFETCH  ACCESS:          0  HIT:          0  MISS:          0
cpu0_L2C WRITEBACK ACCESS:      96532  HIT:      96401  MISS:        131
LLC TOTAL     ACCESS:     842664  HIT:     791606  MISS:      51058
LLC LOAD      ACCESS:     724842  HIT:     674405  MISS:      50437
LLC RFO       ACCESS:      42326  HIT:      41716  MISS:        610
LLC PREFETCH  ACCESS:          0  HIT:          0  MISS:          0
LLC WRITEBACK ACCESS:      75374  HIT:      75364  MISS:         10
Heartbeat CPU 0 instructions: 106000000 cycles: 48759581 heartbeat IPC: 1.47611 cumulative IPC: 1.5677 (Simulation time: 0 hr 51 min 28 sec) 

Region of Interest Statistics
cpu0_DTLB TOTAL     ACCESS:    9714416  HIT:    9588884  MISS:     125532
cpu0_DTLB LOAD      ACCESS:    8852544  HIT:    8731703  MISS:     120841
cpu0_DTLB RFO       ACCESS:     861872  HIT:     857181  MISS:       4691
cpu0_DTLB PREFETCH  ACCESS:          0  HIT:          0  MISS:          0
cpu0_DTLB WRITEBACK ACCESS:          0  HIT:          0  MISS:          0
cpu0_ITLB TOTAL     ACCESS:    5239055  HIT:    5239055  MISS:          0
cpu0_ITLB LOAD      ACCESS:    5239055  HIT:    5239055  MISS:          0
cpu0_ITLB RFO       ACCESS:          0  HIT:          0  MISS:          0
cpu0_ITLB PREFETCH  ACCESS:          0  HIT:          0  MISS:          0
cpu0_ITLB WRITEBACK ACCESS:          0  HIT:          0  MISS:          0
cpu0_L1I TOTAL     ACCESS:      71573  HIT:      71501  MISS:         72
cpu0_L1I LOAD      ACCESS:      71573  HIT:      71501  MISS:         72
cpu0_L1I RFO       ACCESS:          0  HIT:          0  MISS:          0
cpu0_L1I PREFETCH  ACCESS:          0  HIT:          0  MISS:          0
cpu0_L1I WRITEBACK ACCESS:          0  HIT:          0  MISS:          0
cpu0_STLB TOTAL     ACCESS:     125532  HIT:      89605  MISS:      35927
cpu0_STLB LOAD      ACCESS:     120841  HIT:      85476  MISS:      35365
cpu0_STLB RFO       ACCESS:       4691  HIT:       4129  MISS:        562
cpu0_STLB PREFETCH  ACCESS:          0  HIT:          0  MISS:          0
cpu0_STLB WRITEBACK ACCESS:          0  HIT:          0  MISS:          0
cpu0_L1D TOTAL     ACCESS:    7893926  HIT:    6841337  MISS:    1052589
cpu0_L1D LOAD      ACCESS:    6324607  HIT:    5325424  MISS:     999183
cpu0_L1D RFO       ACCESS:    1535015  HIT:    1481958  MISS:      53057
cpu0_L1D PREFETCH  ACCESS:          0  HIT:          0  MISS:          0
cpu0_L1D WRITEBACK ACCESS:          0  HIT:          0  MISS:          0
cpu0_L2C TOTAL     ACCESS:    1149836  HIT:     352873  MISS:     796963
cpu0_L2C LOAD      ACCESS:     999251  HIT:     245481  MISS:     753770
cpu0_L2C RFO       ACCESS:      53052  HIT:      10116  MISS:      42936
cpu0_L2C PREFETCH  ACCESS:          0  HIT:          0  MISS:          0
cpu0_L2C WRITEBACK ACCESS:      97184  HIT:      97052  MISS:        132
[...]
cpu0_DTLB TRANSLATION ACCESS:          0  HIT:          0  MISS:          0
cpu0_DTLB PREFETCH  REQUESTED:          0  ISSUED:          0  USEFUL:          0  USELESS:          0
cpu0_DTLB AVERAGE MISS LATENCY: 11.7011 cycles
cpu0_ITLB TOTAL     ACCESS:  140639778  HIT:  140639751  MISS:         27
cpu0_ITLB LOAD      ACCESS:  140639778  HIT:  140639751  MISS:         27
cpu0_ITLB RFO       ACCESS:          0  HIT:          0  MISS:          0
cpu0_ITLB PREFETCH  ACCESS:          0  HIT:          0  MISS:          0
cpu0_ITLB WRITEBACK ACCESS:          0  HIT:          0  MISS:          0
cpu0_ITLB TRANSLATION ACCESS:          0  HIT:          0  MISS:          0
cpu0_ITLB PREFETCH  REQUESTED:          0  ISSUED:          0  USEFUL:          0  USELESS:          0
cpu0_ITLB AVERAGE MISS LATENCY: 174.556 cycles
cpu0_L1I TOTAL     ACCESS:    1881676  HIT:    1879550  MISS:       2126
cpu0_L1I LOAD      ACCESS:    1881676  HIT:    1879550  MISS:       2126
cpu0_L1I RFO       ACCESS:          0  HIT:          0  MISS:          0
cpu0_L1I PREFETCH  ACCESS:          0  HIT:          0  MISS:          0
cpu0_L1I WRITEBACK ACCESS:          0  HIT:          0  MISS:          0
cpu0_L1I TRANSLATION ACCESS:          0  HIT:          0  MISS:          0
cpu0_L1I PREFETCH  REQUESTED:          0  ISSUED:          0  USEFUL:          0  USELESS:          0
cpu0_L1I AVERAGE MISS LATENCY: 95.293 cycles
cpu0_STLB TOTAL     ACCESS:    2920180  HIT:    2001110  MISS:     919070
cpu0_STLB LOAD      ACCESS:    2802627  HIT:    1899872  MISS:     902755
cpu0_STLB RFO       ACCESS:     117553  HIT:     101238  MISS:      16315
cpu0_STLB PREFETCH  ACCESS:          0  HIT:          0  MISS:          0
cpu0_STLB WRITEBACK ACCESS:          0  HIT:          0  MISS:          0
cpu0_STLB TRANSLATION ACCESS:          0  HIT:          0  MISS:          0
cpu0_STLB PREFETCH  REQUESTED:          0  ISSUED:          0  USEFUL:          0  USELESS:          0
cpu0_STLB AVERAGE MISS LATENCY: 8.49826 cycles
cpu0_L1D TOTAL     ACCESS:  206590081  HIT:  180026262  MISS:   26563819
cpu0_L1D LOAD      ACCESS:  168531122  HIT:  143497434  MISS:   25033688
cpu0_L1D RFO       ACCESS:   37186928  HIT:   35665785  MISS:    1521143
cpu0_L1D PREFETCH  ACCESS:          0  HIT:          0  MISS:          0
cpu0_L1D WRITEBACK ACCESS:          0  HIT:          0  MISS:          0
cpu0_L1D TRANSLATION ACCESS:     872031  HIT:     863043  MISS:       8988
cpu0_L1D PREFETCH  REQUESTED:          0  ISSUED:          0  USEFUL:          0  USELESS:          0
cpu0_L1D AVERAGE MISS LATENCY: 30.7998 cycles
cpu0_L2C TOTAL     ACCESS:   29015192  HIT:    8363692  MISS:   20651500
cpu0_L2C LOAD      ACCESS:   25035720  HIT:    5692288  MISS:   19343432
cpu0_L2C RFO       ACCESS:    1520990  HIT:     220739  MISS:    1300251
cpu0_L2C PREFETCH  ACCESS:          0  HIT:          0  MISS:          0
cpu0_L2C WRITEBACK ACCESS:    2449494  HIT:    2445491  MISS:       4003
cpu0_L2C TRANSLATION ACCESS:       8988  HIT:       5174  MISS:       3814
cpu0_L2C PREFETCH  REQUESTED:          0  ISSUED:          0  USEFUL:          0  USELESS:          0
cpu0_L2C AVERAGE MISS LATENCY: 25.4286 cycles
LLC TOTAL     ACCESS:   22638965  HIT:   22164628  MISS:     474337
LLC LOAD      ACCESS:   19343375  HIT:   18887014  MISS:     456361
LLC RFO       ACCESS:    1300251  HIT:    1283845  MISS:      16406
LLC PREFETCH  ACCESS:          0  HIT:          0  MISS:          0
LLC WRITEBACK ACCESS:    1991525  HIT:    1989963  MISS:       1562
LLC TRANSLATION ACCESS:       3814  HIT:       3806  MISS:          8
LLC PREFETCH  REQUESTED:          0  ISSUED:          0  USEFUL:          0  USELESS:          0
LLC AVERAGE MISS LATENCY: 192.988 cycles
~~~~~~~~~~Reuse Distance Profiler output~~~~~~~~~~
0	32785168	15185056
1	24201344	20754800
2	22532496	20254752
3	17363840	15888544
4	13153024	12422400
5	8241264	7587472
6	6729680	6101328
7	4636944	3813072
8	3034736	2751760
9	1981040	1747968
10	1864992	1682064
11	1089824	864640
12	1438688	922512
13	696784	600032
14	659888	570496
15	572704	430592
16	652848	538960
17	514592	434912
18	601248	514896
19	395072	288528
20	547344	358032
21	469312	398848
22	353952	280144
23	553504	464576
24	411664	225088
25	527536	395664
26	386304	318928
27	611552	528224
28	548880	467392
29	824368	664832
30	685008	404176
31	867984	667888
32	732032	617232
33	989840	728480
34	663600	564320
35	957280	760352
36	1006448	818720
37	1235968	919616
38	890752	797936
39	638624	561904
40	809008	650256
41	709648	615760
42	850128	680096
43	670128	549536
44	528016	458896
45	505504	440096
46	469504	423744
47	462896	416928
48	421856	377040
49	386496	318656
50	339392	290400
51	305904	259552
52	262144	226560
53	230048	198896
54	222928	191472
55	251392	214752
56	291760	249664
57	280320	247760
58	255776	223600
59	217952	193232
60	183056	159664
61	160736	136160
62	158864	119152
63	172048	106352
64	355680	290752
66	281760	218992
68	341264	277856
70	434688	378864
72	333056	295328
74	340288	305040
76	318624	288832
78	303856	281392
80	320464	299328
82	309648	283936
84	338672	310880
86	332032	297008
88	323712	273232
90	258224	231936
92	202912	186288
94	188864	174192
96	176112	162688
98	175680	163200
100	167424	154160
102	172416	149856
104	174352	150528
106	175328	147904
108	172480	127152
110	176976	126880
112	159904	118928
114	140624	106912
116	140192	112432
118	121872	99744
120	119104	100784
122	117200	99792
124	104944	87312
126	142512	88992
128	280688	247536
132	308544	270736
136	475408	425264
140	697824	635040
144	900576	826384
148	945968	872448
152	776944	716288
156	544816	501520
160	374992	343856
164	280096	256512
168	237248	217248
172	200944	184208
176	174240	158832
180	165952	149712
184	177808	156544
188	213536	189904
192	253600	224592
196	283904	251296
200	271712	241296
204	231440	207568
208	178768	158512
212	146560	131312
216	118608	106464
220	106128	95760
224	95920	86112
228	85024	76528
232	77824	67792
236	78480	68656
240	90688	76288
244	105008	84496
248	116944	96448
252	131856	102096
256	242528	198896
264	136368	114176
272	94608	82432
280	78160	69024
288	90208	80608
296	119936	108032
304	128896	115280
312	105424	93952
320	74672	65360
328	57888	50912
336	62672	55536
344	70688	64112
352	72416	64912
360	69296	62368
368	55968	49728
376	44384	38608
384	42576	38112
392	55792	50624
400	72352	63888
408	88256	74976
416	88176	73184
424	69904	57760
432	55664	45296
440	51680	43744
448	51280	44144
456	48752	43264
464	45424	39776
472	39152	33200
480	32864	26992
488	34624	28832
496	36208	31152
504	35472	31488
512	67584	58096
528	58048	48464
544	56736	48784
560	59904	50640
576	56848	45824
592	58656	50112
608	59648	54176
624	56688	45056
640	53344	46992
656	49344	44560
672	44112	39680
688	39808	35824
704	44016	40480
720	40864	37536
736	36928	33376
752	41632	38336
768	42000	38432
784	41456	37824
800	41744	38304
816	47024	42720
832	45568	39584
848	41024	38176
864	39088	35792
880	44624	40160
896	39056	36192
912	37744	34464
928	38384	34624
944	35920	32144
960	32672	29904
976	32144	29184
992	33824	30880
1008	34176	31392
1024	67696	61344
1056	63856	58032
1088	64064	58048
1120	60848	56096
1152	61104	55456
1184	60224	55696
1216	57152	51984
1248	55536	51168
1280	53904	49552
1312	54000	50080
1344	52352	47712
1376	52976	49376
1408	50112	46304
1440	48864	45376
1472	46688	42832
1504	45504	42288
1536	44896	42208
1568	48256	45248
1600	47952	45632
1632	42448	40288
1664	42880	40560
1696	42208	40320
1728	43232	41136
1760	41520	39584
1792	41104	39120
1824	42000	40272
1856	40880	38176
1888	40896	38784
1920	39168	36960
1952	41248	39120
1984	42352	40032
2016	39232	37168
2048	78640	74992
2112	78720	75056
2176	77952	74528
2240	73952	70864
2304	71552	68240
2368	69216	66048
2432	68704	65888
2496	64720	61040
2560	64960	60912
2624	73072	61216
2688	68096	57264
2752	61728	56448
2816	57632	54768
2880	60496	57424
2944	58784	55456
3008	57584	53888
3072	55360	52560
3136	57968	56048
3200	52976	51648
3264	54288	52496
3328	51776	50432
3392	50080	49392
3456	47168	46512
3520	50320	49616
3584	49472	48496
3648	48640	47808
3712	47056	46304
3776	45728	45232
3840	46928	46544
3904	48528	47824
3968	44272	43504
4032	44048	43424
4096	87888	86608
4224	84496	83264
4352	85040	83920
4480	83168	82064
4608	78752	77552
4736	82480	80944
4864	75488	74560
4992	78512	77712
5120	78752	77872
5248	77504	76816
5376	72592	71696
5504	72336	70736
5632	71072	70064
5760	73536	72224
5888	70240	69232
6016	68736	67872
6144	69440	67856
6272	65248	64160
6400	64080	62976
6528	63552	62576
6656	62096	61200
6784	62016	60896
6912	58080	57296
7040	56672	56000
7168	56016	55408
7296	55808	55104
7424	55136	54496
7552	54192	52144
7680	53824	52128
7808	54560	53344
7936	57952	53440
8064	57904	52160
8192	105344	102144
8448	101456	96992
8704	97408	91200
8960	94560	89936
9216	88576	86560
9472	85888	83664
9728	83424	81136
9984	82928	80128
10240	80208	77664
10496	77312	73872
10752	84384	71696
11008	75536	69408
11264	70800	68960
11520	68288	65920
11776	70192	64800
12032	68160	62912
12288	63840	61536
12544	60656	59056
12800	58864	57296
13056	58880	56976
13312	62592	55984
13568	55712	53936
13824	54880	53456
14080	51952	50592
14336	53312	52160
14592	55008	52880
14848	50288	48880
15104	50144	48496
15360	47664	46816
15616	48240	47328
15872	46016	44512
16128	46080	45072
16384	86000	82448
16896	83744	80032
17408	92976	76832
17920	78320	73536
18432	89600	72816
18944	78704	71936
19456	76544	70352
19968	75312	70256
20480	99904	92656
20992	83632	75776
21504	54304	51184
22016	49360	45744
22528	43888	41920
23040	39504	38112
23552	38976	37520
24064	38208	36688
24576	34384	33232
25088	32192	30992
25600	30000	28880
26112	30272	29056
26624	27456	26768
27136	27056	26512
27648	23808	23232
28160	23728	23152
28672	22128	21600
29184	21328	20608
29696	20160	19520
30208	20128	19632
30720	19712	19152
31232	17888	17424
31744	18000	17328
32256	17488	17088
32768	33168	32432
33792	31376	30496
34816	29664	28816
35840	25440	24816
36864	22944	22496
37888	22096	21328
38912	20016	19312
39936	19456	18768
40960	20000	19536
41984	17808	17456
43008	15408	15040
44032	13984	13456
45056	13104	12592
46080	12832	12544
47104	11136	10912
48128	11344	10448
49152	11328	10752
50176	8896	8752
51200	8080	7792
52224	8208	7936
53248	7584	7360
54272	7280	7008
55296	7792	7552
56320	6848	6688
57344	7168	7008
58368	7520	7376
59392	9760	9328
60416	11360	10784
61440	14000	13696
62464	13376	13168
63488	12160	11888
64512	14976	14896
65536	38096	37792
67584	30832	30656
69632	29648	29584
71680	29024	28928
73728	21888	21776
75776	24784	24736
77824	22528	22496
79872	23696	23456
81920	23120	22000
83968	20992	19088
86016	20112	17936
88064	21664	19216
90112	21120	18576
92160	19984	16832
94208	21424	15472
96256	21104	13600
98304	20896	12368
100352	18864	11696
102400	17744	11680
104448	17136	13248
106496	14656	11200
108544	12000	9376
110592	12528	10288
112640	13216	10416
114688	12352	9776
116736	11696	9216
118784	11808	8496
120832	12704	9536
122880	11664	9200
124928	12304	10176
126976	11840	10320
129024	11248	9776
131072	20976	18592
135168	18544	15488
139264	20736	17504
143360	18560	14112
147456	19824	13424
151552	19824	13776
155648	19312	13840
159744	18592	13904
163840	17136	12464
167936	19056	13856
172032	16560	11872
176128	15184	11360
180224	15920	11024
184320	17440	11328
188416	14800	10560
192512	14800	10496
196608	13280	9040
200704	12208	8592
204800	12944	8816
208896	15184	10400
212992	15792	10864
217088	12256	8304
221184	11840	7600
225280	10096	6256
229376	11776	7280
233472	11904	7456
237568	15040	10368
241664	14448	10032
245760	12880	8400
249856	11856	7680
253952	10976	6960
258048	10688	6656
262144	23968	14960
270336	24032	15488
278528	22560	13936
286720	21792	12592
294912	21824	13072
303104	21344	11152
311296	19568	9520
319488	24272	13712
327680	21184	10928
335872	24304	13568
344064	25888	15824
352256	20176	11872
360448	19984	11424
368640	20592	10416
376832	56496	43520
385024	119152	109040
393216	54288	45680
401408	52496	43952
409600	54160	43808
417792	114000	102528
425984	152864	141712
434176	109312	99088
442368	133040	123520
450560	96832	86800
458752	115760	103712
466944	177968	165728
475136	197936	186544
483328	170528	158160
491520	164288	151088
499712	224080	205568
507904	153728	129968
516096	383904	350992
524288	1324448	1265104
540672	792640	737840
557056	1021280	968624
573440	1042832	1000368
589824	694768	652640
606208	905008	862400
622592	723200	695696
638976	561488	537760
655360	360672	342976
671744	333328	316480
688128	369120	345872
704512	489232	463008
720896	693104	672528
737280	375392	351312
753664	559952	531376
770048	722272	702864
786432	468640	453072
802816	267456	255040
819200	351152	327408
835584	581952	559504
851968	574096	557200
868352	341648	328176
884736	192176	181088
901120	335056	321456
917504	192304	177152
933888	504304	492688
950272	273104	263136
966656	264688	258608
983040	99552	95056
999424	144064	140176
1015808	30624	29392
1032192	37952	33296
1048576	135744	130352
1081344	148944	145552
1114112	18640	18560
1146880	12016	11920
1179648	81712	79088
1212416	18144	18112
1245184	6736	6704
1277952	7392	7360
1310720	3456	3440
1343488	7712	7072
1376256	9824	8304
1409024	58208	57696
1441792	7760	7760
1474560	7728	7728
1507328	11184	11152
1540096	11632	11584
1572864	11760	11744
1605632	10592	10544
1638400	6320	6304
1671168	9152	9104
1703936	12528	12496
1736704	7792	7744
1769472	8112	8064
1802240	5632	5616
1835008	10240	10224
1867776	10400	10384
1900544	7552	7552
1933312	7360	7312
1966080	4208	4176
1998848	3056	3040
2031616	4336	4304
2064384	4064	4064
2097152	15856	15808
2162688	9632	9520
2228224	16928	16896
2293760	15616	15584
2359296	12560	12528
2424832	8656	8640
2490368	9200	9184
2555904	9072	9040
2621440	11120	10960
2686976	8496	8480
2752512	10336	10272
2818048	7536	7456
2883584	8576	8560
2949120	4656	4560
3014656	9984	9904
3080192	10464	10384
3145728	5776	5776
3211264	6112	6096
3276800	6752	6752
3342336	8416	8384
3407872	5952	5888
3473408	9744	9680
3538944	4752	4736
3604480	6320	6240
3670016	3552	3520
3735552	3616	3616
3801088	9232	9184
3866624	8256	8208
3932160	5168	5088
3997696	6528	6496
4063232	6032	5904
4128768	5712	5680
4194304	12832	12688
4325376	9280	9200
4456448	7808	7712
4587520	14336	14224
4718592	8288	8272
4849664	10160	10096
4980736	8752	8368
5111808	10304	9504
5242880	10896	10720
5373952	8592	8512
5505024	7360	6624
5636096	11536	11424
5767168	6608	6544
5898240	7376	6880
6029312	9520	9312
6160384	8688	8512
6291456	4880	4496
6422528	9248	8640
6553600	6896	6272
6684672	6384	5936
6815744	8320	8256
6946816	5504	5232
7077888	4976	4432
7208960	6368	5728
7340032	9952	8112
7471104	8672	7888
7602176	5104	4288
7733248	5680	5568
7864320	5360	5072
7995392	5440	5440
8126464	7488	7168
8257536	4800	4576
8388608	8912	8128
8650752	12224	12144
8912896	8128	7152
9175040	9008	6960
9437184	10144	9472
9699328	4512	4512
9961472	7264	6640
10223616	6512	6016
10485760	4928	4928
10747904	4320	4320
11010048	7760	7328
11272192	5424	5168
11534336	4288	4208
11796480	5408	4896
12058624	4144	3952
12320768	5120	5120
12582912	4608	4608
12845056	4112	4112
13107200	4352	4352
13369344	5248	5248
13631488	3024	2960
13893632	4016	4000
14155776	3072	3072
14417920	3280	3264
14680064	5232	5232
14942208	4640	4560
15204352	5216	5120
15466496	3824	3824
15728640	4608	4592
15990784	4832	4816
16252928	3184	3184
16515072	2176	1984
16777216	5408	5392
17301504	4736	4672
17825792	5488	5472
18350080	5008	5008
18874368	5536	5536
19398656	5584	5472
19922944	5712	5712
20447232	4384	4352
20971520	4624	4560
21495808	4928	4896
22020096	4208	4000
22544384	4064	4000
23068672	3616	3552
23592960	4112	4064
24117248	2688	2672
24641536	3440	3424
25165824	3424	3344
25690112	3792	3792
26214400	4608	4608
26738688	4384	4336
27262976	3408	3392
27787264	4352	4352
28311552	3984	3888
28835840	4064	4048
29360128	3488	3488
29884416	5536	5504
30408704	3216	3216
30932992	3632	3632
31457280	2544	2528
31981568	1712	1696
32505856	1936	1936
33030144	2080	2064
33554432	4368	4352
34603008	4336	4272
35651584	4320	4304
36700160	4640	4560
37748736	4176	4064
38797312	3296	3152
39845888	2464	2432
40894464	2464	2448
41943040	2032	1984
42991616	2544	2496
44040192	2368	2320
45088768	4608	4576
46137344	3088	3088
47185920	3328	3280
48234496	2720	2704
49283072	2176	2160
50331648	2848	2848
51380224	2848	2816
52428800	2208	2192
53477376	2272	2192
54525952	2656	2656
55574528	2592	2528
56623104	2128	2096
57671680	1920	1840
58720256	928	928
59768832	1056	1040
60817408	992	928
61865984	976	976
62914560	816	720
63963136	704	704
65011712	864	848
66060288	912	880
67108864	1696	1664
69206016	1184	1056
71303168	1280	1264
73400320	1776	1728
75497472	1968	1936
77594624	1680	1664
79691776	1728	1712
81788928	1440	1424
83886080	2144	2144
85983232	1712	1696
88080384	1616	1600
90177536	864	864
92274688	976	976
94371840	1184	1184
96468992	352	352
98566144	528	528
100663296	864	864
102760448	480	480
104857600	1024	992
106954752	608	608
109051904	288	288
111149056	224	224
113246208	48	48
115343360	48	32
117440512	112	112
119537664	32	32
121634816	128	128
123731968	96	96
125829120	112	96
127926272	224	224
130023424	144	144
132120576	240	224
134217728	256	256
138412032	80	80
142606336	96	80
146800640	112	112
150994944	176	144
155189248	240	240
159383552	112	96
163577856	224	192
167772160	48	0
171966464	48	0
176160768	16	16
180355072	16	16
184549376	32	32
188743680	0	0
192937984	0	0
197132288	0	0
201326592	0	0
205520896	0	0
209715200	0	0
213909504	0	0
218103808	0	0
222298112	0	0
226492416	0	0
230686720	0	0
234881024	0	0
239075328	0	0
243269632	0	0
247463936	0	0
251658240	0	0
255852544	0	0
260046848	0	0
264241152	0	0
268435456	0	0
276824064	0	0
285212672	0	0
293601280	0	0
301989888	0	0
310378496	0	0
318767104	0	0
327155712	0	0
335544320	0	0
343932928	0	0
352321536	0	0
360710144	0	0
369098752	0	0
377487360	0	0
385875968	0	0
394264576	0	0
402653184	0	0
411041792	0	0
419430400	0	0
427819008	0	0
436207616	0	0
444596224	0	0
452984832	0	0
461373440	0	0
469762048	0	0
478150656	0	0
486539264	0	0
494927872	0	0
503316480	0	0
511705088	0	0
520093696	0	0
528482304	0	0
536870912	0	0
553648128	0	0
570425344	0	0
587202560	0	0
603979776	0	0
620756992	0	0
637534208	0	0
654311424	0	0
671088640	0	0
687865856	0	0
704643072	0	0
721420288	0	0
738197504	0	0
754974720	0	0
771751936	0	0
788529152	0	0
805306368	0	0
822083584	0	0
838860800	0	0
855638016	0	0
872415232	0	0
889192448	0	0
905969664	0	0
922746880	0	0
939524096	0	0
956301312	0	0
973078528	0	0
989855744	0	0
1006632960	0	0
1023410176	0	0
1040187392	0	0
1056964608	0	0
1073741824	0	0
1107296256	0	0
1140850688	0	0
1174405120	0	0
1207959552	0	0
1241513984	0	0
1275068416	0	0
1308622848	0	0
1342177280	0	0
1375731712	0	0
1409286144	0	0
1442840576	0	0
1476395008	0	0
1509949440	0	0
1543503872	0	0
1577058304	0	0
1610612736	0	0
1644167168	0	0
1677721600	0	0
1711276032	0	0
1744830464	0	0
1778384896	0	0
1811939328	0	0
1845493760	0	0
1879048192	0	0
1912602624	0	0
1946157056	0	0
1979711488	0	0
2013265920	0	0
2046820352	0	0
2080374784	0	0
2113929216	0	0
2147483648	0	0
2214592512	0	0
2281701376	0	0
2348810240	0	0
2415919104	0	0
2483027968	0	0
2550136832	0	0
2617245696	0	0
2684354560	0	0
2751463424	0	0
2818572288	0	0
2885681152	0	0
2952790016	0	0
3019898880	0	0
3087007744	0	0
3154116608	0	0
3221225472	0	0
3288334336	0	0
3355443200	0	0
3422552064	0	0
3489660928	0	0
3556769792	0	0
3623878656	0	0
3690987520	0	0
3758096384	0	0
3825205248	0	0
3892314112	0	0
3959422976	0	0
4026531840	0	0
4093640704	0	0
4160749568	0	0
4227858432	0	0
~~~~~~~~~~Reuse Distance Profiler output end~~~~~~~~~~

Sampler size:11603

DRAM Statistics
 CHANNEL 0
 RQ ROW_BUFFER_HIT:      39688  ROW_BUFFER_MISS:     433081
 DBUS AVG_CONGESTED_CYCLE:    3.76123
 WQ ROW_BUFFER_HIT:       5228  ROW_BUFFER_MISS:      23986  FULL:          0


CPU 0 Branch Prediction Accuracy: 92.0324% MPKI: 7.77846 Average ROB Occupancy at Mispredict: 140.464
Branch type MPKI
BRANCH_DIRECT_JUMP: 5.06667e-05
BRANCH_INDIRECT: 6.73333e-05
BRANCH_CONDITIONAL: 7.77815
BRANCH_DIRECT_CALL: 7.6e-05
BRANCH_INDIRECT_CALL: 5.4e-05
BRANCH_RETURN: 7.06667e-05

