
*** ChampSim Multicore Out-of-Order Simulator ***

Warmup Instructions: 50000000
Simulation Instructions: 1500000000
Number of CPUs: 1
Off-chip DRAM Size: 4 GiB Channels: 1 Width: 64-bit Data Rate: 3200 MT/s

VirtualMemory physical capacity: 8588881920 num_ppages: 2096895
VirtualMemory page size: 4096 log2_page_size: 12

CPU 0 runs /s/traces/champsim_traces/483.xalancbmk-127B.champsimtrace.xz
CPU 0 Bimodal branch predictor
Basic BTB sets: 1024 ways: 8 indirect buffer size: 4096 RAS size: 64
Initializing LRU.
Initializing LRU.
Initializing LRU.
Initializing LRU.
Initializing rdLRU.
Initializing LRU.
Heartbeat CPU 0 instructions: 2000003 cycles: 572024 heartbeat IPC: 3.49636 cumulative IPC: 3.49636 (Simulation time: 0 hr 1 min 20 sec) 
Heartbeat CPU 0 instructions: 4000004 cycles: 1146093 heartbeat IPC: 3.4839 cumulative IPC: 3.49012 (Simulation time: 0 hr 2 min 47 sec) 
Heartbeat CPU 0 instructions: 6000003 cycles: 1720145 heartbeat IPC: 3.484 cumulative IPC: 3.48808 (Simulation time: 0 hr 4 min 12 sec) 
Heartbeat CPU 0 instructions: 8000002 cycles: 2291984 heartbeat IPC: 3.49749 cumulative IPC: 3.49043 (Simulation time: 0 hr 5 min 33 sec) 
Heartbeat CPU 0 instructions: 10000000 cycles: 2864263 heartbeat IPC: 3.4948 cumulative IPC: 3.4913 (Simulation time: 0 hr 6 min 52 sec) 
Heartbeat CPU 0 instructions: 12000004 cycles: 3439481 heartbeat IPC: 3.47695 cumulative IPC: 3.4889 (Simulation time: 0 hr 8 min 10 sec) 
Heartbeat CPU 0 instructions: 14000004 cycles: 4014686 heartbeat IPC: 3.47702 cumulative IPC: 3.4872 (Simulation time: 0 hr 9 min 28 sec) 
Heartbeat CPU 0 instructions: 16000004 cycles: 4579067 heartbeat IPC: 3.54371 cumulative IPC: 3.49416 (Simulation time: 0 hr 10 min 45 sec) 
Heartbeat CPU 0 instructions: 18000003 cycles: 5150218 heartbeat IPC: 3.5017 cumulative IPC: 3.495 (Simulation time: 0 hr 12 min 9 sec) 
Heartbeat CPU 0 instructions: 20000000 cycles: 5724282 heartbeat IPC: 3.48393 cumulative IPC: 3.49389 (Simulation time: 0 hr 13 min 27 sec) 
Heartbeat CPU 0 instructions: 22000003 cycles: 6292290 heartbeat IPC: 3.52108 cumulative IPC: 3.49634 (Simulation time: 0 hr 14 min 50 sec) 
Heartbeat CPU 0 instructions: 24000001 cycles: 6863689 heartbeat IPC: 3.50018 cumulative IPC: 3.49666 (Simulation time: 0 hr 16 min 8 sec) 
Heartbeat CPU 0 instructions: 26000000 cycles: 7437754 heartbeat IPC: 3.48392 cumulative IPC: 3.49568 (Simulation time: 0 hr 17 min 29 sec) 
Heartbeat CPU 0 instructions: 28000001 cycles: 8008868 heartbeat IPC: 3.50193 cumulative IPC: 3.49612 (Simulation time: 0 hr 18 min 50 sec) 
Heartbeat CPU 0 instructions: 30000001 cycles: 8582924 heartbeat IPC: 3.48398 cumulative IPC: 3.49531 (Simulation time: 0 hr 20 min 13 sec) 
Heartbeat CPU 0 instructions: 32000002 cycles: 9154082 heartbeat IPC: 3.50166 cumulative IPC: 3.49571 (Simulation time: 0 hr 21 min 31 sec) 
Heartbeat CPU 0 instructions: 34000001 cycles: 9728155 heartbeat IPC: 3.48388 cumulative IPC: 3.49501 (Simulation time: 0 hr 22 min 52 sec) 
Heartbeat CPU 0 instructions: 36000002 cycles: 10302218 heartbeat IPC: 3.48394 cumulative IPC: 3.49439 (Simulation time: 0 hr 24 min 11 sec) 
Heartbeat CPU 0 instructions: 38000000 cycles: 10892419 heartbeat IPC: 3.38867 cumulative IPC: 3.48866 (Simulation time: 0 hr 25 min 30 sec) 
Heartbeat CPU 0 instructions: 40000002 cycles: 11464456 heartbeat IPC: 3.49628 cumulative IPC: 3.48904 (Simulation time: 0 hr 26 min 49 sec) 
Heartbeat CPU 0 instructions: 42000001 cycles: 12038531 heartbeat IPC: 3.48386 cumulative IPC: 3.4888 (Simulation time: 0 hr 28 min 6 sec) 
Heartbeat CPU 0 instructions: 44000002 cycles: 12609777 heartbeat IPC: 3.50112 cumulative IPC: 3.48936 (Simulation time: 0 hr 29 min 23 sec) 
Heartbeat CPU 0 instructions: 46000002 cycles: 13168946 heartbeat IPC: 3.57674 cumulative IPC: 3.49307 (Simulation time: 0 hr 30 min 35 sec) 
Heartbeat CPU 0 instructions: 48000002 cycles: 13746490 heartbeat IPC: 3.46294 cumulative IPC: 3.4918 (Simulation time: 0 hr 31 min 45 sec) 
Heartbeat CPU 0 instructions: 50000001 cycles: 14317645 heartbeat IPC: 3.50167 cumulative IPC: 3.49219 (Simulation time: 0 hr 32 min 57 sec) 

Warmup complete CPU 0 instructions: 50000001 cycles: 14317645 (Simulation time: 0 hr 32 min 57 sec) 

Heartbeat CPU 0 instructions: 52000001 cycles: 21529600 heartbeat IPC: 0.277317 cumulative IPC: 0.277317 (Simulation time: 0 hr 34 min 57 sec) 

Region of Interest Statistics
cpu0_DTLB TOTAL     ACCESS:     445100  HIT:     440567  MISS:       4533
cpu0_DTLB LOAD      ACCESS:     419135  HIT:     414602  MISS:       4533
cpu0_DTLB RFO       ACCESS:      25965  HIT:      25965  MISS:          0
cpu0_DTLB PREFETCH  ACCESS:          0  HIT:          0  MISS:          0
cpu0_DTLB WRITEBACK ACCESS:          0  HIT:          0  MISS:          0
cpu0_ITLB TOTAL     ACCESS:     279538  HIT:     279538  MISS:          0
cpu0_ITLB LOAD      ACCESS:     279538  HIT:     279538  MISS:          0
cpu0_ITLB RFO       ACCESS:          0  HIT:          0  MISS:          0
cpu0_ITLB PREFETCH  ACCESS:          0  HIT:          0  MISS:          0
cpu0_ITLB WRITEBACK ACCESS:          0  HIT:          0  MISS:          0
cpu0_L1I TOTAL     ACCESS:         10  HIT:         10  MISS:          0
cpu0_L1I LOAD      ACCESS:         10  HIT:         10  MISS:          0
cpu0_L1I RFO       ACCESS:          0  HIT:          0  MISS:          0
cpu0_L1I PREFETCH  ACCESS:          0  HIT:          0  MISS:          0
cpu0_L1I WRITEBACK ACCESS:          0  HIT:          0  MISS:          0
cpu0_STLB TOTAL     ACCESS:       4533  HIT:        103  MISS:       4430
cpu0_STLB LOAD      ACCESS:       4533  HIT:        103  MISS:       4430
cpu0_STLB RFO       ACCESS:          0  HIT:          0  MISS:          0
cpu0_STLB PREFETCH  ACCESS:          0  HIT:          0  MISS:          0
cpu0_STLB WRITEBACK ACCESS:          0  HIT:          0  MISS:          0
cpu0_L1D TOTAL     ACCESS:     372521  HIT:     315756  MISS:      56765
cpu0_L1D LOAD      ACCESS:     316272  HIT:     259608  MISS:      56664
cpu0_L1D RFO       ACCESS:      51938  HIT:      51938  MISS:          0
cpu0_L1D PREFETCH  ACCESS:          0  HIT:          0  MISS:          0
cpu0_L1D WRITEBACK ACCESS:          0  HIT:          0  MISS:          0
cpu0_L2C TOTAL     ACCESS:      56765  HIT:        101  MISS:      56664
cpu0_L2C LOAD      ACCESS:      56664  HIT:         10  MISS:      56654
cpu0_L2C RFO       ACCESS:          0  HIT:          0  MISS:          0
cpu0_L2C PREFETCH  ACCESS:          0  HIT:          0  MISS:          0
cpu0_L2C WRITEBACK ACCESS:          0  HIT:          0  MISS:          0
LLC TOTAL     ACCESS:      56664  HIT:          4  MISS:      56660
LLC LOAD      ACCESS:      56654  HIT:          1  MISS:      56653
LLC RFO       ACCESS:          0  HIT:          0  MISS:          0
LLC PREFETCH  ACCESS:          0  HIT:          0  MISS:          0
LLC WRITEBACK ACCESS:          0  HIT:          0  MISS:          0
Heartbeat CPU 0 instructions: 54000002 cycles: 28578809 heartbeat IPC: 0.28372 cumulative IPC: 0.280482 (Simulation time: 0 hr 36 min 59 sec) 

Region of Interest Statistics
cpu0_DTLB TOTAL     ACCESS:     891715  HIT:     879835  MISS:      11880
cpu0_DTLB LOAD      ACCESS:     828229  HIT:     816586  MISS:      11643
cpu0_DTLB RFO       ACCESS:      63486  HIT:      63249  MISS:        237
cpu0_DTLB PREFETCH  ACCESS:          0  HIT:          0  MISS:          0
cpu0_DTLB WRITEBACK ACCESS:          0  HIT:          0  MISS:          0
cpu0_ITLB TOTAL     ACCESS:     552441  HIT:     551565  MISS:        876
cpu0_ITLB LOAD      ACCESS:     552441  HIT:     551565  MISS:        876
cpu0_ITLB RFO       ACCESS:          0  HIT:          0  MISS:          0
cpu0_ITLB PREFETCH  ACCESS:          0  HIT:          0  MISS:          0
cpu0_ITLB WRITEBACK ACCESS:          0  HIT:          0  MISS:          0
cpu0_L1I TOTAL     ACCESS:      22416  HIT:      17922  MISS:       4494
cpu0_L1I LOAD      ACCESS:      22416  HIT:      17922  MISS:       4494
cpu0_L1I RFO       ACCESS:          0  HIT:          0  MISS:          0
cpu0_L1I PREFETCH  ACCESS:          0  HIT:          0  MISS:          0
cpu0_L1I WRITEBACK ACCESS:          0  HIT:          0  MISS:          0
cpu0_STLB TOTAL     ACCESS:      12756  HIT:       2292  MISS:      10464
cpu0_STLB LOAD      ACCESS:      12519  HIT:       2111  MISS:      10408
cpu0_STLB RFO       ACCESS:        237  HIT:        181  MISS:         56
cpu0_STLB PREFETCH  ACCESS:          0  HIT:          0  MISS:          0
cpu0_STLB WRITEBACK ACCESS:          0  HIT:          0  MISS:          0
cpu0_L1D TOTAL     ACCESS:     762671  HIT:     652167  MISS:     110504
cpu0_L1D LOAD      ACCESS:     625977  HIT:     516024  MISS:     109953
cpu0_L1D RFO       ACCESS:     127399  HIT:     127093  MISS:        306
cpu0_L1D PREFETCH  ACCESS:          0  HIT:          0  MISS:          0
cpu0_L1D WRITEBACK ACCESS:          0  HIT:          0  MISS:          0
cpu0_L2C TOTAL     ACCESS:     115762  HIT:       3792  MISS:     111970
cpu0_L2C LOAD      ACCESS:     114447  HIT:       2775  MISS:     111672
cpu0_L2C RFO       ACCESS:        306  HIT:         70  MISS:        236
cpu0_L2C PREFETCH  ACCESS:          0  HIT:          0  MISS:          0
cpu0_L2C WRITEBACK ACCESS:        764  HIT:        749  MISS:         15
LLC TOTAL     ACCESS:     112262  HIT:        461  MISS:     111801
LLC LOAD      ACCESS:     111672  HIT:        104  MISS:     111568
LLC RFO       ACCESS:        236  HIT:         48  MISS:        188
LLC PREFETCH  ACCESS:          0  HIT:          0  MISS:          0
LLC WRITEBACK ACCESS:        307  HIT:        300  MISS:          7
Heartbeat CPU 0 instructions: 56000002 cycles: 35732759 heartbeat IPC: 0.279566 cumulative IPC: 0.280176 (Simulation time: 0 hr 38 min 57 sec) 

Region of Interest Statistics
cpu0_DTLB TOTAL     ACCESS:    1339389  HIT:    1322915  MISS:      16474
cpu0_DTLB LOAD      ACCESS:    1250500  HIT:    1234263  MISS:      16237
cpu0_DTLB RFO       ACCESS:      88889  HIT:      88652  MISS:        237
cpu0_DTLB PREFETCH  ACCESS:          0  HIT:          0  MISS:          0
cpu0_DTLB WRITEBACK ACCESS:          0  HIT:          0  MISS:          0
cpu0_ITLB TOTAL     ACCESS:     837040  HIT:     836164  MISS:        876
cpu0_ITLB LOAD      ACCESS:     837040  HIT:     836164  MISS:        876
cpu0_ITLB RFO       ACCESS:          0  HIT:          0  MISS:          0
cpu0_ITLB PREFETCH  ACCESS:          0  HIT:          0  MISS:          0
cpu0_ITLB WRITEBACK ACCESS:          0  HIT:          0  MISS:          0
cpu0_L1I TOTAL     ACCESS:      22416  HIT:      17922  MISS:       4494
cpu0_L1I LOAD      ACCESS:      22416  HIT:      17922  MISS:       4494
cpu0_L1I RFO       ACCESS:          0  HIT:          0  MISS:          0
cpu0_L1I PREFETCH  ACCESS:          0  HIT:          0  MISS:          0
cpu0_L1I WRITEBACK ACCESS:          0  HIT:          0  MISS:          0
cpu0_STLB TOTAL     ACCESS:      17350  HIT:       2405  MISS:      14945
cpu0_STLB LOAD      ACCESS:      17113  HIT:       2224  MISS:      14889
cpu0_STLB RFO       ACCESS:        237  HIT:        181  MISS:         56
cpu0_STLB PREFETCH  ACCESS:          0  HIT:          0  MISS:          0
cpu0_STLB WRITEBACK ACCESS:          0  HIT:          0  MISS:          0
cpu0_L1D TOTAL     ACCESS:    1128044  HIT:     962005  MISS:     166039
cpu0_L1D LOAD      ACCESS:     936213  HIT:     770814  MISS:     165399
cpu0_L1D RFO       ACCESS:     178207  HIT:     177901  MISS:        306
cpu0_L1D PREFETCH  ACCESS:          0  HIT:          0  MISS:          0
cpu0_L1D WRITEBACK ACCESS:          0  HIT:          0  MISS:          0
cpu0_L2C TOTAL     ACCESS:     171312  HIT:       3894  MISS:     167418
cpu0_L2C LOAD      ACCESS:     169893  HIT:       2785  MISS:     167108
cpu0_L2C RFO       ACCESS:        306  HIT:         70  MISS:        236
cpu0_L2C PREFETCH  ACCESS:          0  HIT:          0  MISS:          0
cpu0_L2C WRITEBACK ACCESS:        779  HIT:        764  MISS:         15
LLC TOTAL     ACCESS:     168013  HIT:        762  MISS:     167251
LLC LOAD      ACCESS:     167108  HIT:        105  MISS:     167003
LLC RFO       ACCESS:        236  HIT:         48  MISS:        188
LLC PREFETCH  ACCESS:          0  HIT:          0  MISS:          0
LLC WRITEBACK ACCESS:        610  HIT:        596  MISS:         14
Heartbeat CPU 0 instructions: 58000003 cycles: 42766264 heartbeat IPC: 0.284353 cumulative IPC: 0.281209 (Simulation time: 0 hr 40 min 56 sec) 

Region of Interest Statistics
cpu0_DTLB TOTAL     ACCESS:    1786703  HIT:    1764402  MISS:      22301
cpu0_DTLB LOAD      ACCESS:    1666320  HIT:    1644370  MISS:      21950
cpu0_DTLB RFO       ACCESS:     120383  HIT:     120032  MISS:        351
cpu0_DTLB PREFETCH  ACCESS:          0  HIT:          0  MISS:          0
cpu0_DTLB WRITEBACK ACCESS:          0  HIT:          0  MISS:          0
cpu0_ITLB TOTAL     ACCESS:    1115782  HIT:    1114468  MISS:       1314
cpu0_ITLB LOAD      ACCESS:    1115782  HIT:    1114468  MISS:       1314
cpu0_ITLB RFO       ACCESS:          0  HIT:          0  MISS:          0
cpu0_ITLB PREFETCH  ACCESS:          0  HIT:          0  MISS:          0
cpu0_ITLB WRITEBACK ACCESS:          0  HIT:          0  MISS:          0
cpu0_L1I TOTAL     ACCESS:      33679  HIT:      26935  MISS:       6744
cpu0_L1I LOAD      ACCESS:      33679  HIT:      26935  MISS:       6744
cpu0_L1I RFO       ACCESS:          0  HIT:          0  MISS:          0
cpu0_L1I PREFETCH  ACCESS:          0  HIT:          0  MISS:          0
cpu0_L1I WRITEBACK ACCESS:          0  HIT:          0  MISS:          0
cpu0_STLB TOTAL     ACCESS:      23615  HIT:       3529  MISS:      20086
cpu0_STLB LOAD      ACCESS:      23264  HIT:       3261  MISS:      20003
cpu0_STLB RFO       ACCESS:        351  HIT:        268  MISS:         83
cpu0_STLB PREFETCH  ACCESS:          0  HIT:          0  MISS:          0
cpu0_STLB WRITEBACK ACCESS:          0  HIT:          0  MISS:          0
cpu0_L1D TOTAL     ACCESS:    1505456  HIT:    1284774  MISS:     220682
cpu0_L1D LOAD      ACCESS:    1245883  HIT:    1026115  MISS:     219768
cpu0_L1D RFO       ACCESS:     241364  HIT:     240909  MISS:        455
cpu0_L1D PREFETCH  ACCESS:          0  HIT:          0  MISS:          0
cpu0_L1D WRITEBACK ACCESS:          0  HIT:          0  MISS:          0
cpu0_L2C TOTAL     ACCESS:     228605  HIT:       5839  MISS:     222766
cpu0_L2C LOAD      ACCESS:     226512  HIT:       4199  MISS:     222313
cpu0_L2C RFO       ACCESS:        455  HIT:        106  MISS:        349
cpu0_L2C PREFETCH  ACCESS:          0  HIT:          0  MISS:          0
cpu0_L2C WRITEBACK ACCESS:       1179  HIT:       1157  MISS:         22
LLC TOTAL     ACCESS:     223380  HIT:        791  MISS:     222589
LLC LOAD      ACCESS:     222314  HIT:        107  MISS:     222207
LLC RFO       ACCESS:        349  HIT:         48  MISS:        301
LLC PREFETCH  ACCESS:          0  HIT:          0  MISS:          0
LLC WRITEBACK ACCESS:        635  HIT:        621  MISS:         14
Heartbeat CPU 0 instructions: 60000000 cycles: 49925911 heartbeat IPC: 0.279343 cumulative IPC: 0.280834 (Simulation time: 0 hr 42 min 59 sec) 

Region of Interest Statistics
cpu0_DTLB TOTAL     ACCESS:    2234704  HIT:    2207823  MISS:      26881
cpu0_DTLB LOAD      ACCESS:    2088899  HIT:    2062369  MISS:      26530
cpu0_DTLB RFO       ACCESS:     145805  HIT:     145454  MISS:        351
cpu0_DTLB PREFETCH  ACCESS:          0  HIT:          0  MISS:          0
cpu0_DTLB WRITEBACK ACCESS:          0  HIT:          0  MISS:          0
cpu0_ITLB TOTAL     ACCESS:    1400374  HIT:    1399060  MISS:       1314
cpu0_ITLB LOAD      ACCESS:    1400374  HIT:    1399060  MISS:       1314
cpu0_ITLB RFO       ACCESS:          0  HIT:          0  MISS:          0
cpu0_ITLB PREFETCH  ACCESS:          0  HIT:          0  MISS:          0
cpu0_ITLB WRITEBACK ACCESS:          0  HIT:          0  MISS:          0
cpu0_L1I TOTAL     ACCESS:      33679  HIT:      26935  MISS:       6744
cpu0_L1I LOAD      ACCESS:      33679  HIT:      26935  MISS:       6744
cpu0_L1I RFO       ACCESS:          0  HIT:          0  MISS:          0
cpu0_L1I PREFETCH  ACCESS:          0  HIT:          0  MISS:          0
cpu0_L1I WRITEBACK ACCESS:          0  HIT:          0  MISS:          0
cpu0_STLB TOTAL     ACCESS:      28195  HIT:       3652  MISS:      24543
cpu0_STLB LOAD      ACCESS:      27844  HIT:       3384  MISS:      24460
cpu0_STLB RFO       ACCESS:        351  HIT:        268  MISS:         83
cpu0_STLB PREFETCH  ACCESS:          0  HIT:          0  MISS:          0
cpu0_STLB WRITEBACK ACCESS:          0  HIT:          0  MISS:          0
cpu0_L1D TOTAL     ACCESS:    1870810  HIT:    1594553  MISS:     276257
cpu0_L1D LOAD      ACCESS:    1556084  HIT:    1280836  MISS:     275248
cpu0_L1D RFO       ACCESS:     292208  HIT:     291753  MISS:        455
cpu0_L1D PREFETCH  ACCESS:          0  HIT:          0  MISS:          0
cpu0_L1D WRITEBACK ACCESS:          0  HIT:          0  MISS:          0
cpu0_L2C TOTAL     ACCESS:     284180  HIT:       5929  MISS:     278251
cpu0_L2C LOAD      ACCESS:     281992  HIT:       4210  MISS:     277782
cpu0_L2C RFO       ACCESS:        455  HIT:        106  MISS:        349
cpu0_L2C PREFETCH  ACCESS:          0  HIT:          0  MISS:          0
cpu0_L2C WRITEBACK ACCESS:       1179  HIT:       1157  MISS:         22
LLC TOTAL     ACCESS:     279142  HIT:       1069  MISS:     278073
LLC LOAD      ACCESS:     277782  HIT:        108  MISS:     277674
LLC RFO       ACCESS:        349  HIT:         48  MISS:        301
LLC PREFETCH  ACCESS:          0  HIT:          0  MISS:          0
LLC WRITEBACK ACCESS:        913  HIT:        892  MISS:         21
Heartbeat CPU 0 instructions: 62000002 cycles: 57101245 heartbeat IPC: 0.278733 cumulative IPC: 0.280481 (Simulation time: 0 hr 45 min 7 sec) 

Region of Interest Statistics
cpu0_DTLB TOTAL     ACCESS:    2675545  HIT:    2637799  MISS:      37746
cpu0_DTLB LOAD      ACCESS:    2486384  HIT:    2449329  MISS:      37055
cpu0_DTLB RFO       ACCESS:     189161  HIT:     188470  MISS:        691
cpu0_DTLB PREFETCH  ACCESS:          0  HIT:          0  MISS:          0
cpu0_DTLB WRITEBACK ACCESS:          0  HIT:          0  MISS:          0
cpu0_ITLB TOTAL     ACCESS:    1664459  HIT:    1661966  MISS:       2493
cpu0_ITLB LOAD      ACCESS:    1664459  HIT:    1661966  MISS:       2493
cpu0_ITLB RFO       ACCESS:          0  HIT:          0  MISS:          0
cpu0_ITLB PREFETCH  ACCESS:          0  HIT:          0  MISS:          0
cpu0_ITLB WRITEBACK ACCESS:          0  HIT:          0  MISS:          0
cpu0_L1I TOTAL     ACCESS:      64266  HIT:      51324  MISS:      12942
cpu0_L1I LOAD      ACCESS:      64266  HIT:      51324  MISS:      12942
cpu0_L1I RFO       ACCESS:          0  HIT:          0  MISS:          0
cpu0_L1I PREFETCH  ACCESS:          0  HIT:          0  MISS:          0
cpu0_L1I WRITEBACK ACCESS:          0  HIT:          0  MISS:          0
cpu0_STLB TOTAL     ACCESS:      40239  HIT:       6941  MISS:      33298
cpu0_STLB LOAD      ACCESS:      39548  HIT:       6402  MISS:      33146
cpu0_STLB RFO       ACCESS:        691  HIT:        539  MISS:        152
cpu0_STLB PREFETCH  ACCESS:          0  HIT:          0  MISS:          0
cpu0_STLB WRITEBACK ACCESS:          0  HIT:          0  MISS:          0
cpu0_L1D TOTAL     ACCESS:    2279833  HIT:    1946508  MISS:     333325
cpu0_L1D LOAD      ACCESS:    1870724  HIT:    1539003  MISS:     331721
cpu0_L1D RFO       ACCESS:     379419  HIT:     378527  MISS:        892
cpu0_L1D PREFETCH  ACCESS:          0  HIT:          0  MISS:          0
cpu0_L1D WRITEBACK ACCESS:          0  HIT:          0  MISS:          0
cpu0_L2C TOTAL     ACCESS:     348615  HIT:      11149  MISS:     337466
cpu0_L2C LOAD      ACCESS:     344663  HIT:       8073  MISS:     336590
cpu0_L2C RFO       ACCESS:        892  HIT:        207  MISS:        685
cpu0_L2C PREFETCH  ACCESS:          0  HIT:          0  MISS:          0
cpu0_L2C WRITEBACK ACCESS:       2348  HIT:       2306  MISS:         42
LLC TOTAL     ACCESS:     339233  HIT:       8553  MISS:     330680
LLC LOAD      ACCESS:     336590  HIT:       6543  MISS:     330047
LLC RFO       ACCESS:        685  HIT:        217  MISS:        468
LLC PREFETCH  ACCESS:          0  HIT:          0  MISS:          0
LLC WRITEBACK ACCESS:       1809  HIT:       1757  MISS:         52
Heartbeat CPU 0 instructions: 64000002 cycles: 65530380 heartbeat IPC: 0.237272 cumulative IPC: 0.27337 (Simulation time: 0 hr 47 min 27 sec) 

Region of Interest Statistics
cpu0_DTLB TOTAL     ACCESS:    3110602  HIT:    3055057  MISS:      55545
cpu0_DTLB LOAD      ACCESS:    2880389  HIT:    2825865  MISS:      54524
cpu0_DTLB RFO       ACCESS:     230213  HIT:     229192  MISS:       1021
cpu0_DTLB PREFETCH  ACCESS:          0  HIT:          0  MISS:          0
cpu0_DTLB WRITEBACK ACCESS:          0  HIT:          0  MISS:          0
cpu0_ITLB TOTAL     ACCESS:    1929656  HIT:    1926133  MISS:       3523
cpu0_ITLB LOAD      ACCESS:    1929656  HIT:    1926133  MISS:       3523
cpu0_ITLB RFO       ACCESS:          0  HIT:          0  MISS:          0
cpu0_ITLB PREFETCH  ACCESS:          0  HIT:          0  MISS:          0
cpu0_ITLB WRITEBACK ACCESS:          0  HIT:          0  MISS:          0
cpu0_L1I TOTAL     ACCESS:      92588  HIT:      74363  MISS:      18225
cpu0_L1I LOAD      ACCESS:      92588  HIT:      74363  MISS:      18225
cpu0_L1I RFO       ACCESS:          0  HIT:          0  MISS:          0
cpu0_L1I PREFETCH  ACCESS:          0  HIT:          0  MISS:          0
cpu0_L1I WRITEBACK ACCESS:          0  HIT:          0  MISS:          0
cpu0_STLB TOTAL     ACCESS:      59068  HIT:       9981  MISS:      49087
cpu0_STLB LOAD      ACCESS:      58047  HIT:       9164  MISS:      48883
cpu0_STLB RFO       ACCESS:       1021  HIT:        817  MISS:        204
cpu0_STLB PREFETCH  ACCESS:          0  HIT:          0  MISS:          0
cpu0_STLB WRITEBACK ACCESS:          0  HIT:          0  MISS:          0
cpu0_L1D TOTAL     ACCESS:    2690442  HIT:    2299176  MISS:     391266
cpu0_L1D LOAD      ACCESS:    2185307  HIT:    1796151  MISS:     389156
cpu0_L1D RFO       ACCESS:     461827  HIT:     460565  MISS:       1262
cpu0_L1D PREFETCH  ACCESS:          0  HIT:          0  MISS:          0
cpu0_L1D WRITEBACK ACCESS:          0  HIT:          0  MISS:          0
cpu0_L2C TOTAL     ACCESS:     412715  HIT:      15961  MISS:     396754
cpu0_L2C LOAD      ACCESS:     407381  HIT:      11830  MISS:     395551
cpu0_L2C RFO       ACCESS:       1262  HIT:        307  MISS:        955
cpu0_L2C PREFETCH  ACCESS:          0  HIT:          0  MISS:          0
cpu0_L2C WRITEBACK ACCESS:       3224  HIT:       3167  MISS:         57
LLC TOTAL     ACCESS:     399036  HIT:       9761  MISS:     389275
LLC LOAD      ACCESS:     395551  HIT:       7082  MISS:     388469
LLC RFO       ACCESS:        955  HIT:        353  MISS:        602
LLC PREFETCH  ACCESS:          0  HIT:          0  MISS:          0
LLC WRITEBACK ACCESS:       2339  HIT:       2278  MISS:         61
Heartbeat CPU 0 instructions: 66000000 cycles: 72629205 heartbeat IPC: 0.281736 cumulative IPC: 0.274388 (Simulation time: 0 hr 49 min 27 sec) 

Region of Interest Statistics
cpu0_DTLB TOTAL     ACCESS:    3550244  HIT:    3484297  MISS:      65947
cpu0_DTLB LOAD      ACCESS:    3290599  HIT:    3225822  MISS:      64777
cpu0_DTLB RFO       ACCESS:     259645  HIT:     258475  MISS:       1170
cpu0_DTLB PREFETCH  ACCESS:          0  HIT:          0  MISS:          0
cpu0_DTLB WRITEBACK ACCESS:          0  HIT:          0  MISS:          0
cpu0_ITLB TOTAL     ACCESS:    2207924  HIT:    2203897  MISS:       4027
cpu0_ITLB LOAD      ACCESS:    2207924  HIT:    2203897  MISS:       4027
cpu0_ITLB RFO       ACCESS:          0  HIT:          0  MISS:          0
cpu0_ITLB PREFETCH  ACCESS:          0  HIT:          0  MISS:          0
cpu0_ITLB WRITEBACK ACCESS:          0  HIT:          0  MISS:          0
cpu0_L1I TOTAL     ACCESS:     105459  HIT:      84741  MISS:      20718
cpu0_L1I LOAD      ACCESS:     105459  HIT:      84741  MISS:      20718
cpu0_L1I RFO       ACCESS:          0  HIT:          0  MISS:          0
cpu0_L1I PREFETCH  ACCESS:          0  HIT:          0  MISS:          0
cpu0_L1I WRITEBACK ACCESS:          0  HIT:          0  MISS:          0
cpu0_STLB TOTAL     ACCESS:      69974  HIT:      11456  MISS:      58518
cpu0_STLB LOAD      ACCESS:      68804  HIT:      10515  MISS:      58289
cpu0_STLB RFO       ACCESS:       1170  HIT:        941  MISS:        229
cpu0_STLB PREFETCH  ACCESS:          0  HIT:          0  MISS:          0
cpu0_STLB WRITEBACK ACCESS:          0  HIT:          0  MISS:          0
cpu0_L1D TOTAL     ACCESS:    3058254  HIT:    2615784  MISS:     442470
cpu0_L1D LOAD      ACCESS:    2485539  HIT:    2045473  MISS:     440066
cpu0_L1D RFO       ACCESS:     521076  HIT:     519620  MISS:       1456
cpu0_L1D PREFETCH  ACCESS:          0  HIT:          0  MISS:          0
cpu0_L1D WRITEBACK ACCESS:          0  HIT:          0  MISS:          0
cpu0_L2C TOTAL     ACCESS:     466879  HIT:      18353  MISS:     448526
cpu0_L2C LOAD      ACCESS:     460784  HIT:      13636  MISS:     447148
cpu0_L2C RFO       ACCESS:       1456  HIT:        363  MISS:       1093
cpu0_L2C PREFETCH  ACCESS:          0  HIT:          0  MISS:          0
cpu0_L2C WRITEBACK ACCESS:       3691  HIT:       3626  MISS:         65
LLC TOTAL     ACCESS:     451257  HIT:      10579  MISS:     440678
LLC LOAD      ACCESS:     447148  HIT:       7348  MISS:     439800
LLC RFO       ACCESS:       1093  HIT:        441  MISS:        652
LLC PREFETCH  ACCESS:          0  HIT:          0  MISS:          0
LLC WRITEBACK ACCESS:       2796  HIT:       2728  MISS:         68
Heartbeat CPU 0 instructions: 68000001 cycles: 79758017 heartbeat IPC: 0.280552 cumulative IPC: 0.27506 (Simulation time: 0 hr 51 min 30 sec) 

Region of Interest Statistics
cpu0_DTLB TOTAL     ACCESS:    3998312  HIT:    3927811  MISS:      70501
cpu0_DTLB LOAD      ACCESS:    3713249  HIT:    3643918  MISS:      69331
cpu0_DTLB RFO       ACCESS:     285063  HIT:     283893  MISS:       1170
cpu0_DTLB PREFETCH  ACCESS:          0  HIT:          0  MISS:          0
cpu0_DTLB WRITEBACK ACCESS:          0  HIT:          0  MISS:          0
cpu0_ITLB TOTAL     ACCESS:    2492532  HIT:    2488505  MISS:       4027
cpu0_ITLB LOAD      ACCESS:    2492532  HIT:    2488505  MISS:       4027
cpu0_ITLB RFO       ACCESS:          0  HIT:          0  MISS:          0
cpu0_ITLB PREFETCH  ACCESS:          0  HIT:          0  MISS:          0
cpu0_ITLB WRITEBACK ACCESS:          0  HIT:          0  MISS:          0
cpu0_L1I TOTAL     ACCESS:     105459  HIT:      84741  MISS:      20718
cpu0_L1I LOAD      ACCESS:     105459  HIT:      84741  MISS:      20718
cpu0_L1I RFO       ACCESS:          0  HIT:          0  MISS:          0
cpu0_L1I PREFETCH  ACCESS:          0  HIT:          0  MISS:          0
cpu0_L1I WRITEBACK ACCESS:          0  HIT:          0  MISS:          0
cpu0_STLB TOTAL     ACCESS:      74528  HIT:      11549  MISS:      62979
cpu0_STLB LOAD      ACCESS:      73358  HIT:      10608  MISS:      62750
cpu0_STLB RFO       ACCESS:       1170  HIT:        941  MISS:        229
cpu0_STLB PREFETCH  ACCESS:          0  HIT:          0  MISS:          0
cpu0_STLB WRITEBACK ACCESS:          0  HIT:          0  MISS:          0
cpu0_L1D TOTAL     ACCESS:    3424118  HIT:    2926051  MISS:     498067
cpu0_L1D LOAD      ACCESS:    2796247  HIT:    2300680  MISS:     495567
cpu0_L1D RFO       ACCESS:     571911  HIT:     570455  MISS:       1456
cpu0_L1D PREFETCH  ACCESS:          0  HIT:          0  MISS:          0
cpu0_L1D WRITEBACK ACCESS:          0  HIT:          0  MISS:          0
cpu0_L2C TOTAL     ACCESS:     522476  HIT:      18447  MISS:     504029
cpu0_L2C LOAD      ACCESS:     516285  HIT:      13645  MISS:     502640
cpu0_L2C RFO       ACCESS:       1456  HIT:        363  MISS:       1093
cpu0_L2C PREFETCH  ACCESS:          0  HIT:          0  MISS:          0
cpu0_L2C WRITEBACK ACCESS:       3691  HIT:       3626  MISS:         65
LLC TOTAL     ACCESS:     506760  HIT:      10583  MISS:     496177
LLC LOAD      ACCESS:     502640  HIT:       7349  MISS:     495291
LLC RFO       ACCESS:       1093  HIT:        441  MISS:        652
LLC PREFETCH  ACCESS:          0  HIT:          0  MISS:          0
LLC WRITEBACK ACCESS:       2796  HIT:       2728  MISS:         68
Heartbeat CPU 0 instructions: 70000000 cycles: 86823279 heartbeat IPC: 0.283075 cumulative IPC: 0.275841 (Simulation time: 0 hr 53 min 28 sec) 

Region of Interest Statistics
cpu0_DTLB TOTAL     ACCESS:    4446327  HIT:    4371411  MISS:      74916
cpu0_DTLB LOAD      ACCESS:    4135835  HIT:    4062091  MISS:      73744
cpu0_DTLB RFO       ACCESS:     310492  HIT:     309320  MISS:       1172
cpu0_DTLB PREFETCH  ACCESS:          0  HIT:          0  MISS:          0
cpu0_DTLB WRITEBACK ACCESS:          0  HIT:          0  MISS:          0
cpu0_ITLB TOTAL     ACCESS:    2777091  HIT:    2773064  MISS:       4027
cpu0_ITLB LOAD      ACCESS:    2777091  HIT:    2773064  MISS:       4027
cpu0_ITLB RFO       ACCESS:          0  HIT:          0  MISS:          0
cpu0_ITLB PREFETCH  ACCESS:          0  HIT:          0  MISS:          0
cpu0_ITLB WRITEBACK ACCESS:          0  HIT:          0  MISS:          0
cpu0_L1I TOTAL     ACCESS:     105459  HIT:      84741  MISS:      20718
cpu0_L1I LOAD      ACCESS:     105459  HIT:      84741  MISS:      20718
cpu0_L1I RFO       ACCESS:          0  HIT:          0  MISS:          0
cpu0_L1I PREFETCH  ACCESS:          0  HIT:          0  MISS:          0
cpu0_L1I WRITEBACK ACCESS:          0  HIT:          0  MISS:          0
cpu0_STLB TOTAL     ACCESS:      78943  HIT:      11674  MISS:      67269
cpu0_STLB LOAD      ACCESS:      77771  HIT:      10732  MISS:      67039
cpu0_STLB RFO       ACCESS:       1172  HIT:        942  MISS:        230
cpu0_STLB PREFETCH  ACCESS:          0  HIT:          0  MISS:          0
cpu0_STLB WRITEBACK ACCESS:          0  HIT:          0  MISS:          0
cpu0_L1D TOTAL     ACCESS:    3789978  HIT:    3236506  MISS:     553472
cpu0_L1D LOAD      ACCESS:    3107082  HIT:    2556197  MISS:     550885
cpu0_L1D RFO       ACCESS:     622770  HIT:     621314  MISS:       1456
cpu0_L1D PREFETCH  ACCESS:          0  HIT:          0  MISS:          0
cpu0_L1D WRITEBACK ACCESS:          0  HIT:          0  MISS:          0
cpu0_L2C TOTAL     ACCESS:     577881  HIT:      18535  MISS:     559346
cpu0_L2C LOAD      ACCESS:     571603  HIT:      13655  MISS:     557948
cpu0_L2C RFO       ACCESS:       1456  HIT:        363  MISS:       1093
cpu0_L2C PREFETCH  ACCESS:          0  HIT:          0  MISS:          0
cpu0_L2C WRITEBACK ACCESS:       3691  HIT:       3626  MISS:         65
LLC TOTAL     ACCESS:     562077  HIT:      10586  MISS:     551491
LLC LOAD      ACCESS:     557948  HIT:       7349  MISS:     550599
LLC RFO       ACCESS:       1093  HIT:        441  MISS:        652
LLC PREFETCH  ACCESS:          0  HIT:          0  MISS:          0
LLC WRITEBACK ACCESS:       2796  HIT:       2728  MISS:         68
Heartbeat CPU 0 instructions: 72000001 cycles: 94010594 heartbeat IPC: 0.278268 cumulative IPC: 0.27606 (Simulation time: 0 hr 55 min 27 sec) 

Region of Interest Statistics
cpu0_DTLB TOTAL     ACCESS:    4892010  HIT:    4811058  MISS:      80952
cpu0_DTLB LOAD      ACCESS:    4549802  HIT:    4470149  MISS:      79653
cpu0_DTLB RFO       ACCESS:     342208  HIT:     340909  MISS:       1299
cpu0_DTLB PREFETCH  ACCESS:          0  HIT:          0  MISS:          0
cpu0_DTLB WRITEBACK ACCESS:          0  HIT:          0  MISS:          0
cpu0_ITLB TOTAL     ACCESS:    3051700  HIT:    3047240  MISS:       4460
cpu0_ITLB LOAD      ACCESS:    3051700  HIT:    3047240  MISS:       4460
cpu0_ITLB RFO       ACCESS:          0  HIT:          0  MISS:          0
cpu0_ITLB PREFETCH  ACCESS:          0  HIT:          0  MISS:          0
cpu0_ITLB WRITEBACK ACCESS:          0  HIT:          0  MISS:          0
cpu0_L1I TOTAL     ACCESS:     116528  HIT:      93594  MISS:      22934
cpu0_L1I LOAD      ACCESS:     116528  HIT:      93594  MISS:      22934
cpu0_L1I RFO       ACCESS:          0  HIT:          0  MISS:          0
cpu0_L1I PREFETCH  ACCESS:          0  HIT:          0  MISS:          0
cpu0_L1I WRITEBACK ACCESS:          0  HIT:          0  MISS:          0
cpu0_STLB TOTAL     ACCESS:      85412  HIT:      12877  MISS:      72535
cpu0_STLB LOAD      ACCESS:      84113  HIT:      11831  MISS:      72282
cpu0_STLB RFO       ACCESS:       1299  HIT:       1046  MISS:        253
cpu0_STLB PREFETCH  ACCESS:          0  HIT:          0  MISS:          0
cpu0_STLB WRITEBACK ACCESS:          0  HIT:          0  MISS:          0
cpu0_L1D TOTAL     ACCESS:    4171288  HIT:    3562540  MISS:     608748
cpu0_L1D LOAD      ACCESS:    3420008  HIT:    2814101  MISS:     605907
cpu0_L1D RFO       ACCESS:     686497  HIT:     684901  MISS:       1596
cpu0_L1D PREFETCH  ACCESS:          0  HIT:          0  MISS:          0
cpu0_L1D WRITEBACK ACCESS:          0  HIT:          0  MISS:          0
cpu0_L2C TOTAL     ACCESS:     635725  HIT:      20326  MISS:     615399
cpu0_L2C LOAD      ACCESS:     628841  HIT:      14985  MISS:     613856
cpu0_L2C RFO       ACCESS:       1596  HIT:        392  MISS:       1204
cpu0_L2C PREFETCH  ACCESS:          0  HIT:          0  MISS:          0
cpu0_L2C WRITEBACK ACCESS:       4043  HIT:       3970  MISS:         73
LLC TOTAL     ACCESS:     618418  HIT:      10878  MISS:     607540
LLC LOAD      ACCESS:     613856  HIT:       7349  MISS:     606507
LLC RFO       ACCESS:       1204  HIT:        441  MISS:        763
LLC PREFETCH  ACCESS:          0  HIT:          0  MISS:          0
LLC WRITEBACK ACCESS:       3092  HIT:       3016  MISS:         76
Heartbeat CPU 0 instructions: 74000000 cycles: 101184989 heartbeat IPC: 0.278769 cumulative IPC: 0.276283 (Simulation time: 0 hr 57 min 25 sec) 

Region of Interest Statistics
cpu0_DTLB TOTAL     ACCESS:    5337997  HIT:    5252535  MISS:      85462
cpu0_DTLB LOAD      ACCESS:    4969994  HIT:    4885831  MISS:      84163
cpu0_DTLB RFO       ACCESS:     368003  HIT:     366704  MISS:       1299
cpu0_DTLB PREFETCH  ACCESS:          0  HIT:          0  MISS:          0
cpu0_DTLB WRITEBACK ACCESS:          0  HIT:          0  MISS:          0
cpu0_ITLB TOTAL     ACCESS:    3331342  HIT:    3326882  MISS:       4460
cpu0_ITLB LOAD      ACCESS:    3331342  HIT:    3326882  MISS:       4460
cpu0_ITLB RFO       ACCESS:          0  HIT:          0  MISS:          0
cpu0_ITLB PREFETCH  ACCESS:          0  HIT:          0  MISS:          0
cpu0_ITLB WRITEBACK ACCESS:          0  HIT:          0  MISS:          0
cpu0_L1I TOTAL     ACCESS:     116528  HIT:      93594  MISS:      22934
cpu0_L1I LOAD      ACCESS:     116528  HIT:      93594  MISS:      22934
cpu0_L1I RFO       ACCESS:          0  HIT:          0  MISS:          0
cpu0_L1I PREFETCH  ACCESS:          0  HIT:          0  MISS:          0
cpu0_L1I WRITEBACK ACCESS:          0  HIT:          0  MISS:          0
cpu0_STLB TOTAL     ACCESS:      89922  HIT:      12980  MISS:      76942
cpu0_STLB LOAD      ACCESS:      88623  HIT:      11934  MISS:      76689
cpu0_STLB RFO       ACCESS:       1299  HIT:       1046  MISS:        253
cpu0_STLB PREFETCH  ACCESS:          0  HIT:          0  MISS:          0
cpu0_STLB WRITEBACK ACCESS:          0  HIT:          0  MISS:          0
cpu0_L1D TOTAL     ACCESS:    4541321  HIT:    3876186  MISS:     665135
cpu0_L1D LOAD      ACCESS:    3734163  HIT:    3071970  MISS:     662193
cpu0_L1D RFO       ACCESS:     738088  HIT:     736492  MISS:       1596
cpu0_L1D PREFETCH  ACCESS:          0  HIT:          0  MISS:          0
cpu0_L1D WRITEBACK ACCESS:          0  HIT:          0  MISS:          0
cpu0_L2C TOTAL     ACCESS:     692112  HIT:      20427  MISS:     671685
cpu0_L2C LOAD      ACCESS:     685127  HIT:      14995  MISS:     670132
cpu0_L2C RFO       ACCESS:       1596  HIT:        392  MISS:       1204
cpu0_L2C PREFETCH  ACCESS:          0  HIT:          0  MISS:          0
cpu0_L2C WRITEBACK ACCESS:       4043  HIT:       3970  MISS:         73
LLC TOTAL     ACCESS:     674704  HIT:      10881  MISS:     663823
LLC LOAD      ACCESS:     670132  HIT:       7350  MISS:     662782
LLC RFO       ACCESS:       1204  HIT:        441  MISS:        763
LLC PREFETCH  ACCESS:          0  HIT:          0  MISS:          0
LLC WRITEBACK ACCESS:       3092  HIT:       3016  MISS:         76
Heartbeat CPU 0 instructions: 76000002 cycles: 108263984 heartbeat IPC: 0.282526 cumulative IPC: 0.276754 (Simulation time: 0 hr 59 min 25 sec) 

Region of Interest Statistics
cpu0_DTLB TOTAL     ACCESS:    5784141  HIT:    5692769  MISS:      91372
cpu0_DTLB LOAD      ACCESS:    5384327  HIT:    5294392  MISS:      89935
cpu0_DTLB RFO       ACCESS:     399814  HIT:     398377  MISS:       1437
cpu0_DTLB PREFETCH  ACCESS:          0  HIT:          0  MISS:          0
cpu0_DTLB WRITEBACK ACCESS:          0  HIT:          0  MISS:          0
cpu0_ITLB TOTAL     ACCESS:    3607413  HIT:    3602514  MISS:       4899
cpu0_ITLB LOAD      ACCESS:    3607413  HIT:    3602514  MISS:       4899
cpu0_ITLB RFO       ACCESS:          0  HIT:          0  MISS:          0
cpu0_ITLB PREFETCH  ACCESS:          0  HIT:          0  MISS:          0
cpu0_ITLB WRITEBACK ACCESS:          0  HIT:          0  MISS:          0
cpu0_L1I TOTAL     ACCESS:     127812  HIT:     102596  MISS:      25216
cpu0_L1I LOAD      ACCESS:     127812  HIT:     102596  MISS:      25216
cpu0_L1I RFO       ACCESS:          0  HIT:          0  MISS:          0
cpu0_L1I PREFETCH  ACCESS:          0  HIT:          0  MISS:          0
cpu0_L1I WRITEBACK ACCESS:          0  HIT:          0  MISS:          0
cpu0_STLB TOTAL     ACCESS:      96271  HIT:      14202  MISS:      82069
cpu0_STLB LOAD      ACCESS:      94834  HIT:      13049  MISS:      81785
cpu0_STLB RFO       ACCESS:       1437  HIT:       1153  MISS:        284
cpu0_STLB PREFETCH  ACCESS:          0  HIT:          0  MISS:          0
cpu0_STLB WRITEBACK ACCESS:          0  HIT:          0  MISS:          0
cpu0_L1D TOTAL     ACCESS:    4921549  HIT:    4201650  MISS:     719899
cpu0_L1D LOAD      ACCESS:    4046064  HIT:    3329355  MISS:     716709
cpu0_L1D RFO       ACCESS:     801876  HIT:     800131  MISS:       1745
cpu0_L1D PREFETCH  ACCESS:          0  HIT:          0  MISS:          0
cpu0_L1D WRITEBACK ACCESS:          0  HIT:          0  MISS:          0
cpu0_L2C TOTAL     ACCESS:     749556  HIT:      22348  MISS:     727208
cpu0_L2C LOAD      ACCESS:     741925  HIT:      16422  MISS:     725503
cpu0_L2C RFO       ACCESS:       1745  HIT:        422  MISS:       1323
cpu0_L2C PREFETCH  ACCESS:          0  HIT:          0  MISS:          0
cpu0_L2C WRITEBACK ACCESS:       4441  HIT:       4361  MISS:         80
LLC TOTAL     ACCESS:     730526  HIT:      11185  MISS:     719341
LLC LOAD      ACCESS:     725503  HIT:       7351  MISS:     718152
LLC RFO       ACCESS:       1323  HIT:        441  MISS:        882
LLC PREFETCH  ACCESS:          0  HIT:          0  MISS:          0
LLC WRITEBACK ACCESS:       3398  HIT:       3315  MISS:         83
Heartbeat CPU 0 instructions: 78000001 cycles: 115393290 heartbeat IPC: 0.280532 cumulative IPC: 0.27702 (Simulation time: 1 hr 1 min 25 sec) 

Region of Interest Statistics
cpu0_DTLB TOTAL     ACCESS:    6231881  HIT:    6135964  MISS:      95917
cpu0_DTLB LOAD      ACCESS:    5806670  HIT:    5712190  MISS:      94480
cpu0_DTLB RFO       ACCESS:     425211  HIT:     423774  MISS:       1437
cpu0_DTLB PREFETCH  ACCESS:          0  HIT:          0  MISS:          0
cpu0_DTLB WRITEBACK ACCESS:          0  HIT:          0  MISS:          0
cpu0_ITLB TOTAL     ACCESS:    3892017  HIT:    3887118  MISS:       4899
cpu0_ITLB LOAD      ACCESS:    3892017  HIT:    3887118  MISS:       4899
cpu0_ITLB RFO       ACCESS:          0  HIT:          0  MISS:          0
cpu0_ITLB PREFETCH  ACCESS:          0  HIT:          0  MISS:          0
cpu0_ITLB WRITEBACK ACCESS:          0  HIT:          0  MISS:          0
cpu0_L1I TOTAL     ACCESS:     127812  HIT:     102596  MISS:      25216
cpu0_L1I LOAD      ACCESS:     127812  HIT:     102596  MISS:      25216
cpu0_L1I RFO       ACCESS:          0  HIT:          0  MISS:          0
cpu0_L1I PREFETCH  ACCESS:          0  HIT:          0  MISS:          0
cpu0_L1I WRITEBACK ACCESS:          0  HIT:          0  MISS:          0
cpu0_STLB TOTAL     ACCESS:     100816  HIT:      14288  MISS:      86528
cpu0_STLB LOAD      ACCESS:      99379  HIT:      13135  MISS:      86244
cpu0_STLB RFO       ACCESS:       1437  HIT:       1153  MISS:        284
cpu0_STLB PREFETCH  ACCESS:          0  HIT:          0  MISS:          0
cpu0_STLB WRITEBACK ACCESS:          0  HIT:          0  MISS:          0
cpu0_L1D TOTAL     ACCESS:    5287633  HIT:    4512182  MISS:     775451
cpu0_L1D LOAD      ACCESS:    4357037  HIT:    3584872  MISS:     772165
cpu0_L1D RFO       ACCESS:     852670  HIT:     850925  MISS:       1745
cpu0_L1D PREFETCH  ACCESS:          0  HIT:          0  MISS:          0
cpu0_L1D WRITEBACK ACCESS:          0  HIT:          0  MISS:          0
cpu0_L2C TOTAL     ACCESS:     805108  HIT:      22443  MISS:     782665
cpu0_L2C LOAD      ACCESS:     797381  HIT:      16431  MISS:     780950
cpu0_L2C RFO       ACCESS:       1745  HIT:        422  MISS:       1323
cpu0_L2C PREFETCH  ACCESS:          0  HIT:          0  MISS:          0
cpu0_L2C WRITEBACK ACCESS:       4441  HIT:       4361  MISS:         80
LLC TOTAL     ACCESS:     785983  HIT:      11187  MISS:     774796
LLC LOAD      ACCESS:     780950  HIT:       7352  MISS:     773598
LLC RFO       ACCESS:       1323  HIT:        441  MISS:        882
LLC PREFETCH  ACCESS:          0  HIT:          0  MISS:          0
LLC WRITEBACK ACCESS:       3398  HIT:       3315  MISS:         83
Heartbeat CPU 0 instructions: 80000001 cycles: 122452800 heartbeat IPC: 0.283306 cumulative IPC: 0.277431 (Simulation time: 1 hr 3 min 25 sec) 

Region of Interest Statistics
cpu0_DTLB TOTAL     ACCESS:    6679565  HIT:    6579233  MISS:     100332
cpu0_DTLB LOAD      ACCESS:    6228946  HIT:    6130053  MISS:      98893
cpu0_DTLB RFO       ACCESS:     450619  HIT:     449180  MISS:       1439
cpu0_DTLB PREFETCH  ACCESS:          0  HIT:          0  MISS:          0
cpu0_DTLB WRITEBACK ACCESS:          0  HIT:          0  MISS:          0
cpu0_ITLB TOTAL     ACCESS:    4176578  HIT:    4171679  MISS:       4899
cpu0_ITLB LOAD      ACCESS:    4176578  HIT:    4171679  MISS:       4899
cpu0_ITLB RFO       ACCESS:          0  HIT:          0  MISS:          0
cpu0_ITLB PREFETCH  ACCESS:          0  HIT:          0  MISS:          0
cpu0_ITLB WRITEBACK ACCESS:          0  HIT:          0  MISS:          0
cpu0_L1I TOTAL     ACCESS:     127812  HIT:     102596  MISS:      25216
cpu0_L1I LOAD      ACCESS:     127812  HIT:     102596  MISS:      25216
cpu0_L1I RFO       ACCESS:          0  HIT:          0  MISS:          0
cpu0_L1I PREFETCH  ACCESS:          0  HIT:          0  MISS:          0
cpu0_L1I WRITEBACK ACCESS:          0  HIT:          0  MISS:          0
cpu0_STLB TOTAL     ACCESS:     105231  HIT:      14407  MISS:      90824
cpu0_STLB LOAD      ACCESS:     103792  HIT:      13253  MISS:      90539
cpu0_STLB RFO       ACCESS:       1439  HIT:       1154  MISS:        285
cpu0_STLB PREFETCH  ACCESS:          0  HIT:          0  MISS:          0
cpu0_STLB WRITEBACK ACCESS:          0  HIT:          0  MISS:          0
cpu0_L1D TOTAL     ACCESS:    5653671  HIT:    4822840  MISS:     830831
cpu0_L1D LOAD      ACCESS:    4668085  HIT:    3840624  MISS:     827461
cpu0_L1D RFO       ACCESS:     903487  HIT:     901742  MISS:       1745
cpu0_L1D PREFETCH  ACCESS:          0  HIT:          0  MISS:          0
cpu0_L1D WRITEBACK ACCESS:          0  HIT:          0  MISS:          0
cpu0_L2C TOTAL     ACCESS:     860488  HIT:      22528  MISS:     837960
cpu0_L2C LOAD      ACCESS:     852677  HIT:      16441  MISS:     836236
cpu0_L2C RFO       ACCESS:       1745  HIT:        422  MISS:       1323
cpu0_L2C PREFETCH  ACCESS:          0  HIT:          0  MISS:          0
cpu0_L2C WRITEBACK ACCESS:       4441  HIT:       4361  MISS:         80
LLC TOTAL     ACCESS:     841278  HIT:      11189  MISS:     830089
LLC LOAD      ACCESS:     836236  HIT:       7352  MISS:     828884
LLC RFO       ACCESS:       1323  HIT:        441  MISS:        882
LLC PREFETCH  ACCESS:          0  HIT:          0  MISS:          0
LLC WRITEBACK ACCESS:       3398  HIT:       3315  MISS:         83
Heartbeat CPU 0 instructions: 82000000 cycles: 129557922 heartbeat IPC: 0.281487 cumulative IPC: 0.277681 (Simulation time: 1 hr 5 min 30 sec) 

Region of Interest Statistics
cpu0_DTLB TOTAL     ACCESS:    7126848  HIT:    7020532  MISS:     106316
cpu0_DTLB LOAD      ACCESS:    6644782  HIT:    6540033  MISS:     104749
cpu0_DTLB RFO       ACCESS:     482066  HIT:     480499  MISS:       1567
cpu0_DTLB PREFETCH  ACCESS:          0  HIT:          0  MISS:          0
cpu0_DTLB WRITEBACK ACCESS:          0  HIT:          0  MISS:          0
cpu0_ITLB TOTAL     ACCESS:    4455330  HIT:    4449993  MISS:       5337
cpu0_ITLB LOAD      ACCESS:    4455330  HIT:    4449993  MISS:       5337
cpu0_ITLB RFO       ACCESS:          0  HIT:          0  MISS:          0
cpu0_ITLB PREFETCH  ACCESS:          0  HIT:          0  MISS:          0
cpu0_ITLB WRITEBACK ACCESS:          0  HIT:          0  MISS:          0
cpu0_L1I TOTAL     ACCESS:     139006  HIT:     111541  MISS:      27465
cpu0_L1I LOAD      ACCESS:     139006  HIT:     111541  MISS:      27465
cpu0_L1I RFO       ACCESS:          0  HIT:          0  MISS:          0
cpu0_L1I PREFETCH  ACCESS:          0  HIT:          0  MISS:          0
cpu0_L1I WRITEBACK ACCESS:          0  HIT:          0  MISS:          0
cpu0_STLB TOTAL     ACCESS:     111653  HIT:      15596  MISS:      96057
cpu0_STLB LOAD      ACCESS:     110086  HIT:      14339  MISS:      95747
cpu0_STLB RFO       ACCESS:       1567  HIT:       1257  MISS:        310
cpu0_STLB PREFETCH  ACCESS:          0  HIT:          0  MISS:          0
cpu0_STLB WRITEBACK ACCESS:          0  HIT:          0  MISS:          0
cpu0_L1D TOTAL     ACCESS:    6031757  HIT:    5146318  MISS:     885439
cpu0_L1D LOAD      ACCESS:    4978429  HIT:    4096619  MISS:     881810
cpu0_L1D RFO       ACCESS:     966601  HIT:     964707  MISS:       1894
cpu0_L1D PREFETCH  ACCESS:          0  HIT:          0  MISS:          0
cpu0_L1D WRITEBACK ACCESS:          0  HIT:          0  MISS:          0
cpu0_L2C TOTAL     ACCESS:     917734  HIT:      24445  MISS:     893289
cpu0_L2C LOAD      ACCESS:     909275  HIT:      17861  MISS:     891414
cpu0_L2C RFO       ACCESS:       1894  HIT:        454  MISS:       1440
cpu0_L2C PREFETCH  ACCESS:          0  HIT:          0  MISS:          0
cpu0_L2C WRITEBACK ACCESS:       4830  HIT:       4741  MISS:         89
LLC TOTAL     ACCESS:     896902  HIT:      11490  MISS:     885412
LLC LOAD      ACCESS:     891414  HIT:       7354  MISS:     884060
LLC RFO       ACCESS:       1440  HIT:        441  MISS:        999
LLC PREFETCH  ACCESS:          0  HIT:          0  MISS:          0
LLC WRITEBACK ACCESS:       3702  HIT:       3611  MISS:         91
Heartbeat CPU 0 instructions: 84000002 cycles: 136765555 heartbeat IPC: 0.277484 cumulative IPC: 0.277669 (Simulation time: 1 hr 7 min 33 sec) 

Region of Interest Statistics
cpu0_DTLB TOTAL     ACCESS:    7572033  HIT:    7459569  MISS:     112464
cpu0_DTLB LOAD      ACCESS:    7058060  HIT:    6947293  MISS:     110767
cpu0_DTLB RFO       ACCESS:     513973  HIT:     512276  MISS:       1697
cpu0_DTLB PREFETCH  ACCESS:          0  HIT:          0  MISS:          0
cpu0_DTLB WRITEBACK ACCESS:          0  HIT:          0  MISS:          0
cpu0_ITLB TOTAL     ACCESS:    4730130  HIT:    4724355  MISS:       5775
cpu0_ITLB LOAD      ACCESS:    4730130  HIT:    4724355  MISS:       5775
cpu0_ITLB RFO       ACCESS:          0  HIT:          0  MISS:          0
cpu0_ITLB PREFETCH  ACCESS:          0  HIT:          0  MISS:          0
cpu0_ITLB WRITEBACK ACCESS:          0  HIT:          0  MISS:          0
cpu0_L1I TOTAL     ACCESS:     150195  HIT:     120491  MISS:      29704
cpu0_L1I LOAD      ACCESS:     150195  HIT:     120491  MISS:      29704
cpu0_L1I RFO       ACCESS:          0  HIT:          0  MISS:          0
cpu0_L1I PREFETCH  ACCESS:          0  HIT:          0  MISS:          0
cpu0_L1I WRITEBACK ACCESS:          0  HIT:          0  MISS:          0
cpu0_STLB TOTAL     ACCESS:     118239  HIT:      16800  MISS:     101439
cpu0_STLB LOAD      ACCESS:     116542  HIT:      15443  MISS:     101099
cpu0_STLB RFO       ACCESS:       1697  HIT:       1357  MISS:        340
cpu0_STLB PREFETCH  ACCESS:          0  HIT:          0  MISS:          0
cpu0_STLB WRITEBACK ACCESS:          0  HIT:          0  MISS:          0
cpu0_L1D TOTAL     ACCESS:    6414989  HIT:    5473879  MISS:     941110
cpu0_L1D LOAD      ACCESS:    5292894  HIT:    4355684  MISS:     937210
cpu0_L1D RFO       ACCESS:    1030634  HIT:    1028589  MISS:       2045
cpu0_L1D PREFETCH  ACCESS:          0  HIT:          0  MISS:          0
cpu0_L1D WRITEBACK ACCESS:          0  HIT:          0  MISS:          0
cpu0_L2C TOTAL     ACCESS:     976049  HIT:      26390  MISS:     949659
cpu0_L2C LOAD      ACCESS:     966914  HIT:      19277  MISS:     947637
cpu0_L2C RFO       ACCESS:       2045  HIT:        492  MISS:       1553
cpu0_L2C PREFETCH  ACCESS:          0  HIT:          0  MISS:          0
cpu0_L2C WRITEBACK ACCESS:       5235  HIT:       5138  MISS:         97
LLC TOTAL     ACCESS:     953566  HIT:      11906  MISS:     941660
LLC LOAD      ACCESS:     947637  HIT:       7434  MISS:     940203
LLC RFO       ACCESS:       1553  HIT:        478  MISS:       1075
LLC PREFETCH  ACCESS:          0  HIT:          0  MISS:          0
LLC WRITEBACK ACCESS:       4004  HIT:       3905  MISS:         99
Heartbeat CPU 0 instructions: 86000000 cycles: 143986679 heartbeat IPC: 0.276965 cumulative IPC: 0.27763 (Simulation time: 1 hr 9 min 35 sec) 

Region of Interest Statistics
cpu0_DTLB TOTAL     ACCESS:    8017207  HIT:    7900195  MISS:     117012
cpu0_DTLB LOAD      ACCESS:    7477265  HIT:    7361950  MISS:     115315
cpu0_DTLB RFO       ACCESS:     539942  HIT:     538245  MISS:       1697
cpu0_DTLB PREFETCH  ACCESS:          0  HIT:          0  MISS:          0
cpu0_DTLB WRITEBACK ACCESS:          0  HIT:          0  MISS:          0
cpu0_ITLB TOTAL     ACCESS:    5009735  HIT:    5003960  MISS:       5775
cpu0_ITLB LOAD      ACCESS:    5009735  HIT:    5003960  MISS:       5775
cpu0_ITLB RFO       ACCESS:          0  HIT:          0  MISS:          0
cpu0_ITLB PREFETCH  ACCESS:          0  HIT:          0  MISS:          0
cpu0_ITLB WRITEBACK ACCESS:          0  HIT:          0  MISS:          0
cpu0_L1I TOTAL     ACCESS:     150195  HIT:     120491  MISS:      29704
cpu0_L1I LOAD      ACCESS:     150195  HIT:     120491  MISS:      29704
cpu0_L1I RFO       ACCESS:          0  HIT:          0  MISS:          0
cpu0_L1I PREFETCH  ACCESS:          0  HIT:          0  MISS:          0
cpu0_L1I WRITEBACK ACCESS:          0  HIT:          0  MISS:          0
cpu0_STLB TOTAL     ACCESS:     122787  HIT:      16903  MISS:     105884
cpu0_STLB LOAD      ACCESS:     121090  HIT:      15546  MISS:     105544
cpu0_STLB RFO       ACCESS:       1697  HIT:       1357  MISS:        340
cpu0_STLB PREFETCH  ACCESS:          0  HIT:          0  MISS:          0
cpu0_STLB WRITEBACK ACCESS:          0  HIT:          0  MISS:          0
cpu0_L1D TOTAL     ACCESS:    6787544  HIT:    5789625  MISS:     997919
cpu0_L1D LOAD      ACCESS:    5609186  HIT:    4615267  MISS:     993919
cpu0_L1D RFO       ACCESS:    1082572  HIT:    1080527  MISS:       2045
cpu0_L1D PREFETCH  ACCESS:          0  HIT:          0  MISS:          0
cpu0_L1D WRITEBACK ACCESS:          0  HIT:          0  MISS:          0
cpu0_L2C TOTAL     ACCESS:    1032858  HIT:      26490  MISS:    1006368
cpu0_L2C LOAD      ACCESS:    1023623  HIT:      19287  MISS:    1004336
cpu0_L2C RFO       ACCESS:       2045  HIT:        492  MISS:       1553
cpu0_L2C PREFETCH  ACCESS:          0  HIT:          0  MISS:          0
cpu0_L2C WRITEBACK ACCESS:       5235  HIT:       5138  MISS:         97
LLC TOTAL     ACCESS:    1010275  HIT:      11908  MISS:     998367
LLC LOAD      ACCESS:    1004336  HIT:       7435  MISS:     996901
LLC RFO       ACCESS:       1553  HIT:        478  MISS:       1075
LLC PREFETCH  ACCESS:          0  HIT:          0  MISS:          0
LLC WRITEBACK ACCESS:       4004  HIT:       3905  MISS:         99
Heartbeat CPU 0 instructions: 88000002 cycles: 151762926 heartbeat IPC: 0.257194 cumulative IPC: 0.276474 (Simulation time: 1 hr 11 min 43 sec) 

Region of Interest Statistics
cpu0_DTLB TOTAL     ACCESS:    8457227  HIT:    8329861  MISS:     127366
cpu0_DTLB LOAD      ACCESS:    7879878  HIT:    7754447  MISS:     125431
cpu0_DTLB RFO       ACCESS:     577349  HIT:     575414  MISS:       1935
cpu0_DTLB PREFETCH  ACCESS:          0  HIT:          0  MISS:          0
cpu0_DTLB WRITEBACK ACCESS:          0  HIT:          0  MISS:          0
cpu0_ITLB TOTAL     ACCESS:    5278548  HIT:    5272031  MISS:       6517
cpu0_ITLB LOAD      ACCESS:    5278548  HIT:    5272031  MISS:       6517
cpu0_ITLB RFO       ACCESS:          0  HIT:          0  MISS:          0
cpu0_ITLB PREFETCH  ACCESS:          0  HIT:          0  MISS:          0
cpu0_ITLB WRITEBACK ACCESS:          0  HIT:          0  MISS:          0
cpu0_L1I TOTAL     ACCESS:     169525  HIT:     135875  MISS:      33650
cpu0_L1I LOAD      ACCESS:     169525  HIT:     135875  MISS:      33650
cpu0_L1I RFO       ACCESS:          0  HIT:          0  MISS:          0
cpu0_L1I PREFETCH  ACCESS:          0  HIT:          0  MISS:          0
cpu0_L1I WRITEBACK ACCESS:          0  HIT:          0  MISS:          0
cpu0_STLB TOTAL     ACCESS:     133883  HIT:      18966  MISS:     114917
cpu0_STLB LOAD      ACCESS:     131948  HIT:      17431  MISS:     114517
cpu0_STLB RFO       ACCESS:       1935  HIT:       1535  MISS:        400
cpu0_STLB PREFETCH  ACCESS:          0  HIT:          0  MISS:          0
cpu0_STLB WRITEBACK ACCESS:          0  HIT:          0  MISS:          0
cpu0_L1D TOTAL     ACCESS:    7189476  HIT:    6132513  MISS:    1056963
cpu0_L1D LOAD      ACCESS:    5928201  HIT:    4875654  MISS:    1052547
cpu0_L1D RFO       ACCESS:    1157747  HIT:    1155430  MISS:       2317
cpu0_L1D PREFETCH  ACCESS:          0  HIT:          0  MISS:          0
cpu0_L1D WRITEBACK ACCESS:          0  HIT:          0  MISS:          0
cpu0_L2C TOTAL     ACCESS:    1096600  HIT:      29678  MISS:    1066922
cpu0_L2C LOAD      ACCESS:    1086197  HIT:      21584  MISS:    1064613
cpu0_L2C RFO       ACCESS:       2317  HIT:        540  MISS:       1777
cpu0_L2C PREFETCH  ACCESS:          0  HIT:          0  MISS:          0
cpu0_L2C WRITEBACK ACCESS:       5987  HIT:       5876  MISS:        111
LLC TOTAL     ACCESS:    1071413  HIT:      13243  MISS:    1058170
LLC LOAD      ACCESS:    1064614  HIT:       8101  MISS:    1056513
LLC RFO       ACCESS:       1777  HIT:        557  MISS:       1220
LLC PREFETCH  ACCESS:          0  HIT:          0  MISS:          0
LLC WRITEBACK ACCESS:       4601  HIT:       4490  MISS:        111
Heartbeat CPU 0 instructions: 90000001 cycles: 159178118 heartbeat IPC: 0.269716 cumulative IPC: 0.276128 (Simulation time: 1 hr 14 min 3 sec) 

Region of Interest Statistics
cpu0_DTLB TOTAL     ACCESS:    8890151  HIT:    8739003  MISS:     151148
cpu0_DTLB LOAD      ACCESS:    8250850  HIT:    8102393  MISS:     148457
cpu0_DTLB RFO       ACCESS:     639301  HIT:     636610  MISS:       2691
cpu0_DTLB PREFETCH  ACCESS:          0  HIT:          0  MISS:          0
cpu0_DTLB WRITEBACK ACCESS:          0  HIT:          0  MISS:          0
cpu0_ITLB TOTAL     ACCESS:    5517467  HIT:    5508866  MISS:       8601
cpu0_ITLB LOAD      ACCESS:    5517467  HIT:    5508866  MISS:       8601
cpu0_ITLB RFO       ACCESS:          0  HIT:          0  MISS:          0
cpu0_ITLB PREFETCH  ACCESS:          0  HIT:          0  MISS:          0
cpu0_ITLB WRITEBACK ACCESS:          0  HIT:          0  MISS:          0
cpu0_L1I TOTAL     ACCESS:     232241  HIT:     191076  MISS:      41165
cpu0_L1I LOAD      ACCESS:     232241  HIT:     191076  MISS:      41165
cpu0_L1I RFO       ACCESS:          0  HIT:          0  MISS:          0
cpu0_L1I PREFETCH  ACCESS:          0  HIT:          0  MISS:          0
cpu0_L1I WRITEBACK ACCESS:          0  HIT:          0  MISS:          0
cpu0_STLB TOTAL     ACCESS:     159749  HIT:      27143  MISS:     132606
cpu0_STLB LOAD      ACCESS:     157058  HIT:      24906  MISS:     132152
cpu0_STLB RFO       ACCESS:       2691  HIT:       2237  MISS:        454
cpu0_STLB PREFETCH  ACCESS:          0  HIT:          0  MISS:          0
cpu0_STLB WRITEBACK ACCESS:          0  HIT:          0  MISS:          0
cpu0_L1D TOTAL     ACCESS:    7632118  HIT:    6519267  MISS:    1112851
cpu0_L1D LOAD      ACCESS:    6236992  HIT:    5129829  MISS:    1107163
cpu0_L1D RFO       ACCESS:    1279221  HIT:    1275865  MISS:       3356
cpu0_L1D PREFETCH  ACCESS:          0  HIT:          0  MISS:          0
cpu0_L1D WRITEBACK ACCESS:          0  HIT:          0  MISS:          0
cpu0_L2C TOTAL     ACCESS:    1161974  HIT:      41018  MISS:    1120956
cpu0_L2C LOAD      ACCESS:    1148328  HIT:      30268  MISS:    1118060
cpu0_L2C RFO       ACCESS:       3356  HIT:       1050  MISS:       2306
cpu0_L2C PREFETCH  ACCESS:          0  HIT:          0  MISS:          0
cpu0_L2C WRITEBACK ACCESS:       7958  HIT:       7830  MISS:        128
LLC TOTAL     ACCESS:    1125765  HIT:      14263  MISS:    1111502
LLC LOAD      ACCESS:    1118060  HIT:       8658  MISS:    1109402
LLC RFO       ACCESS:       2306  HIT:        680  MISS:       1626
LLC PREFETCH  ACCESS:          0  HIT:          0  MISS:          0
LLC WRITEBACK ACCESS:       4937  HIT:       4819  MISS:        118
Heartbeat CPU 0 instructions: 92000001 cycles: 165119536 heartbeat IPC: 0.33662 cumulative IPC: 0.278511 (Simulation time: 1 hr 15 min 57 sec) 

Region of Interest Statistics
cpu0_DTLB TOTAL     ACCESS:    9321365  HIT:    9151784  MISS:     169581
cpu0_DTLB LOAD      ACCESS:    8625561  HIT:    8459426  MISS:     166135
cpu0_DTLB RFO       ACCESS:     695804  HIT:     692358  MISS:       3446
cpu0_DTLB PREFETCH  ACCESS:          0  HIT:          0  MISS:          0
cpu0_DTLB WRITEBACK ACCESS:          0  HIT:          0  MISS:          0
cpu0_ITLB TOTAL     ACCESS:    5762987  HIT:    5752275  MISS:      10712
cpu0_ITLB LOAD      ACCESS:    5762987  HIT:    5752275  MISS:      10712
cpu0_ITLB RFO       ACCESS:          0  HIT:          0  MISS:          0
cpu0_ITLB PREFETCH  ACCESS:          0  HIT:          0  MISS:          0
cpu0_ITLB WRITEBACK ACCESS:          0  HIT:          0  MISS:          0
cpu0_L1I TOTAL     ACCESS:     294372  HIT:     245062  MISS:      49310
cpu0_L1I LOAD      ACCESS:     294372  HIT:     245062  MISS:      49310
cpu0_L1I RFO       ACCESS:          0  HIT:          0  MISS:          0
cpu0_L1I PREFETCH  ACCESS:          0  HIT:          0  MISS:          0
cpu0_L1I WRITEBACK ACCESS:          0  HIT:          0  MISS:          0
cpu0_STLB TOTAL     ACCESS:     180293  HIT:      35032  MISS:     145261
cpu0_STLB LOAD      ACCESS:     176847  HIT:      32079  MISS:     144768
cpu0_STLB RFO       ACCESS:       3446  HIT:       2953  MISS:        493
cpu0_STLB PREFETCH  ACCESS:          0  HIT:          0  MISS:          0
cpu0_STLB WRITEBACK ACCESS:          0  HIT:          0  MISS:          0
cpu0_L1D TOTAL     ACCESS:    8039897  HIT:    6883862  MISS:    1156035
cpu0_L1D LOAD      ACCESS:    6524544  HIT:    5375251  MISS:    1149293
cpu0_L1D RFO       ACCESS:    1390009  HIT:    1385786  MISS:       4223
cpu0_L1D PREFETCH  ACCESS:          0  HIT:          0  MISS:          0
cpu0_L1D WRITEBACK ACCESS:          0  HIT:          0  MISS:          0
cpu0_L2C TOTAL     ACCESS:    1215314  HIT:      52960  MISS:    1162354
cpu0_L2C LOAD      ACCESS:    1198603  HIT:      39574  MISS:    1159029
cpu0_L2C RFO       ACCESS:       4223  HIT:       1561  MISS:       2662
cpu0_L2C PREFETCH  ACCESS:          0  HIT:          0  MISS:          0
cpu0_L2C WRITEBACK ACCESS:       9969  HIT:       9789  MISS:        180
LLC TOTAL     ACCESS:    1168012  HIT:      15984  MISS:    1152028
LLC LOAD      ACCESS:    1159029  HIT:       9424  MISS:    1149605
LLC RFO       ACCESS:       2662  HIT:        806  MISS:       1856
LLC PREFETCH  ACCESS:          0  HIT:          0  MISS:          0
LLC WRITEBACK ACCESS:       5838  HIT:       5644  MISS:        194
Heartbeat CPU 0 instructions: 94000000 cycles: 172076551 heartbeat IPC: 0.287479 cumulative IPC: 0.278907 (Simulation time: 1 hr 17 min 53 sec) 

Region of Interest Statistics
cpu0_DTLB TOTAL     ACCESS:    9765772  HIT:    9588700  MISS:     177072
cpu0_DTLB LOAD      ACCESS:    9032029  HIT:    8858659  MISS:     173370
cpu0_DTLB RFO       ACCESS:     733743  HIT:     730041  MISS:       3702
cpu0_DTLB PREFETCH  ACCESS:          0  HIT:          0  MISS:          0
cpu0_DTLB WRITEBACK ACCESS:          0  HIT:          0  MISS:          0
cpu0_ITLB TOTAL     ACCESS:    6031621  HIT:    6020033  MISS:      11588
cpu0_ITLB LOAD      ACCESS:    6031621  HIT:    6020033  MISS:      11588
cpu0_ITLB RFO       ACCESS:          0  HIT:          0  MISS:          0
cpu0_ITLB PREFETCH  ACCESS:          0  HIT:          0  MISS:          0
cpu0_ITLB WRITEBACK ACCESS:          0  HIT:          0  MISS:          0
cpu0_L1I TOTAL     ACCESS:     316827  HIT:     263023  MISS:      53804
cpu0_L1I LOAD      ACCESS:     316827  HIT:     263023  MISS:      53804
cpu0_L1I RFO       ACCESS:          0  HIT:          0  MISS:          0
cpu0_L1I PREFETCH  ACCESS:          0  HIT:          0  MISS:          0
cpu0_L1I WRITEBACK ACCESS:          0  HIT:          0  MISS:          0
cpu0_STLB TOTAL     ACCESS:     188660  HIT:      37708  MISS:     150952
cpu0_STLB LOAD      ACCESS:     184958  HIT:      34527  MISS:     150431
cpu0_STLB RFO       ACCESS:       3702  HIT:       3181  MISS:        521
cpu0_STLB PREFETCH  ACCESS:          0  HIT:          0  MISS:          0
cpu0_STLB WRITEBACK ACCESS:          0  HIT:          0  MISS:          0
cpu0_L1D TOTAL     ACCESS:    8435652  HIT:    7224884  MISS:    1210768
cpu0_L1D LOAD      ACCESS:    6838941  HIT:    5635339  MISS:    1203602
cpu0_L1D RFO       ACCESS:    1466593  HIT:    1462083  MISS:       4510
cpu0_L1D PREFETCH  ACCESS:          0  HIT:          0  MISS:          0
cpu0_L1D WRITEBACK ACCESS:          0  HIT:          0  MISS:          0
cpu0_L2C TOTAL     ACCESS:    1275316  HIT:      59210  MISS:    1216106
cpu0_L2C LOAD      ACCESS:    1257406  HIT:      44798  MISS:    1212608
cpu0_L2C RFO       ACCESS:       4510  HIT:       1706  MISS:       2804
cpu0_L2C PREFETCH  ACCESS:          0  HIT:          0  MISS:          0
cpu0_L2C WRITEBACK ACCESS:      10744  HIT:      10557  MISS:        187
LLC TOTAL     ACCESS:    1222405  HIT:      17021  MISS:    1205384
LLC LOAD      ACCESS:    1212608  HIT:       9734  MISS:    1202874
LLC RFO       ACCESS:       2804  HIT:        888  MISS:       1916
LLC PREFETCH  ACCESS:          0  HIT:          0  MISS:          0
LLC WRITEBACK ACCESS:       6486  HIT:       6280  MISS:        206
Heartbeat CPU 0 instructions: 96000001 cycles: 179369790 heartbeat IPC: 0.274227 cumulative IPC: 0.2787 (Simulation time: 1 hr 19 min 58 sec) 

Region of Interest Statistics
cpu0_DTLB TOTAL     ACCESS:   10210918  HIT:   10029190  MISS:     181728
cpu0_DTLB LOAD      ACCESS:    9451211  HIT:    9273185  MISS:     178026
cpu0_DTLB RFO       ACCESS:     759707  HIT:     756005  MISS:       3702
cpu0_DTLB PREFETCH  ACCESS:          0  HIT:          0  MISS:          0
cpu0_DTLB WRITEBACK ACCESS:          0  HIT:          0  MISS:          0
cpu0_ITLB TOTAL     ACCESS:    6311246  HIT:    6299658  MISS:      11588
cpu0_ITLB LOAD      ACCESS:    6311246  HIT:    6299658  MISS:      11588
cpu0_ITLB RFO       ACCESS:          0  HIT:          0  MISS:          0
cpu0_ITLB PREFETCH  ACCESS:          0  HIT:          0  MISS:          0
cpu0_ITLB WRITEBACK ACCESS:          0  HIT:          0  MISS:          0
cpu0_L1I TOTAL     ACCESS:     316827  HIT:     263023  MISS:      53804
cpu0_L1I LOAD      ACCESS:     316827  HIT:     263023  MISS:      53804
cpu0_L1I RFO       ACCESS:          0  HIT:          0  MISS:          0
cpu0_L1I PREFETCH  ACCESS:          0  HIT:          0  MISS:          0
cpu0_L1I WRITEBACK ACCESS:          0  HIT:          0  MISS:          0
cpu0_STLB TOTAL     ACCESS:     193316  HIT:      37804  MISS:     155512
cpu0_STLB LOAD      ACCESS:     189614  HIT:      34623  MISS:     154991
cpu0_STLB RFO       ACCESS:       3702  HIT:       3181  MISS:        521
cpu0_STLB PREFETCH  ACCESS:          0  HIT:          0  MISS:          0
cpu0_STLB WRITEBACK ACCESS:          0  HIT:          0  MISS:          0
cpu0_L1D TOTAL     ACCESS:    8808233  HIT:    7540673  MISS:    1267560
cpu0_L1D LOAD      ACCESS:    7155180  HIT:    5894879  MISS:    1260301
cpu0_L1D RFO       ACCESS:    1518520  HIT:    1514010  MISS:       4510
cpu0_L1D PREFETCH  ACCESS:          0  HIT:          0  MISS:          0
cpu0_L1D WRITEBACK ACCESS:          0  HIT:          0  MISS:          0
cpu0_L2C TOTAL     ACCESS:    1332108  HIT:      59301  MISS:    1272807
cpu0_L2C LOAD      ACCESS:    1314105  HIT:      44808  MISS:    1269297
cpu0_L2C RFO       ACCESS:       4510  HIT:       1706  MISS:       2804
cpu0_L2C PREFETCH  ACCESS:          0  HIT:          0  MISS:          0
cpu0_L2C WRITEBACK ACCESS:      10744  HIT:      10557  MISS:        187
LLC TOTAL     ACCESS:    1279128  HIT:      17046  MISS:    1262082
LLC LOAD      ACCESS:    1269297  HIT:       9736  MISS:    1259561
LLC RFO       ACCESS:       2804  HIT:        888  MISS:       1916
LLC PREFETCH  ACCESS:          0  HIT:          0  MISS:          0
LLC WRITEBACK ACCESS:       6508  HIT:       6300  MISS:        208
Heartbeat CPU 0 instructions: 98000001 cycles: 186567329 heartbeat IPC: 0.277873 cumulative IPC: 0.278665 (Simulation time: 1 hr 21 min 55 sec) 

Region of Interest Statistics
cpu0_DTLB TOTAL     ACCESS:   10656037  HIT:   10469794  MISS:     186243
cpu0_DTLB LOAD      ACCESS:    9870361  HIT:    9687822  MISS:     182539
cpu0_DTLB RFO       ACCESS:     785676  HIT:     781972  MISS:       3704
cpu0_DTLB PREFETCH  ACCESS:          0  HIT:          0  MISS:          0
cpu0_DTLB WRITEBACK ACCESS:          0  HIT:          0  MISS:          0
cpu0_ITLB TOTAL     ACCESS:    6590866  HIT:    6579278  MISS:      11588
cpu0_ITLB LOAD      ACCESS:    6590866  HIT:    6579278  MISS:      11588
cpu0_ITLB RFO       ACCESS:          0  HIT:          0  MISS:          0
cpu0_ITLB PREFETCH  ACCESS:          0  HIT:          0  MISS:          0
cpu0_ITLB WRITEBACK ACCESS:          0  HIT:          0  MISS:          0
cpu0_L1I TOTAL     ACCESS:     316827  HIT:     263023  MISS:      53804
cpu0_L1I LOAD      ACCESS:     316827  HIT:     263023  MISS:      53804
cpu0_L1I RFO       ACCESS:          0  HIT:          0  MISS:          0
cpu0_L1I PREFETCH  ACCESS:          0  HIT:          0  MISS:          0
cpu0_L1I WRITEBACK ACCESS:          0  HIT:          0  MISS:          0
cpu0_STLB TOTAL     ACCESS:     197831  HIT:      37924  MISS:     159907
cpu0_STLB LOAD      ACCESS:     194127  HIT:      34742  MISS:     159385
cpu0_STLB RFO       ACCESS:       3704  HIT:       3182  MISS:        522
cpu0_STLB PREFETCH  ACCESS:          0  HIT:          0  MISS:          0
cpu0_STLB WRITEBACK ACCESS:          0  HIT:          0  MISS:          0
cpu0_L1D TOTAL     ACCESS:    9180788  HIT:    7856561  MISS:    1324227
cpu0_L1D LOAD      ACCESS:    7471530  HIT:    6154661  MISS:    1316869
cpu0_L1D RFO       ACCESS:    1570456  HIT:    1565946  MISS:       4510
cpu0_L1D PREFETCH  ACCESS:          0  HIT:          0  MISS:          0
cpu0_L1D WRITEBACK ACCESS:          0  HIT:          0  MISS:          0
cpu0_L2C TOTAL     ACCESS:    1388775  HIT:      59402  MISS:    1329373
cpu0_L2C LOAD      ACCESS:    1370673  HIT:      44819  MISS:    1325854
cpu0_L2C RFO       ACCESS:       4510  HIT:       1706  MISS:       2804
cpu0_L2C PREFETCH  ACCESS:          0  HIT:          0  MISS:          0
cpu0_L2C WRITEBACK ACCESS:      10744  HIT:      10557  MISS:        187
LLC TOTAL     ACCESS:    1335694  HIT:      17048  MISS:    1318646
LLC LOAD      ACCESS:    1325854  HIT:       9737  MISS:    1316117
LLC RFO       ACCESS:       2804  HIT:        888  MISS:       1916
LLC PREFETCH  ACCESS:          0  HIT:          0  MISS:          0
LLC WRITEBACK ACCESS:       6508  HIT:       6300  MISS:        208
Heartbeat CPU 0 instructions: 100000001 cycles: 192705805 heartbeat IPC: 0.325814 cumulative IPC: 0.280288 (Simulation time: 1 hr 23 min 46 sec) 

Region of Interest Statistics
cpu0_DTLB TOTAL     ACCESS:   11099346  HIT:   10904402  MISS:     194944
cpu0_DTLB LOAD      ACCESS:   10269827  HIT:   10078961  MISS:     190866
cpu0_DTLB RFO       ACCESS:     829519  HIT:     825441  MISS:       4078
cpu0_DTLB PREFETCH  ACCESS:          0  HIT:          0  MISS:          0
cpu0_DTLB WRITEBACK ACCESS:          0  HIT:          0  MISS:          0
cpu0_ITLB TOTAL     ACCESS:    6853825  HIT:    6840928  MISS:      12897
cpu0_ITLB LOAD      ACCESS:    6853825  HIT:    6840928  MISS:      12897
cpu0_ITLB RFO       ACCESS:          0  HIT:          0  MISS:          0
cpu0_ITLB PREFETCH  ACCESS:          0  HIT:          0  MISS:          0
cpu0_ITLB WRITEBACK ACCESS:          0  HIT:          0  MISS:          0
cpu0_L1I TOTAL     ACCESS:     350269  HIT:     289740  MISS:      60529
cpu0_L1I LOAD      ACCESS:     350269  HIT:     289740  MISS:      60529
cpu0_L1I RFO       ACCESS:          0  HIT:          0  MISS:          0
cpu0_L1I PREFETCH  ACCESS:          0  HIT:          0  MISS:          0
cpu0_L1I WRITEBACK ACCESS:          0  HIT:          0  MISS:          0
cpu0_STLB TOTAL     ACCESS:     207841  HIT:      42172  MISS:     165669
cpu0_STLB LOAD      ACCESS:     203763  HIT:      38651  MISS:     165112
cpu0_STLB RFO       ACCESS:       4078  HIT:       3521  MISS:        557
cpu0_STLB PREFETCH  ACCESS:          0  HIT:          0  MISS:          0
cpu0_STLB WRITEBACK ACCESS:          0  HIT:          0  MISS:          0
cpu0_L1D TOTAL     ACCESS:    9586911  HIT:    8209185  MISS:    1377726
cpu0_L1D LOAD      ACCESS:    7784507  HIT:    6414732  MISS:    1369775
cpu0_L1D RFO       ACCESS:    1659180  HIT:    1654228  MISS:       4952
cpu0_L1D PREFETCH  ACCESS:          0  HIT:          0  MISS:          0
cpu0_L1D WRITEBACK ACCESS:          0  HIT:          0  MISS:          0
cpu0_L2C TOTAL     ACCESS:    1450160  HIT:      70550  MISS:    1379610
cpu0_L2C LOAD      ACCESS:    1430303  HIT:      54480  MISS:    1375823
cpu0_L2C RFO       ACCESS:       4952  HIT:       1925  MISS:       3027
cpu0_L2C PREFETCH  ACCESS:          0  HIT:          0  MISS:          0
cpu0_L2C WRITEBACK ACCESS:      11906  HIT:      11708  MISS:        198
LLC TOTAL     ACCESS:    1386454  HIT:      23381  MISS:    1363073
LLC LOAD      ACCESS:    1375823  HIT:      15465  MISS:    1360358
LLC RFO       ACCESS:       3027  HIT:        951  MISS:       2076
LLC PREFETCH  ACCESS:          0  HIT:          0  MISS:          0
LLC WRITEBACK ACCESS:       7042  HIT:       6827  MISS:        215
Heartbeat CPU 0 instructions: 102000000 cycles: 201464914 heartbeat IPC: 0.228334 cumulative IPC: 0.277856 (Simulation time: 1 hr 26 min 10 sec) 

Region of Interest Statistics
cpu0_DTLB TOTAL     ACCESS:   11534691  HIT:   11324748  MISS:     209943
cpu0_DTLB LOAD      ACCESS:   10669337  HIT:   10463648  MISS:     205689
cpu0_DTLB RFO       ACCESS:     865354  HIT:     861100  MISS:       4254
cpu0_DTLB PREFETCH  ACCESS:          0  HIT:          0  MISS:          0
cpu0_DTLB WRITEBACK ACCESS:          0  HIT:          0  MISS:          0
cpu0_ITLB TOTAL     ACCESS:    7123543  HIT:    7110094  MISS:      13449
cpu0_ITLB LOAD      ACCESS:    7123543  HIT:    7110094  MISS:      13449
cpu0_ITLB RFO       ACCESS:          0  HIT:          0  MISS:          0
cpu0_ITLB PREFETCH  ACCESS:          0  HIT:          0  MISS:          0
cpu0_ITLB WRITEBACK ACCESS:          0  HIT:          0  MISS:          0
cpu0_L1I TOTAL     ACCESS:     365548  HIT:     301606  MISS:      63942
cpu0_L1I LOAD      ACCESS:     365548  HIT:     301606  MISS:      63942
cpu0_L1I RFO       ACCESS:          0  HIT:          0  MISS:          0
cpu0_L1I PREFETCH  ACCESS:          0  HIT:          0  MISS:          0
cpu0_L1I WRITEBACK ACCESS:          0  HIT:          0  MISS:          0
cpu0_STLB TOTAL     ACCESS:     223392  HIT:      43588  MISS:     179804
cpu0_STLB LOAD      ACCESS:     219138  HIT:      39946  MISS:     179192
cpu0_STLB RFO       ACCESS:       4254  HIT:       3642  MISS:        612
cpu0_STLB PREFETCH  ACCESS:          0  HIT:          0  MISS:          0
cpu0_STLB WRITEBACK ACCESS:          0  HIT:          0  MISS:          0
cpu0_L1D TOTAL     ACCESS:    9990552  HIT:    8549427  MISS:    1441125
cpu0_L1D LOAD      ACCESS:    8103793  HIT:    6671026  MISS:    1432767
cpu0_L1D RFO       ACCESS:    1731121  HIT:    1725903  MISS:       5218
cpu0_L1D PREFETCH  ACCESS:          0  HIT:          0  MISS:          0
cpu0_L1D WRITEBACK ACCESS:          0  HIT:          0  MISS:          0
cpu0_L2C TOTAL     ACCESS:    1517672  HIT:      73214  MISS:    1444458
cpu0_L2C LOAD      ACCESS:    1496708  HIT:      56306  MISS:    1440402
cpu0_L2C RFO       ACCESS:       5218  HIT:       1976  MISS:       3242
cpu0_L2C PREFETCH  ACCESS:          0  HIT:          0  MISS:          0
cpu0_L2C WRITEBACK ACCESS:      12606  HIT:      12397  MISS:        209
LLC TOTAL     ACCESS:    1451859  HIT:      24873  MISS:    1426986
LLC LOAD      ACCESS:    1440402  HIT:      16282  MISS:    1424120
LLC RFO       ACCESS:       3242  HIT:       1057  MISS:       2185
LLC PREFETCH  ACCESS:          0  HIT:          0  MISS:          0
LLC WRITEBACK ACCESS:       7610  HIT:       7385  MISS:        225
Heartbeat CPU 0 instructions: 104000000 cycles: 208182614 heartbeat IPC: 0.297721 cumulative IPC: 0.278544 (Simulation time: 1 hr 28 min 14 sec) 

Region of Interest Statistics
cpu0_DTLB TOTAL     ACCESS:   11967830  HIT:   11739419  MISS:     228411
cpu0_DTLB LOAD      ACCESS:   11052692  HIT:   10829107  MISS:     223585
cpu0_DTLB RFO       ACCESS:     915138  HIT:     910312  MISS:       4826
cpu0_DTLB PREFETCH  ACCESS:          0  HIT:          0  MISS:          0
cpu0_DTLB WRITEBACK ACCESS:          0  HIT:          0  MISS:          0
cpu0_ITLB TOTAL     ACCESS:    7376493  HIT:    7361381  MISS:      15112
cpu0_ITLB LOAD      ACCESS:    7376493  HIT:    7361381  MISS:      15112
cpu0_ITLB RFO       ACCESS:          0  HIT:          0  MISS:          0
cpu0_ITLB PREFETCH  ACCESS:          0  HIT:          0  MISS:          0
cpu0_ITLB WRITEBACK ACCESS:          0  HIT:          0  MISS:          0
cpu0_L1I TOTAL     ACCESS:     413581  HIT:     343299  MISS:      70282
cpu0_L1I LOAD      ACCESS:     413581  HIT:     343299  MISS:      70282
cpu0_L1I RFO       ACCESS:          0  HIT:          0  MISS:          0
cpu0_L1I PREFETCH  ACCESS:          0  HIT:          0  MISS:          0
cpu0_L1I WRITEBACK ACCESS:          0  HIT:          0  MISS:          0
cpu0_STLB TOTAL     ACCESS:     243523  HIT:      49726  MISS:     193797
cpu0_STLB LOAD      ACCESS:     238697  HIT:      45551  MISS:     193146
cpu0_STLB RFO       ACCESS:       4826  HIT:       4175  MISS:        651
cpu0_STLB PREFETCH  ACCESS:          0  HIT:          0  MISS:          0
cpu0_STLB WRITEBACK ACCESS:          0  HIT:          0  MISS:          0
cpu0_L1D TOTAL     ACCESS:   10394173  HIT:    8905574  MISS:    1488599
cpu0_L1D LOAD      ACCESS:    8399155  HIT:    6919819  MISS:    1479336
cpu0_L1D RFO       ACCESS:    1828440  HIT:    1822489  MISS:       5951
cpu0_L1D PREFETCH  ACCESS:          0  HIT:          0  MISS:          0
cpu0_L1D WRITEBACK ACCESS:          0  HIT:          0  MISS:          0
cpu0_L2C TOTAL     ACCESS:    1572905  HIT:      81967  MISS:    1490938
cpu0_L2C LOAD      ACCESS:    1549617  HIT:      63140  MISS:    1486477
cpu0_L2C RFO       ACCESS:       5951  HIT:       2347  MISS:       3604
cpu0_L2C PREFETCH  ACCESS:          0  HIT:          0  MISS:          0
cpu0_L2C WRITEBACK ACCESS:      14025  HIT:      13799  MISS:        226
LLC TOTAL     ACCESS:    1498912  HIT:      25847  MISS:    1473065
LLC LOAD      ACCESS:    1486477  HIT:      16599  MISS:    1469878
LLC RFO       ACCESS:       3604  HIT:       1129  MISS:       2475
LLC PREFETCH  ACCESS:          0  HIT:          0  MISS:          0
LLC WRITEBACK ACCESS:       8200  HIT:       7961  MISS:        239
Heartbeat CPU 0 instructions: 106000000 cycles: 215372504 heartbeat IPC: 0.278168 cumulative IPC: 0.278531 (Simulation time: 1 hr 30 min 17 sec) 

Region of Interest Statistics
cpu0_DTLB TOTAL     ACCESS:   12410687  HIT:   12174776  MISS:     235911
cpu0_DTLB LOAD      ACCESS:   11463478  HIT:   11232535  MISS:     230943
cpu0_DTLB RFO       ACCESS:     947209  HIT:     942241  MISS:       4968
cpu0_DTLB PREFETCH  ACCESS:          0  HIT:          0  MISS:          0
cpu0_DTLB WRITEBACK ACCESS:          0  HIT:          0  MISS:          0
cpu0_ITLB TOTAL     ACCESS:    7650301  HIT:    7634688  MISS:      15613
cpu0_ITLB LOAD      ACCESS:    7650301  HIT:    7634688  MISS:      15613
cpu0_ITLB RFO       ACCESS:          0  HIT:          0  MISS:          0
cpu0_ITLB PREFETCH  ACCESS:          0  HIT:          0  MISS:          0
cpu0_ITLB WRITEBACK ACCESS:          0  HIT:          0  MISS:          0
cpu0_L1I TOTAL     ACCESS:     426345  HIT:     353575  MISS:      72770
cpu0_L1I LOAD      ACCESS:     426345  HIT:     353575  MISS:      72770
cpu0_L1I RFO       ACCESS:          0  HIT:          0  MISS:          0
cpu0_L1I PREFETCH  ACCESS:          0  HIT:          0  MISS:          0
cpu0_L1I WRITEBACK ACCESS:          0  HIT:          0  MISS:          0
cpu0_STLB TOTAL     ACCESS:     251524  HIT:      51096  MISS:     200428
cpu0_STLB LOAD      ACCESS:     246556  HIT:      46809  MISS:     199747
cpu0_STLB RFO       ACCESS:       4968  HIT:       4287  MISS:        681
cpu0_STLB PREFETCH  ACCESS:          0  HIT:          0  MISS:          0
cpu0_STLB WRITEBACK ACCESS:          0  HIT:          0  MISS:          0
cpu0_L1D TOTAL     ACCESS:   10775731  HIT:    9232540  MISS:    1543191
cpu0_L1D LOAD      ACCESS:    8710441  HIT:    7176821  MISS:    1533620
cpu0_L1D RFO       ACCESS:    1892975  HIT:    1886840  MISS:       6135
cpu0_L1D PREFETCH  ACCESS:          0  HIT:          0  MISS:          0
cpu0_L1D WRITEBACK ACCESS:          0  HIT:          0  MISS:          0
cpu0_L2C TOTAL     ACCESS:    1630450  HIT:      84355  MISS:    1546095
cpu0_L2C LOAD      ACCESS:    1606389  HIT:      64923  MISS:    1541466
cpu0_L2C RFO       ACCESS:       6135  HIT:       2397  MISS:       3738
cpu0_L2C PREFETCH  ACCESS:          0  HIT:          0  MISS:          0
[...]
cpu0_DTLB PREFETCH  REQUESTED:          0  ISSUED:          0  USEFUL:          0  USELESS:          0
cpu0_DTLB AVERAGE MISS LATENCY: 42.4762 cycles
cpu0_ITLB TOTAL     ACCESS:  204448928  HIT:  204062535  MISS:     386393
cpu0_ITLB LOAD      ACCESS:  204448928  HIT:  204062535  MISS:     386393
cpu0_ITLB RFO       ACCESS:          0  HIT:          0  MISS:          0
cpu0_ITLB PREFETCH  ACCESS:          0  HIT:          0  MISS:          0
cpu0_ITLB WRITEBACK ACCESS:          0  HIT:          0  MISS:          0
cpu0_ITLB TRANSLATION ACCESS:          0  HIT:          0  MISS:          0
cpu0_ITLB PREFETCH  REQUESTED:          0  ISSUED:          0  USEFUL:          0  USELESS:          0
cpu0_ITLB AVERAGE MISS LATENCY: 10.8049 cycles
cpu0_L1I TOTAL     ACCESS:   10403048  HIT:    8528725  MISS:    1874323
cpu0_L1I LOAD      ACCESS:   10403048  HIT:    8528725  MISS:    1874323
cpu0_L1I RFO       ACCESS:          0  HIT:          0  MISS:          0
cpu0_L1I PREFETCH  ACCESS:          0  HIT:          0  MISS:          0
cpu0_L1I WRITEBACK ACCESS:          0  HIT:          0  MISS:          0
cpu0_L1I TRANSLATION ACCESS:          0  HIT:          0  MISS:          0
cpu0_L1I PREFETCH  REQUESTED:          0  ISSUED:          0  USEFUL:          0  USELESS:          0
cpu0_L1I AVERAGE MISS LATENCY: 91.4736 cycles
cpu0_STLB TOTAL     ACCESS:    6803258  HIT:    1216044  MISS:    5587214
cpu0_STLB LOAD      ACCESS:    6682328  HIT:    1114523  MISS:    5567805
cpu0_STLB RFO       ACCESS:     120930  HIT:     101521  MISS:      19409
cpu0_STLB PREFETCH  ACCESS:          0  HIT:          0  MISS:          0
cpu0_STLB WRITEBACK ACCESS:          0  HIT:          0  MISS:          0
cpu0_STLB TRANSLATION ACCESS:          0  HIT:          0  MISS:          0
cpu0_STLB PREFETCH  REQUESTED:          0  ISSUED:          0  USEFUL:          0  USELESS:          0
cpu0_STLB AVERAGE MISS LATENCY: 38.4835 cycles
cpu0_L1D TOTAL     ACCESS:  288241751  HIT:  246624478  MISS:   41617273
cpu0_L1D LOAD      ACCESS:  233569569  HIT:  192244868  MISS:   41324701
cpu0_L1D RFO       ACCESS:   49810305  HIT:   49605972  MISS:     204333
cpu0_L1D PREFETCH  ACCESS:          0  HIT:          0  MISS:          0
cpu0_L1D WRITEBACK ACCESS:          0  HIT:          0  MISS:          0
cpu0_L1D TRANSLATION ACCESS:    4861877  HIT:    4773638  MISS:      88239
cpu0_L1D PREFETCH  REQUESTED:          0  ISSUED:          0  USEFUL:          0  USELESS:          0
cpu0_L1D AVERAGE MISS LATENCY: 185.103 cycles
cpu0_L2C TOTAL     ACCESS:   43910670  HIT:    2038482  MISS:   41872188
cpu0_L2C LOAD      ACCESS:   43198952  HIT:    1503414  MISS:   41695538
cpu0_L2C RFO       ACCESS:     204327  HIT:      51585  MISS:     152742
cpu0_L2C PREFETCH  ACCESS:          0  HIT:          0  MISS:          0
cpu0_L2C WRITEBACK ACCESS:     419152  HIT:     413405  MISS:       5747
cpu0_L2C TRANSLATION ACCESS:      88239  HIT:      70078  MISS:      18161
cpu0_L2C PREFETCH  REQUESTED:          0  ISSUED:          0  USEFUL:          0  USELESS:          0
cpu0_L2C AVERAGE MISS LATENCY: 176.525 cycles
LLC TOTAL     ACCESS:   42157872  HIT:     844024  MISS:   41313848
LLC LOAD      ACCESS:   41695538  HIT:     515983  MISS:   41179555
LLC RFO       ACCESS:     152742  HIT:      37011  MISS:     115731
LLC PREFETCH  ACCESS:          0  HIT:          0  MISS:          0
LLC WRITEBACK ACCESS:     291431  HIT:     286154  MISS:       5277
LLC TRANSLATION ACCESS:      18161  HIT:       4876  MISS:      13285
LLC PREFETCH  REQUESTED:          0  ISSUED:          0  USEFUL:          0  USELESS:          0
LLC AVERAGE MISS LATENCY: 157.63 cycles
~~~~~~~~~~Reuse Distance Profiler output~~~~~~~~~~
0	49931152	31074912
1	33362032	25833312
2	27066800	26295264
3	5804112	5210288
4	8616656	8136640
5	10883296	4667808
6	3541088	3305776
7	945904	730208
8	1086752	858480
9	519776	356768
10	470736	277440
11	1478912	756160
12	2229888	228848
13	7009744	4860256
14	1508528	262464
15	921776	463264
16	461504	343888
17	770784	678240
18	1410800	1326528
19	4328384	4265616
20	333296	263936
21	242400	179200
22	179360	107792
23	217184	133424
24	295616	195344
25	450352	362048
26	1632624	1547760
27	4387808	4319856
28	3859952	3660480
29	2138352	1369360
30	2633376	522640
31	2133888	273408
32	1059648	322192
33	545328	255680
34	418832	257296
35	559360	354192
36	719904	546224
37	1363824	1299440
38	1622944	1591920
39	1674160	1652080
40	6157488	6136160
41	16492816	16469072
42	15264128	15237920
43	6754256	6735312
44	2310640	2289728
45	710624	689488
46	478048	452432
47	487424	448032
48	717904	674736
49	913920	871664
50	1157504	1132480
51	910720	883424
52	411488	386784
53	139808	112592
54	74080	49520
55	82448	57120
56	157696	113904
57	151920	118576
58	148656	121664
59	81936	67808
60	64368	47648
61	55952	38592
62	61072	44576
63	56688	42336
64	140800	110224
66	103440	78176
68	86048	65648
70	79776	62640
72	61136	46000
74	67120	59248
76	321104	313888
78	496272	489984
80	410944	403072
82	438512	429456
84	215056	207600
86	105008	99744
88	111424	106880
90	96000	90672
92	57232	51856
94	29344	25424
96	27280	21776
98	23248	17376
100	22432	19376
102	22976	19760
104	16864	14112
106	17792	15408
108	19440	17216
110	23520	21344
112	19632	16496
114	19600	13296
116	16256	13936
118	23136	20720
120	24272	20608
122	25968	22752
124	33840	29968
126	36992	33888
128	77520	71712
132	84976	78048
136	48080	41136
140	28832	21376
144	28848	22736
148	31216	24368
152	25648	19712
156	22800	17600
160	31680	26064
164	41904	36640
168	43168	36272
172	42048	34064
176	39648	32784
180	25888	19984
184	22752	16608
188	24944	18432
192	25520	18128
196	22256	16864
200	15392	12720
204	22064	19584
208	27760	23696
212	32256	27824
216	37856	32976
220	28960	24656
224	26352	22000
228	28656	23872
232	22544	19056
236	25472	22832
240	23680	20624
244	21216	18304
248	24944	21952
252	29168	25120
256	61040	55344
264	36048	32192
272	34128	29712
280	46976	42208
288	40688	36848
296	41344	37280
304	30608	26080
312	23264	20064
320	23536	20224
328	22448	17904
336	28112	23904
344	27760	24880
352	15168	12896
360	16864	14144
368	13504	12544
376	21856	20976
384	31120	29168
392	18112	16256
400	19840	17536
408	17904	16352
416	15856	14544
424	20608	19312
432	18752	16640
440	16704	14352
448	18816	15328
456	17984	15216
464	20288	17792
472	18592	16352
480	12432	10928
488	15680	14576
496	12960	11680
504	16928	15536
512	38272	35584
528	24064	21936
544	26208	23200
560	23120	20400
576	18992	16112
592	28256	21520
608	16192	10848
624	23968	16800
640	24000	19888
656	16928	14880
672	21360	19392
688	15504	14208
704	19536	18368
720	24016	20288
736	21056	15616
752	23792	18224
768	18048	13536
784	17296	14048
800	25584	21248
816	20848	15680
832	14848	10880
848	14736	12160
864	12512	10224
880	13888	11968
896	13936	11968
912	11616	9584
928	14960	11296
944	13808	10944
960	13264	10880
976	13296	10976
992	10208	7392
1008	11312	9008
1024	24480	21088
1056	24288	20512
1088	26112	23552
1120	20240	17936
1152	17344	14976
1184	20320	17472
1216	19072	16848
1248	19568	16080
1280	19984	17024
1312	21120	17968
1344	22624	19168
1376	23680	20208
1408	25136	21472
1440	24512	21792
1472	21648	19344
1504	21232	18064
1536	23120	19504
1568	33264	30288
1600	38640	34160
1632	34208	30320
1664	31760	28544
1696	34800	31024
1728	40000	37152
1760	38400	34480
1792	34080	30512
1824	34704	31040
1856	34464	31056
1888	26576	23824
1920	27056	24880
1952	26112	23584
1984	28096	25040
2016	27712	24512
2048	68208	61200
2112	102720	94112
2176	65056	59344
2240	52512	47920
2304	61936	55856
2368	68256	62720
2432	59600	53808
2496	49984	45568
2560	54320	46688
2624	50720	45824
2688	46384	41616
2752	58768	55200
2816	78912	70448
2880	77152	66592
2944	57744	49936
3008	46496	39648
3072	37952	33408
3136	42512	38496
3200	44624	39600
3264	40176	34448
3328	36064	30992
3392	33424	30304
3456	38992	35264
3520	54144	45584
3584	23728	20400
3648	19744	16080
3712	17760	15024
3776	19968	17376
3840	26880	24336
3904	19728	16880
3968	15664	12656
4032	12848	11056
4096	23392	19776
4224	25136	21200
4352	21088	17376
4480	15776	12816
4608	19600	15616
4736	26384	22832
4864	19632	16496
4992	29968	27360
5120	24960	22448
5248	11744	9712
5376	11792	10432
5504	16896	15088
5632	12128	10768
5760	17664	16000
5888	12448	11232
6016	18288	16672
6144	14064	12608
6272	8240	7040
6400	7328	5968
6528	4288	3280
6656	3952	3264
6784	9744	8608
6912	7904	6960
7040	5664	4880
7168	7616	6304
7296	7632	6688
7424	8048	7024
7552	9568	8464
7680	6288	5584
7808	7120	6112
7936	3920	3408
8064	2000	1696
8192	5280	4656
8448	4096	3600
8704	5280	4384
8960	3072	2720
9216	3680	3248
9472	4352	3920
9728	3536	3152
9984	2896	2448
10240	3152	2624
10496	3904	3296
10752	5552	4368
11008	7184	5904
11264	2864	2400
11520	2080	1584
11776	1712	1424
12032	1600	1328
12288	1280	1056
12544	1776	1520
12800	1408	1248
13056	832	720
13312	1296	1104
13568	944	688
13824	752	656
14080	1312	1120
14336	1040	880
14592	1728	1520
14848	2816	2528
15104	5600	5328
15360	1888	1712
15616	1712	1568
15872	1232	1008
16128	880	784
16384	1520	1232
16896	2592	2192
17408	1888	1312
17920	2416	2176
18432	1952	1696
18944	1664	1424
19456	1904	1680
19968	944	768
20480	1664	1552
20992	2192	2016
21504	1520	1280
22016	1552	1328
22528	1520	1216
23040	2592	1808
23552	1552	1424
24064	2176	1872
24576	2352	2160
25088	2656	2432
25600	2496	2288
26112	4528	4240
26624	2080	1856
27136	3792	3072
27648	1936	1488
28160	3056	2656
28672	3536	3184
29184	1840	1600
29696	1648	1488
30208	1408	1200
30720	1472	1184
31232	944	832
31744	1056	912
32256	1088	1008
32768	1328	1136
33792	3072	2832
34816	4144	3808
35840	1200	1136
36864	3408	3328
37888	1104	928
38912	2432	2368
39936	4000	3824
40960	2704	2592
41984	976	800
43008	3584	3424
44032	3728	3584
45056	3328	3232
46080	3920	3776
47104	7536	7328
48128	1072	912
49152	1296	1168
50176	1376	1232
51200	1072	928
52224	1424	1312
53248	15680	15504
54272	1088	928
55296	944	864
56320	768	688
57344	800	752
58368	784	720
59392	800	672
60416	912	864
61440	976	864
62464	864	832
63488	960	912
64512	5600	5488
65536	7744	7456
67584	1648	1536
69632	8656	8448
71680	15136	14928
73728	9088	8832
75776	24320	24096
77824	17280	17008
79872	2176	1904
81920	7600	7424
83968	10928	10736
86016	20416	20208
88064	11296	11152
90112	12160	11984
92160	2656	2448
94208	2544	2288
96256	2576	2368
98304	26192	25936
100352	13088	12928
102400	13488	13232
104448	2016	1936
106496	2944	2784
108544	39872	39696
110592	5920	5872
112640	22624	22432
114688	28240	28128
116736	29056	28960
118784	27456	27312
120832	43280	43184
122880	1424	1408
124928	16224	16160
126976	16704	16608
129024	1888	1680
131072	44032	43872
135168	3408	3248
139264	47920	47712
143360	14640	14416
147456	4544	4304
151552	17264	17072
155648	3440	3344
159744	40992	40800
163840	4864	4288
167936	55776	54512
172032	64048	62224
176128	59472	56176
180224	38784	37536
184320	40992	39936
188416	63568	62032
192512	107120	104896
196608	121136	119696
200704	145984	145136
204800	135136	134432
208896	85152	84576
212992	65872	65488
217088	16752	16048
221184	53312	52176
225280	52784	50512
229376	115824	114240
233472	25536	25040
237568	90448	89760
241664	64704	64048
245760	103040	101776
249856	89488	87904
253952	65600	64464
258048	17424	16944
262144	295856	295024
270336	115840	115280
278528	30848	30496
286720	123376	122848
294912	104320	104016
303104	144288	143744
311296	102512	102144
319488	150496	150128
327680	124656	124240
335872	121440	121056
344064	173344	172992
352256	69264	68768
360448	188064	187520
368640	79008	78736
376832	185424	184976
385024	181952	181280
393216	85376	84896
401408	201248	200848
409600	158512	158304
417792	186240	185824
425984	139936	139552
434176	205920	205440
442368	284832	284448
450560	254672	254384
458752	258864	258560
466944	169200	168912
475136	44720	44400
483328	223104	222784
491520	183072	182640
499712	169136	168944
507904	290480	290288
516096	72416	72176
524288	126192	125616
540672	109264	108752
557056	569296	568576
573440	384608	384272
589824	278736	278480
606208	100864	100464
622592	532320	531840
638976	233696	233104
655360	510560	510048
671744	237264	236640
688128	277136	276656
704512	196064	195728
720896	268832	268256
737280	341792	341376
753664	593904	593584
770048	469200	468912
786432	240256	239952
802816	130752	130336
819200	248304	247936
835584	246608	246320
851968	222816	222480
868352	597520	597216
884736	255056	254944
901120	405360	404816
917504	206800	203584
933888	2542112	2538816
950272	2948160	2946608
966656	355600	355360
983040	458224	458112
999424	309280	309232
1015808	395616	395472
1032192	268848	268720
1048576	293152	292928
1081344	360608	360160
1114112	583456	583072
1146880	572848	572656
1179648	421232	421088
1212416	397856	397760
1245184	378144	378016
1277952	524032	523872
1310720	335488	335312
1343488	411840	411696
1376256	241344	241232
1409024	301264	301024
1441792	655216	655040
1474560	180976	180784
1507328	248192	248064
1540096	592736	592624
1572864	152448	152416
1605632	313520	313424
1638400	1023984	1023680
1671168	621152	621120
1703936	323152	323072
1736704	362352	362224
1769472	439024	438912
1802240	170640	170624
1835008	288176	288144
1867776	225120	225056
1900544	129296	129280
1933312	111216	111184
1966080	435232	435200
1998848	131392	131360
2031616	21008	20880
2064384	248400	248352
2097152	436576	436384
2162688	285984	285776
2228224	49040	48848
2293760	304304	304064
2359296	139680	139456
2424832	404528	404416
2490368	92736	92656
2555904	368048	367984
2621440	73488	73392
2686976	163936	163856
2752512	96640	96496
2818048	272432	272192
2883584	194928	194784
2949120	42960	42784
3014656	130208	129984
3080192	166320	166208
3145728	172400	172320
3211264	135696	135584
3276800	226480	226096
3342336	149504	149408
3407872	88512	88368
3473408	145296	145200
3538944	73200	73072
3604480	33488	33408
3670016	43648	43584
3735552	89472	89376
3801088	6880	6832
3866624	115104	114992
3932160	66048	65520
3997696	68592	68368
4063232	26256	26016
4128768	29328	29104
4194304	428560	428064
4325376	259328	258864
4456448	166992	166928
4587520	72992	72848
4718592	164192	164032
4849664	47520	47296
4980736	47552	47440
5111808	81680	81440
5242880	160416	160224
5373952	119408	119232
5505024	39216	39136
5636096	7568	7488
5767168	88992	88896
5898240	5952	5664
6029312	143600	143280
6160384	91216	90992
6291456	28320	28176
6422528	5648	5520
6553600	84752	84544
6684672	74512	74272
6815744	69920	69488
6946816	3488	3344
7077888	3264	3056
7208960	5776	5568
7340032	16464	16288
7471104	106240	106176
7602176	5168	5008
7733248	13216	13088
7864320	36880	36752
7995392	76832	76704
8126464	2720	2496
8257536	4480	4144
8388608	32112	31328
8650752	24560	23584
8912896	6528	6256
9175040	8864	8240
9437184	68368	67968
9699328	46608	46352
9961472	7344	6688
10223616	10992	10464
10485760	72544	72080
10747904	4704	4256
11010048	33296	32752
11272192	11872	11536
11534336	2544	2448
11796480	5344	5104
12058624	61104	60800
12320768	5376	4896
12582912	5120	4672
12845056	2512	2416
13107200	3696	3312
13369344	19648	19440
13631488	2976	2880
13893632	3136	2512
14155776	2944	2496
14417920	2352	2144
14680064	3504	2704
14942208	2768	2496
15204352	4384	3840
15466496	3808	3072
15728640	2304	2112
15990784	2912	2496
16252928	3568	3248
16515072	4144	3216
16777216	8080	5216
17301504	6912	6512
17825792	8256	4720
18350080	5072	4752
18874368	6496	4304
19398656	5120	4064
19922944	19760	19360
20447232	6256	5664
20971520	5264	5104
21495808	7328	6752
22020096	3808	3472
22544384	6928	4288
23068672	4032	3680
23592960	3632	2880
24117248	5488	5360
24641536	6080	3344
25165824	6704	5808
25690112	4064	3696
26214400	5088	4912
26738688	4128	3616
27262976	4464	3952
27787264	5280	4672
28311552	3984	3648
28835840	3200	2720
29360128	4576	3216
29884416	3472	3264
30408704	3216	2880
30932992	4992	4848
31457280	4384	4192
31981568	3184	2992
32505856	2128	1904
33030144	2576	2192
33554432	5808	5616
34603008	6448	6112
35651584	7088	6416
36700160	5696	5456
37748736	6368	6160
38797312	5728	5488
39845888	5264	4928
40894464	5792	5552
41943040	4512	4336
42991616	4368	4224
44040192	5456	5328
45088768	4720	4496
46137344	4992	4816
47185920	4128	4096
48234496	5328	4640
49283072	4720	4640
50331648	4512	4496
51380224	5248	5168
52428800	4848	4800
53477376	3568	3568
54525952	3696	3696
55574528	5264	5264
56623104	3072	3056
57671680	4480	4448
58720256	2496	2496
59768832	4208	4064
60817408	3184	3168
61865984	4080	4080
62914560	3024	2992
63963136	2208	2192
65011712	2672	2672
66060288	3712	3536
67108864	5344	5328
69206016	4976	4976
71303168	5056	4992
73400320	5040	5008
75497472	5936	5904
77594624	4496	4480
79691776	4368	4368
81788928	4288	4288
83886080	4176	4176
85983232	2928	2928
88080384	2896	2896
90177536	3296	3296
92274688	3312	3296
94371840	3248	3248
96468992	3472	3456
98566144	3376	3376
100663296	2176	2176
102760448	2272	2272
104857600	2000	2000
106954752	1792	1792
109051904	2224	2224
111149056	2144	2144
113246208	2096	2096
115343360	1984	1984
117440512	2480	2480
119537664	1552	1552
121634816	1648	1632
123731968	1392	1392
125829120	1824	1824
127926272	1344	1344
130023424	1792	1792
132120576	1072	1072
134217728	3168	3168
138412032	2336	2336
142606336	1952	1936
146800640	2224	2224
150994944	2176	2176
155189248	848	848
159383552	1328	1328
163577856	1008	1008
167772160	928	928
171966464	944	944
176160768	832	832
180355072	784	784
184549376	768	768
188743680	1168	1168
192937984	336	336
197132288	688	688
201326592	320	320
205520896	608	608
209715200	240	240
213909504	528	528
218103808	384	384
222298112	192	192
226492416	368	368
230686720	208	208
234881024	128	128
239075328	80	80
243269632	96	96
247463936	240	240
251658240	192	192
255852544	112	112
260046848	32	32
264241152	96	96
268435456	176	176
276824064	32	32
285212672	0	0
293601280	0	0
301989888	0	0
310378496	0	0
318767104	0	0
327155712	0	0
335544320	0	0
343932928	0	0
352321536	0	0
360710144	0	0
369098752	0	0
377487360	0	0
385875968	0	0
394264576	0	0
402653184	0	0
411041792	0	0
419430400	0	0
427819008	0	0
436207616	0	0
444596224	0	0
452984832	0	0
461373440	0	0
469762048	0	0
478150656	0	0
486539264	0	0
494927872	0	0
503316480	0	0
511705088	0	0
520093696	0	0
528482304	0	0
536870912	0	0
553648128	0	0
570425344	0	0
587202560	0	0
603979776	0	0
620756992	0	0
637534208	0	0
654311424	0	0
671088640	0	0
687865856	0	0
704643072	0	0
721420288	0	0
738197504	0	0
754974720	0	0
771751936	0	0
788529152	0	0
805306368	0	0
822083584	0	0
838860800	0	0
855638016	0	0
872415232	0	0
889192448	0	0
905969664	0	0
922746880	0	0
939524096	0	0
956301312	0	0
973078528	0	0
989855744	0	0
1006632960	0	0
1023410176	0	0
1040187392	0	0
1056964608	0	0
1073741824	0	0
1107296256	0	0
1140850688	0	0
1174405120	0	0
1207959552	0	0
1241513984	0	0
1275068416	0	0
1308622848	0	0
1342177280	0	0
1375731712	0	0
1409286144	0	0
1442840576	0	0
1476395008	0	0
1509949440	0	0
1543503872	0	0
1577058304	0	0
1610612736	0	0
1644167168	0	0
1677721600	0	0
1711276032	0	0
1744830464	0	0
1778384896	0	0
1811939328	0	0
1845493760	0	0
1879048192	0	0
1912602624	0	0
1946157056	0	0
1979711488	0	0
2013265920	0	0
2046820352	0	0
2080374784	0	0
2113929216	0	0
2147483648	0	0
2214592512	0	0
2281701376	0	0
2348810240	0	0
2415919104	0	0
2483027968	0	0
2550136832	0	0
2617245696	0	0
2684354560	0	0
2751463424	0	0
2818572288	0	0
2885681152	0	0
2952790016	0	0
3019898880	0	0
3087007744	0	0
3154116608	0	0
3221225472	0	0
3288334336	0	0
3355443200	0	0
3422552064	0	0
3489660928	0	0
3556769792	0	0
3623878656	0	0
3690987520	0	0
3758096384	0	0
3825205248	0	0
3892314112	0	0
3959422976	0	0
4026531840	0	0
4093640704	0	0
4160749568	0	0
4227858432	0	0
~~~~~~~~~~Reuse Distance Profiler output end~~~~~~~~~~

Sampler size:26888

DRAM Statistics
 CHANNEL 0
 RQ ROW_BUFFER_HIT:   11453756  ROW_BUFFER_MISS:   29854777
 DBUS AVG_CONGESTED_CYCLE:    3.89542
 WQ ROW_BUFFER_HIT:      90024  ROW_BUFFER_MISS:      85865  FULL:          0


CPU 0 Branch Prediction Accuracy: 91.4372% MPKI: 24.4473 Average ROB Occupancy at Mispredict: 22.7565
Branch type MPKI
BRANCH_DIRECT_JUMP: 2.26667e-05
BRANCH_INDIRECT: 0.00630933
BRANCH_CONDITIONAL: 24.3449
BRANCH_DIRECT_CALL: 2.06667e-05
BRANCH_INDIRECT_CALL: 0.0226987
BRANCH_RETURN: 0.073348

