
*** ChampSim Multicore Out-of-Order Simulator ***

Warmup Instructions: 50000000
Simulation Instructions: 1500000000
Number of CPUs: 1
Off-chip DRAM Size: 4 GiB Channels: 1 Width: 64-bit Data Rate: 3200 MT/s

VirtualMemory physical capacity: 8588881920 num_ppages: 2096895
VirtualMemory page size: 4096 log2_page_size: 12

CPU 0 runs /s/traces/champsim_traces/483.xalancbmk-127B.champsimtrace.xz
CPU 0 Bimodal branch predictor
Basic BTB sets: 1024 ways: 8 indirect buffer size: 4096 RAS size: 64
Initializing LRU.
Initializing LRU.
Initializing LRU.
Initializing LRU.
Initializing rdLRU.
Initializing LRU.
Heartbeat CPU 0 instructions: 2000003 cycles: 572024 heartbeat IPC: 3.49636 cumulative IPC: 3.49636 (Simulation time: 0 hr 1 min 21 sec) 
Heartbeat CPU 0 instructions: 4000004 cycles: 1146093 heartbeat IPC: 3.4839 cumulative IPC: 3.49012 (Simulation time: 0 hr 2 min 41 sec) 
Heartbeat CPU 0 instructions: 6000003 cycles: 1720145 heartbeat IPC: 3.484 cumulative IPC: 3.48808 (Simulation time: 0 hr 4 min 5 sec) 
Heartbeat CPU 0 instructions: 8000002 cycles: 2291984 heartbeat IPC: 3.49749 cumulative IPC: 3.49043 (Simulation time: 0 hr 5 min 30 sec) 
Heartbeat CPU 0 instructions: 10000000 cycles: 2864264 heartbeat IPC: 3.49479 cumulative IPC: 3.4913 (Simulation time: 0 hr 6 min 51 sec) 
Heartbeat CPU 0 instructions: 12000004 cycles: 3439482 heartbeat IPC: 3.47695 cumulative IPC: 3.4889 (Simulation time: 0 hr 8 min 18 sec) 
Heartbeat CPU 0 instructions: 14000004 cycles: 4014687 heartbeat IPC: 3.47702 cumulative IPC: 3.4872 (Simulation time: 0 hr 9 min 35 sec) 
Heartbeat CPU 0 instructions: 16000004 cycles: 4579068 heartbeat IPC: 3.54371 cumulative IPC: 3.49416 (Simulation time: 0 hr 10 min 56 sec) 
Heartbeat CPU 0 instructions: 18000003 cycles: 5150151 heartbeat IPC: 3.50212 cumulative IPC: 3.49504 (Simulation time: 0 hr 12 min 16 sec) 
Heartbeat CPU 0 instructions: 20000000 cycles: 5724215 heartbeat IPC: 3.48393 cumulative IPC: 3.49393 (Simulation time: 0 hr 13 min 36 sec) 
Heartbeat CPU 0 instructions: 22000003 cycles: 6292145 heartbeat IPC: 3.52157 cumulative IPC: 3.49642 (Simulation time: 0 hr 14 min 58 sec) 
Heartbeat CPU 0 instructions: 24000001 cycles: 6863355 heartbeat IPC: 3.50134 cumulative IPC: 3.49683 (Simulation time: 0 hr 16 min 17 sec) 
Heartbeat CPU 0 instructions: 26000001 cycles: 7437421 heartbeat IPC: 3.48392 cumulative IPC: 3.49584 (Simulation time: 0 hr 17 min 43 sec) 
Heartbeat CPU 0 instructions: 28000001 cycles: 8008429 heartbeat IPC: 3.50258 cumulative IPC: 3.49632 (Simulation time: 0 hr 19 min 8 sec) 
Heartbeat CPU 0 instructions: 30000001 cycles: 8582485 heartbeat IPC: 3.48398 cumulative IPC: 3.49549 (Simulation time: 0 hr 20 min 30 sec) 
Heartbeat CPU 0 instructions: 32000002 cycles: 9153644 heartbeat IPC: 3.50165 cumulative IPC: 3.49588 (Simulation time: 0 hr 21 min 57 sec) 
Heartbeat CPU 0 instructions: 34000001 cycles: 9727717 heartbeat IPC: 3.48388 cumulative IPC: 3.49517 (Simulation time: 0 hr 23 min 23 sec) 
Heartbeat CPU 0 instructions: 36000002 cycles: 10301780 heartbeat IPC: 3.48394 cumulative IPC: 3.49454 (Simulation time: 0 hr 24 min 48 sec) 
Heartbeat CPU 0 instructions: 38000000 cycles: 10891831 heartbeat IPC: 3.38953 cumulative IPC: 3.48885 (Simulation time: 0 hr 26 min 12 sec) 
Heartbeat CPU 0 instructions: 40000002 cycles: 11463812 heartbeat IPC: 3.49662 cumulative IPC: 3.48924 (Simulation time: 0 hr 27 min 32 sec) 
Heartbeat CPU 0 instructions: 42000001 cycles: 12037887 heartbeat IPC: 3.48386 cumulative IPC: 3.48898 (Simulation time: 0 hr 28 min 54 sec) 
Heartbeat CPU 0 instructions: 44000002 cycles: 12609124 heartbeat IPC: 3.50118 cumulative IPC: 3.48954 (Simulation time: 0 hr 30 min 12 sec) 
Heartbeat CPU 0 instructions: 46000002 cycles: 13168195 heartbeat IPC: 3.57736 cumulative IPC: 3.49327 (Simulation time: 0 hr 31 min 30 sec) 
Heartbeat CPU 0 instructions: 48000002 cycles: 13745599 heartbeat IPC: 3.46378 cumulative IPC: 3.49203 (Simulation time: 0 hr 32 min 51 sec) 
Heartbeat CPU 0 instructions: 50000001 cycles: 14316600 heartbeat IPC: 3.50262 cumulative IPC: 3.49245 (Simulation time: 0 hr 34 min 6 sec) 

Warmup complete CPU 0 instructions: 50000001 cycles: 14316600 (Simulation time: 0 hr 34 min 6 sec) 

Heartbeat CPU 0 instructions: 52000001 cycles: 21534075 heartbeat IPC: 0.277105 cumulative IPC: 0.277105 (Simulation time: 0 hr 36 min 9 sec) 

Region of Interest Statistics
cpu0_DTLB TOTAL     ACCESS:     445101  HIT:     440568  MISS:       4533
cpu0_DTLB LOAD      ACCESS:     419136  HIT:     414603  MISS:       4533
cpu0_DTLB RFO       ACCESS:      25965  HIT:      25965  MISS:          0
cpu0_DTLB PREFETCH  ACCESS:          0  HIT:          0  MISS:          0
cpu0_DTLB WRITEBACK ACCESS:          0  HIT:          0  MISS:          0
cpu0_ITLB TOTAL     ACCESS:     279538  HIT:     279538  MISS:          0
cpu0_ITLB LOAD      ACCESS:     279538  HIT:     279538  MISS:          0
cpu0_ITLB RFO       ACCESS:          0  HIT:          0  MISS:          0
cpu0_ITLB PREFETCH  ACCESS:          0  HIT:          0  MISS:          0
cpu0_ITLB WRITEBACK ACCESS:          0  HIT:          0  MISS:          0
cpu0_L1I TOTAL     ACCESS:         10  HIT:         10  MISS:          0
cpu0_L1I LOAD      ACCESS:         10  HIT:         10  MISS:          0
cpu0_L1I RFO       ACCESS:          0  HIT:          0  MISS:          0
cpu0_L1I PREFETCH  ACCESS:          0  HIT:          0  MISS:          0
cpu0_L1I WRITEBACK ACCESS:          0  HIT:          0  MISS:          0
cpu0_STLB TOTAL     ACCESS:       4533  HIT:        103  MISS:       4430
cpu0_STLB LOAD      ACCESS:       4533  HIT:        103  MISS:       4430
cpu0_STLB RFO       ACCESS:          0  HIT:          0  MISS:          0
cpu0_STLB PREFETCH  ACCESS:          0  HIT:          0  MISS:          0
cpu0_STLB WRITEBACK ACCESS:          0  HIT:          0  MISS:          0
cpu0_L1D TOTAL     ACCESS:     372520  HIT:     315755  MISS:      56765
cpu0_L1D LOAD      ACCESS:     316270  HIT:     259606  MISS:      56664
cpu0_L1D RFO       ACCESS:      51938  HIT:      51938  MISS:          0
cpu0_L1D PREFETCH  ACCESS:          0  HIT:          0  MISS:          0
cpu0_L1D WRITEBACK ACCESS:          0  HIT:          0  MISS:          0
cpu0_L2C TOTAL     ACCESS:      56765  HIT:        101  MISS:      56664
cpu0_L2C LOAD      ACCESS:      56664  HIT:         10  MISS:      56654
cpu0_L2C RFO       ACCESS:          0  HIT:          0  MISS:          0
cpu0_L2C PREFETCH  ACCESS:          0  HIT:          0  MISS:          0
cpu0_L2C WRITEBACK ACCESS:          0  HIT:          0  MISS:          0
LLC TOTAL     ACCESS:      56664  HIT:          8  MISS:      56656
LLC LOAD      ACCESS:      56654  HIT:          1  MISS:      56653
LLC RFO       ACCESS:          0  HIT:          0  MISS:          0
LLC PREFETCH  ACCESS:          0  HIT:          0  MISS:          0
LLC WRITEBACK ACCESS:          0  HIT:          0  MISS:          0
Heartbeat CPU 0 instructions: 54000002 cycles: 28548549 heartbeat IPC: 0.285125 cumulative IPC: 0.281058 (Simulation time: 0 hr 38 min 14 sec) 

Region of Interest Statistics
cpu0_DTLB TOTAL     ACCESS:     891715  HIT:     879835  MISS:      11880
cpu0_DTLB LOAD      ACCESS:     828228  HIT:     816586  MISS:      11642
cpu0_DTLB RFO       ACCESS:      63487  HIT:      63249  MISS:        238
cpu0_DTLB PREFETCH  ACCESS:          0  HIT:          0  MISS:          0
cpu0_DTLB WRITEBACK ACCESS:          0  HIT:          0  MISS:          0
cpu0_ITLB TOTAL     ACCESS:     552440  HIT:     551564  MISS:        876
cpu0_ITLB LOAD      ACCESS:     552440  HIT:     551564  MISS:        876
cpu0_ITLB RFO       ACCESS:          0  HIT:          0  MISS:          0
cpu0_ITLB PREFETCH  ACCESS:          0  HIT:          0  MISS:          0
cpu0_ITLB WRITEBACK ACCESS:          0  HIT:          0  MISS:          0
cpu0_L1I TOTAL     ACCESS:      22420  HIT:      17926  MISS:       4494
cpu0_L1I LOAD      ACCESS:      22420  HIT:      17926  MISS:       4494
cpu0_L1I RFO       ACCESS:          0  HIT:          0  MISS:          0
cpu0_L1I PREFETCH  ACCESS:          0  HIT:          0  MISS:          0
cpu0_L1I WRITEBACK ACCESS:          0  HIT:          0  MISS:          0
cpu0_STLB TOTAL     ACCESS:      12756  HIT:       2292  MISS:      10464
cpu0_STLB LOAD      ACCESS:      12518  HIT:       2111  MISS:      10407
cpu0_STLB RFO       ACCESS:        238  HIT:        181  MISS:         57
cpu0_STLB PREFETCH  ACCESS:          0  HIT:          0  MISS:          0
cpu0_STLB WRITEBACK ACCESS:          0  HIT:          0  MISS:          0
cpu0_L1D TOTAL     ACCESS:     762727  HIT:     652222  MISS:     110505
cpu0_L1D LOAD      ACCESS:     626002  HIT:     516049  MISS:     109953
cpu0_L1D RFO       ACCESS:     127428  HIT:     127122  MISS:        306
cpu0_L1D PREFETCH  ACCESS:          0  HIT:          0  MISS:          0
cpu0_L1D WRITEBACK ACCESS:          0  HIT:          0  MISS:          0
cpu0_L2C TOTAL     ACCESS:     115763  HIT:       3793  MISS:     111970
cpu0_L2C LOAD      ACCESS:     114447  HIT:       2775  MISS:     111672
cpu0_L2C RFO       ACCESS:        306  HIT:         70  MISS:        236
cpu0_L2C PREFETCH  ACCESS:          0  HIT:          0  MISS:          0
cpu0_L2C WRITEBACK ACCESS:        764  HIT:        749  MISS:         15
LLC TOTAL     ACCESS:     112262  HIT:        973  MISS:     111289
LLC LOAD      ACCESS:     111672  HIT:        560  MISS:     111112
LLC RFO       ACCESS:        236  HIT:         90  MISS:        146
LLC PREFETCH  ACCESS:          0  HIT:          0  MISS:          0
LLC WRITEBACK ACCESS:        307  HIT:        300  MISS:          7
Heartbeat CPU 0 instructions: 56000002 cycles: 35597994 heartbeat IPC: 0.28371 cumulative IPC: 0.281936 (Simulation time: 0 hr 40 min 11 sec) 

Region of Interest Statistics
cpu0_DTLB TOTAL     ACCESS:    1339394  HIT:    1322920  MISS:      16474
cpu0_DTLB LOAD      ACCESS:    1250504  HIT:    1234268  MISS:      16236
cpu0_DTLB RFO       ACCESS:      88890  HIT:      88652  MISS:        238
cpu0_DTLB PREFETCH  ACCESS:          0  HIT:          0  MISS:          0
cpu0_DTLB WRITEBACK ACCESS:          0  HIT:          0  MISS:          0
cpu0_ITLB TOTAL     ACCESS:     837039  HIT:     836163  MISS:        876
cpu0_ITLB LOAD      ACCESS:     837039  HIT:     836163  MISS:        876
cpu0_ITLB RFO       ACCESS:          0  HIT:          0  MISS:          0
cpu0_ITLB PREFETCH  ACCESS:          0  HIT:          0  MISS:          0
cpu0_ITLB WRITEBACK ACCESS:          0  HIT:          0  MISS:          0
cpu0_L1I TOTAL     ACCESS:      22420  HIT:      17926  MISS:       4494
cpu0_L1I LOAD      ACCESS:      22420  HIT:      17926  MISS:       4494
cpu0_L1I RFO       ACCESS:          0  HIT:          0  MISS:          0
cpu0_L1I PREFETCH  ACCESS:          0  HIT:          0  MISS:          0
cpu0_L1I WRITEBACK ACCESS:          0  HIT:          0  MISS:          0
cpu0_STLB TOTAL     ACCESS:      17350  HIT:       2405  MISS:      14945
cpu0_STLB LOAD      ACCESS:      17112  HIT:       2224  MISS:      14888
cpu0_STLB RFO       ACCESS:        238  HIT:        181  MISS:         57
cpu0_STLB PREFETCH  ACCESS:          0  HIT:          0  MISS:          0
cpu0_STLB WRITEBACK ACCESS:          0  HIT:          0  MISS:          0
cpu0_L1D TOTAL     ACCESS:    1128112  HIT:     962072  MISS:     166040
cpu0_L1D LOAD      ACCESS:     936250  HIT:     770851  MISS:     165399
cpu0_L1D RFO       ACCESS:     178236  HIT:     177930  MISS:        306
cpu0_L1D PREFETCH  ACCESS:          0  HIT:          0  MISS:          0
cpu0_L1D WRITEBACK ACCESS:          0  HIT:          0  MISS:          0
cpu0_L2C TOTAL     ACCESS:     171313  HIT:       3895  MISS:     167418
cpu0_L2C LOAD      ACCESS:     169893  HIT:       2785  MISS:     167108
cpu0_L2C RFO       ACCESS:        306  HIT:         70  MISS:        236
cpu0_L2C PREFETCH  ACCESS:          0  HIT:          0  MISS:          0
cpu0_L2C WRITEBACK ACCESS:        779  HIT:        764  MISS:         15
LLC TOTAL     ACCESS:     168013  HIT:       2688  MISS:     165325
LLC LOAD      ACCESS:     167108  HIT:       1966  MISS:     165142
LLC RFO       ACCESS:        236  HIT:         90  MISS:        146
LLC PREFETCH  ACCESS:          0  HIT:          0  MISS:          0
LLC WRITEBACK ACCESS:        610  HIT:        597  MISS:         13
Heartbeat CPU 0 instructions: 58000003 cycles: 42624078 heartbeat IPC: 0.284654 cumulative IPC: 0.282611 (Simulation time: 0 hr 42 min 12 sec) 

Region of Interest Statistics
cpu0_DTLB TOTAL     ACCESS:    1786708  HIT:    1764407  MISS:      22301
cpu0_DTLB LOAD      ACCESS:    1666326  HIT:    1644377  MISS:      21949
cpu0_DTLB RFO       ACCESS:     120382  HIT:     120030  MISS:        352
cpu0_DTLB PREFETCH  ACCESS:          0  HIT:          0  MISS:          0
cpu0_DTLB WRITEBACK ACCESS:          0  HIT:          0  MISS:          0
cpu0_ITLB TOTAL     ACCESS:    1115781  HIT:    1114467  MISS:       1314
cpu0_ITLB LOAD      ACCESS:    1115781  HIT:    1114467  MISS:       1314
cpu0_ITLB RFO       ACCESS:          0  HIT:          0  MISS:          0
cpu0_ITLB PREFETCH  ACCESS:          0  HIT:          0  MISS:          0
cpu0_ITLB WRITEBACK ACCESS:          0  HIT:          0  MISS:          0
cpu0_L1I TOTAL     ACCESS:      33686  HIT:      26942  MISS:       6744
cpu0_L1I LOAD      ACCESS:      33686  HIT:      26942  MISS:       6744
cpu0_L1I RFO       ACCESS:          0  HIT:          0  MISS:          0
cpu0_L1I PREFETCH  ACCESS:          0  HIT:          0  MISS:          0
cpu0_L1I WRITEBACK ACCESS:          0  HIT:          0  MISS:          0
cpu0_STLB TOTAL     ACCESS:      23615  HIT:       3529  MISS:      20086
cpu0_STLB LOAD      ACCESS:      23263  HIT:       3261  MISS:      20002
cpu0_STLB RFO       ACCESS:        352  HIT:        268  MISS:         84
cpu0_STLB PREFETCH  ACCESS:          0  HIT:          0  MISS:          0
cpu0_STLB WRITEBACK ACCESS:          0  HIT:          0  MISS:          0
cpu0_L1D TOTAL     ACCESS:    1505550  HIT:    1284867  MISS:     220683
cpu0_L1D LOAD      ACCESS:    1245930  HIT:    1026162  MISS:     219768
cpu0_L1D RFO       ACCESS:     241409  HIT:     240954  MISS:        455
cpu0_L1D PREFETCH  ACCESS:          0  HIT:          0  MISS:          0
cpu0_L1D WRITEBACK ACCESS:          0  HIT:          0  MISS:          0
cpu0_L2C TOTAL     ACCESS:     228606  HIT:       5840  MISS:     222766
cpu0_L2C LOAD      ACCESS:     226512  HIT:       4199  MISS:     222313
cpu0_L2C RFO       ACCESS:        455  HIT:        106  MISS:        349
cpu0_L2C PREFETCH  ACCESS:          0  HIT:          0  MISS:          0
cpu0_L2C WRITEBACK ACCESS:       1179  HIT:       1157  MISS:         22
LLC TOTAL     ACCESS:     223380  HIT:       2896  MISS:     220484
LLC LOAD      ACCESS:     222314  HIT:       2104  MISS:     220210
LLC RFO       ACCESS:        349  HIT:        123  MISS:        226
LLC PREFETCH  ACCESS:          0  HIT:          0  MISS:          0
LLC WRITEBACK ACCESS:        635  HIT:        622  MISS:         13
Heartbeat CPU 0 instructions: 60000000 cycles: 49771806 heartbeat IPC: 0.279809 cumulative IPC: 0.282046 (Simulation time: 0 hr 44 min 15 sec) 

Region of Interest Statistics
cpu0_DTLB TOTAL     ACCESS:    2234712  HIT:    2207831  MISS:      26881
cpu0_DTLB LOAD      ACCESS:    2088908  HIT:    2062379  MISS:      26529
cpu0_DTLB RFO       ACCESS:     145804  HIT:     145452  MISS:        352
cpu0_DTLB PREFETCH  ACCESS:          0  HIT:          0  MISS:          0
cpu0_DTLB WRITEBACK ACCESS:          0  HIT:          0  MISS:          0
cpu0_ITLB TOTAL     ACCESS:    1400373  HIT:    1399059  MISS:       1314
cpu0_ITLB LOAD      ACCESS:    1400373  HIT:    1399059  MISS:       1314
cpu0_ITLB RFO       ACCESS:          0  HIT:          0  MISS:          0
cpu0_ITLB PREFETCH  ACCESS:          0  HIT:          0  MISS:          0
cpu0_ITLB WRITEBACK ACCESS:          0  HIT:          0  MISS:          0
cpu0_L1I TOTAL     ACCESS:      33686  HIT:      26942  MISS:       6744
cpu0_L1I LOAD      ACCESS:      33686  HIT:      26942  MISS:       6744
cpu0_L1I RFO       ACCESS:          0  HIT:          0  MISS:          0
cpu0_L1I PREFETCH  ACCESS:          0  HIT:          0  MISS:          0
cpu0_L1I WRITEBACK ACCESS:          0  HIT:          0  MISS:          0
cpu0_STLB TOTAL     ACCESS:      28195  HIT:       3652  MISS:      24543
cpu0_STLB LOAD      ACCESS:      27843  HIT:       3384  MISS:      24459
cpu0_STLB RFO       ACCESS:        352  HIT:        268  MISS:         84
cpu0_STLB PREFETCH  ACCESS:          0  HIT:          0  MISS:          0
cpu0_STLB WRITEBACK ACCESS:          0  HIT:          0  MISS:          0
cpu0_L1D TOTAL     ACCESS:    1870907  HIT:    1594649  MISS:     276258
cpu0_L1D LOAD      ACCESS:    1556133  HIT:    1280885  MISS:     275248
cpu0_L1D RFO       ACCESS:     292253  HIT:     291798  MISS:        455
cpu0_L1D PREFETCH  ACCESS:          0  HIT:          0  MISS:          0
cpu0_L1D WRITEBACK ACCESS:          0  HIT:          0  MISS:          0
cpu0_L2C TOTAL     ACCESS:     284181  HIT:       5930  MISS:     278251
cpu0_L2C LOAD      ACCESS:     281992  HIT:       4210  MISS:     277782
cpu0_L2C RFO       ACCESS:        455  HIT:        106  MISS:        349
cpu0_L2C PREFETCH  ACCESS:          0  HIT:          0  MISS:          0
cpu0_L2C WRITEBACK ACCESS:       1179  HIT:       1157  MISS:         22
LLC TOTAL     ACCESS:     279142  HIT:       3270  MISS:     275872
LLC LOAD      ACCESS:     277782  HIT:       2192  MISS:     275590
LLC RFO       ACCESS:        349  HIT:        123  MISS:        226
LLC PREFETCH  ACCESS:          0  HIT:          0  MISS:          0
LLC WRITEBACK ACCESS:        913  HIT:        893  MISS:         20
Heartbeat CPU 0 instructions: 62000002 cycles: 55930850 heartbeat IPC: 0.324726 cumulative IPC: 0.288363 (Simulation time: 0 hr 46 min 7 sec) 

Region of Interest Statistics
cpu0_DTLB TOTAL     ACCESS:    2674334  HIT:    2636589  MISS:      37745
cpu0_DTLB LOAD      ACCESS:    2485276  HIT:    2448218  MISS:      37058
cpu0_DTLB RFO       ACCESS:     189058  HIT:     188371  MISS:        687
cpu0_DTLB PREFETCH  ACCESS:          0  HIT:          0  MISS:          0
cpu0_DTLB WRITEBACK ACCESS:          0  HIT:          0  MISS:          0
cpu0_ITLB TOTAL     ACCESS:    1664451  HIT:    1661958  MISS:       2493
cpu0_ITLB LOAD      ACCESS:    1664451  HIT:    1661958  MISS:       2493
cpu0_ITLB RFO       ACCESS:          0  HIT:          0  MISS:          0
cpu0_ITLB PREFETCH  ACCESS:          0  HIT:          0  MISS:          0
cpu0_ITLB WRITEBACK ACCESS:          0  HIT:          0  MISS:          0
cpu0_L1I TOTAL     ACCESS:      64286  HIT:      51349  MISS:      12937
cpu0_L1I LOAD      ACCESS:      64286  HIT:      51349  MISS:      12937
cpu0_L1I RFO       ACCESS:          0  HIT:          0  MISS:          0
cpu0_L1I PREFETCH  ACCESS:          0  HIT:          0  MISS:          0
cpu0_L1I WRITEBACK ACCESS:          0  HIT:          0  MISS:          0
cpu0_STLB TOTAL     ACCESS:      40238  HIT:       6940  MISS:      33298
cpu0_STLB LOAD      ACCESS:      39551  HIT:       6403  MISS:      33148
cpu0_STLB RFO       ACCESS:        687  HIT:        537  MISS:        150
cpu0_STLB PREFETCH  ACCESS:          0  HIT:          0  MISS:          0
cpu0_STLB WRITEBACK ACCESS:          0  HIT:          0  MISS:          0
cpu0_L1D TOTAL     ACCESS:    2279811  HIT:    1946485  MISS:     333326
cpu0_L1D LOAD      ACCESS:    1870604  HIT:    1538885  MISS:     331719
cpu0_L1D RFO       ACCESS:     379522  HIT:     378628  MISS:        894
cpu0_L1D PREFETCH  ACCESS:          0  HIT:          0  MISS:          0
cpu0_L1D WRITEBACK ACCESS:          0  HIT:          0  MISS:          0
cpu0_L2C TOTAL     ACCESS:     348613  HIT:      11149  MISS:     337464
cpu0_L2C LOAD      ACCESS:     344655  HIT:       8069  MISS:     336586
cpu0_L2C RFO       ACCESS:        894  HIT:        207  MISS:        687
cpu0_L2C PREFETCH  ACCESS:          0  HIT:          0  MISS:          0
cpu0_L2C WRITEBACK ACCESS:       2351  HIT:       2309  MISS:         42
LLC TOTAL     ACCESS:     339234  HIT:      23307  MISS:     315927
LLC LOAD      ACCESS:     336586  HIT:      21043  MISS:     315543
LLC RFO       ACCESS:        687  HIT:        377  MISS:        310
LLC PREFETCH  ACCESS:          0  HIT:          0  MISS:          0
LLC WRITEBACK ACCESS:       1812  HIT:       1784  MISS:         28
Heartbeat CPU 0 instructions: 64000002 cycles: 64126737 heartbeat IPC: 0.244025 cumulative IPC: 0.281067 (Simulation time: 0 hr 48 min 29 sec) 

Region of Interest Statistics
cpu0_DTLB TOTAL     ACCESS:    3109154  HIT:    3053610  MISS:      55544
cpu0_DTLB LOAD      ACCESS:    2879118  HIT:    2824587  MISS:      54531
cpu0_DTLB RFO       ACCESS:     230036  HIT:     229023  MISS:       1013
cpu0_DTLB PREFETCH  ACCESS:          0  HIT:          0  MISS:          0
cpu0_DTLB WRITEBACK ACCESS:          0  HIT:          0  MISS:          0
cpu0_ITLB TOTAL     ACCESS:    1929647  HIT:    1926124  MISS:       3523
cpu0_ITLB LOAD      ACCESS:    1929647  HIT:    1926124  MISS:       3523
cpu0_ITLB RFO       ACCESS:          0  HIT:          0  MISS:          0
cpu0_ITLB PREFETCH  ACCESS:          0  HIT:          0  MISS:          0
cpu0_ITLB WRITEBACK ACCESS:          0  HIT:          0  MISS:          0
cpu0_L1I TOTAL     ACCESS:      92630  HIT:      74409  MISS:      18221
cpu0_L1I LOAD      ACCESS:      92630  HIT:      74409  MISS:      18221
cpu0_L1I RFO       ACCESS:          0  HIT:          0  MISS:          0
cpu0_L1I PREFETCH  ACCESS:          0  HIT:          0  MISS:          0
cpu0_L1I WRITEBACK ACCESS:          0  HIT:          0  MISS:          0
cpu0_STLB TOTAL     ACCESS:      59067  HIT:       9980  MISS:      49087
cpu0_STLB LOAD      ACCESS:      58054  HIT:       9166  MISS:      48888
cpu0_STLB RFO       ACCESS:       1013  HIT:        814  MISS:        199
cpu0_STLB PREFETCH  ACCESS:          0  HIT:          0  MISS:          0
cpu0_STLB WRITEBACK ACCESS:          0  HIT:          0  MISS:          0
cpu0_L1D TOTAL     ACCESS:    2690181  HIT:    2298914  MISS:     391267
cpu0_L1D LOAD      ACCESS:    2184975  HIT:    1795821  MISS:     389154
cpu0_L1D RFO       ACCESS:     461907  HIT:     460643  MISS:       1264
cpu0_L1D PREFETCH  ACCESS:          0  HIT:          0  MISS:          0
cpu0_L1D WRITEBACK ACCESS:          0  HIT:          0  MISS:          0
cpu0_L2C TOTAL     ACCESS:     412713  HIT:      15961  MISS:     396752
cpu0_L2C LOAD      ACCESS:     407374  HIT:      11827  MISS:     395547
cpu0_L2C RFO       ACCESS:       1264  HIT:        307  MISS:        957
cpu0_L2C PREFETCH  ACCESS:          0  HIT:          0  MISS:          0
cpu0_L2C WRITEBACK ACCESS:       3226  HIT:       3169  MISS:         57
LLC TOTAL     ACCESS:     399037  HIT:      27471  MISS:     371566
LLC LOAD      ACCESS:     395547  HIT:      24487  MISS:     371060
LLC RFO       ACCESS:        957  HIT:        533  MISS:        424
LLC PREFETCH  ACCESS:          0  HIT:          0  MISS:          0
LLC WRITEBACK ACCESS:       2342  HIT:       2309  MISS:         33
Heartbeat CPU 0 instructions: 66000000 cycles: 71050960 heartbeat IPC: 0.288841 cumulative IPC: 0.282016 (Simulation time: 0 hr 50 min 27 sec) 

Region of Interest Statistics
cpu0_DTLB TOTAL     ACCESS:    3548659  HIT:    3482713  MISS:      65946
cpu0_DTLB LOAD      ACCESS:    3289238  HIT:    3224453  MISS:      64785
cpu0_DTLB RFO       ACCESS:     259421  HIT:     258260  MISS:       1161
cpu0_DTLB PREFETCH  ACCESS:          0  HIT:          0  MISS:          0
cpu0_DTLB WRITEBACK ACCESS:          0  HIT:          0  MISS:          0
cpu0_ITLB TOTAL     ACCESS:    2207911  HIT:    2203884  MISS:       4027
cpu0_ITLB LOAD      ACCESS:    2207911  HIT:    2203884  MISS:       4027
cpu0_ITLB RFO       ACCESS:          0  HIT:          0  MISS:          0
cpu0_ITLB PREFETCH  ACCESS:          0  HIT:          0  MISS:          0
cpu0_ITLB WRITEBACK ACCESS:          0  HIT:          0  MISS:          0
cpu0_L1I TOTAL     ACCESS:     105511  HIT:      84797  MISS:      20714
cpu0_L1I LOAD      ACCESS:     105511  HIT:      84797  MISS:      20714
cpu0_L1I RFO       ACCESS:          0  HIT:          0  MISS:          0
cpu0_L1I PREFETCH  ACCESS:          0  HIT:          0  MISS:          0
cpu0_L1I WRITEBACK ACCESS:          0  HIT:          0  MISS:          0
cpu0_STLB TOTAL     ACCESS:      69973  HIT:      11455  MISS:      58518
cpu0_STLB LOAD      ACCESS:      68812  HIT:      10518  MISS:      58294
cpu0_STLB RFO       ACCESS:       1161  HIT:        937  MISS:        224
cpu0_STLB PREFETCH  ACCESS:          0  HIT:          0  MISS:          0
cpu0_STLB WRITEBACK ACCESS:          0  HIT:          0  MISS:          0
cpu0_L1D TOTAL     ACCESS:    3057849  HIT:    2615378  MISS:     442471
cpu0_L1D LOAD      ACCESS:    2485080  HIT:    2045015  MISS:     440065
cpu0_L1D RFO       ACCESS:     521139  HIT:     519682  MISS:       1457
cpu0_L1D PREFETCH  ACCESS:          0  HIT:          0  MISS:          0
cpu0_L1D WRITEBACK ACCESS:          0  HIT:          0  MISS:          0
cpu0_L2C TOTAL     ACCESS:     466877  HIT:      18353  MISS:     448524
cpu0_L2C LOAD      ACCESS:     460778  HIT:      13633  MISS:     447145
cpu0_L2C RFO       ACCESS:       1457  HIT:        363  MISS:       1094
cpu0_L2C PREFETCH  ACCESS:          0  HIT:          0  MISS:          0
cpu0_L2C WRITEBACK ACCESS:       3693  HIT:       3628  MISS:         65
LLC TOTAL     ACCESS:     451258  HIT:      30550  MISS:     420708
LLC LOAD      ACCESS:     447145  HIT:      26991  MISS:     420154
LLC RFO       ACCESS:       1094  HIT:        628  MISS:        466
LLC PREFETCH  ACCESS:          0  HIT:          0  MISS:          0
LLC WRITEBACK ACCESS:       2799  HIT:       2760  MISS:         39
Heartbeat CPU 0 instructions: 68000001 cycles: 78173662 heartbeat IPC: 0.280792 cumulative IPC: 0.28188 (Simulation time: 0 hr 52 min 29 sec) 

Region of Interest Statistics
cpu0_DTLB TOTAL     ACCESS:    3996727  HIT:    3926227  MISS:      70500
cpu0_DTLB LOAD      ACCESS:    3711888  HIT:    3642549  MISS:      69339
cpu0_DTLB RFO       ACCESS:     284839  HIT:     283678  MISS:       1161
cpu0_DTLB PREFETCH  ACCESS:          0  HIT:          0  MISS:          0
cpu0_DTLB WRITEBACK ACCESS:          0  HIT:          0  MISS:          0
cpu0_ITLB TOTAL     ACCESS:    2492519  HIT:    2488492  MISS:       4027
cpu0_ITLB LOAD      ACCESS:    2492519  HIT:    2488492  MISS:       4027
cpu0_ITLB RFO       ACCESS:          0  HIT:          0  MISS:          0
cpu0_ITLB PREFETCH  ACCESS:          0  HIT:          0  MISS:          0
cpu0_ITLB WRITEBACK ACCESS:          0  HIT:          0  MISS:          0
cpu0_L1I TOTAL     ACCESS:     105511  HIT:      84797  MISS:      20714
cpu0_L1I LOAD      ACCESS:     105511  HIT:      84797  MISS:      20714
cpu0_L1I RFO       ACCESS:          0  HIT:          0  MISS:          0
cpu0_L1I PREFETCH  ACCESS:          0  HIT:          0  MISS:          0
cpu0_L1I WRITEBACK ACCESS:          0  HIT:          0  MISS:          0
cpu0_STLB TOTAL     ACCESS:      74527  HIT:      11548  MISS:      62979
cpu0_STLB LOAD      ACCESS:      73366  HIT:      10611  MISS:      62755
cpu0_STLB RFO       ACCESS:       1161  HIT:        937  MISS:        224
cpu0_STLB PREFETCH  ACCESS:          0  HIT:          0  MISS:          0
cpu0_STLB WRITEBACK ACCESS:          0  HIT:          0  MISS:          0
cpu0_L1D TOTAL     ACCESS:    3423714  HIT:    2925646  MISS:     498068
cpu0_L1D LOAD      ACCESS:    2795788  HIT:    2300222  MISS:     495566
cpu0_L1D RFO       ACCESS:     571974  HIT:     570517  MISS:       1457
cpu0_L1D PREFETCH  ACCESS:          0  HIT:          0  MISS:          0
cpu0_L1D WRITEBACK ACCESS:          0  HIT:          0  MISS:          0
cpu0_L2C TOTAL     ACCESS:     522474  HIT:      18447  MISS:     504027
cpu0_L2C LOAD      ACCESS:     516279  HIT:      13642  MISS:     502637
cpu0_L2C RFO       ACCESS:       1457  HIT:        363  MISS:       1094
cpu0_L2C PREFETCH  ACCESS:          0  HIT:          0  MISS:          0
cpu0_L2C WRITEBACK ACCESS:       3693  HIT:       3628  MISS:         65
LLC TOTAL     ACCESS:     506761  HIT:      30565  MISS:     476196
LLC LOAD      ACCESS:     502637  HIT:      26995  MISS:     475642
LLC RFO       ACCESS:       1094  HIT:        628  MISS:        466
LLC PREFETCH  ACCESS:          0  HIT:          0  MISS:          0
LLC WRITEBACK ACCESS:       2799  HIT:       2760  MISS:         39
Heartbeat CPU 0 instructions: 70000000 cycles: 85245134 heartbeat IPC: 0.282826 cumulative IPC: 0.281974 (Simulation time: 0 hr 54 min 31 sec) 

Region of Interest Statistics
cpu0_DTLB TOTAL     ACCESS:    4444742  HIT:    4369827  MISS:      74915
cpu0_DTLB LOAD      ACCESS:    4134474  HIT:    4060722  MISS:      73752
cpu0_DTLB RFO       ACCESS:     310268  HIT:     309105  MISS:       1163
cpu0_DTLB PREFETCH  ACCESS:          0  HIT:          0  MISS:          0
cpu0_DTLB WRITEBACK ACCESS:          0  HIT:          0  MISS:          0
cpu0_ITLB TOTAL     ACCESS:    2777078  HIT:    2773051  MISS:       4027
cpu0_ITLB LOAD      ACCESS:    2777078  HIT:    2773051  MISS:       4027
cpu0_ITLB RFO       ACCESS:          0  HIT:          0  MISS:          0
cpu0_ITLB PREFETCH  ACCESS:          0  HIT:          0  MISS:          0
cpu0_ITLB WRITEBACK ACCESS:          0  HIT:          0  MISS:          0
cpu0_L1I TOTAL     ACCESS:     105511  HIT:      84797  MISS:      20714
cpu0_L1I LOAD      ACCESS:     105511  HIT:      84797  MISS:      20714
cpu0_L1I RFO       ACCESS:          0  HIT:          0  MISS:          0
cpu0_L1I PREFETCH  ACCESS:          0  HIT:          0  MISS:          0
cpu0_L1I WRITEBACK ACCESS:          0  HIT:          0  MISS:          0
cpu0_STLB TOTAL     ACCESS:      78942  HIT:      11673  MISS:      67269
cpu0_STLB LOAD      ACCESS:      77779  HIT:      10735  MISS:      67044
cpu0_STLB RFO       ACCESS:       1163  HIT:        938  MISS:        225
cpu0_STLB PREFETCH  ACCESS:          0  HIT:          0  MISS:          0
cpu0_STLB WRITEBACK ACCESS:          0  HIT:          0  MISS:          0
cpu0_L1D TOTAL     ACCESS:    3789576  HIT:    3236103  MISS:     553473
cpu0_L1D LOAD      ACCESS:    3106625  HIT:    2555741  MISS:     550884
cpu0_L1D RFO       ACCESS:     622833  HIT:     621376  MISS:       1457
cpu0_L1D PREFETCH  ACCESS:          0  HIT:          0  MISS:          0
cpu0_L1D WRITEBACK ACCESS:          0  HIT:          0  MISS:          0
cpu0_L2C TOTAL     ACCESS:     577879  HIT:      18535  MISS:     559344
cpu0_L2C LOAD      ACCESS:     571597  HIT:      13652  MISS:     557945
cpu0_L2C RFO       ACCESS:       1457  HIT:        363  MISS:       1094
cpu0_L2C PREFETCH  ACCESS:          0  HIT:          0  MISS:          0
cpu0_L2C WRITEBACK ACCESS:       3693  HIT:       3628  MISS:         65
LLC TOTAL     ACCESS:     562078  HIT:      30572  MISS:     531506
LLC LOAD      ACCESS:     557945  HIT:      26995  MISS:     530950
LLC RFO       ACCESS:       1094  HIT:        628  MISS:        466
LLC PREFETCH  ACCESS:          0  HIT:          0  MISS:          0
LLC WRITEBACK ACCESS:       2799  HIT:       2760  MISS:         39
Heartbeat CPU 0 instructions: 72000001 cycles: 92428019 heartbeat IPC: 0.27844 cumulative IPC: 0.281649 (Simulation time: 0 hr 56 min 35 sec) 

Region of Interest Statistics
cpu0_DTLB TOTAL     ACCESS:    4890430  HIT:    4809479  MISS:      80951
cpu0_DTLB LOAD      ACCESS:    4548445  HIT:    4468784  MISS:      79661
cpu0_DTLB RFO       ACCESS:     341985  HIT:     340695  MISS:       1290
cpu0_DTLB PREFETCH  ACCESS:          0  HIT:          0  MISS:          0
cpu0_DTLB WRITEBACK ACCESS:          0  HIT:          0  MISS:          0
cpu0_ITLB TOTAL     ACCESS:    3051687  HIT:    3047227  MISS:       4460
cpu0_ITLB LOAD      ACCESS:    3051687  HIT:    3047227  MISS:       4460
cpu0_ITLB RFO       ACCESS:          0  HIT:          0  MISS:          0
cpu0_ITLB PREFETCH  ACCESS:          0  HIT:          0  MISS:          0
cpu0_ITLB WRITEBACK ACCESS:          0  HIT:          0  MISS:          0
cpu0_L1I TOTAL     ACCESS:     116580  HIT:      93650  MISS:      22930
cpu0_L1I LOAD      ACCESS:     116580  HIT:      93650  MISS:      22930
cpu0_L1I RFO       ACCESS:          0  HIT:          0  MISS:          0
cpu0_L1I PREFETCH  ACCESS:          0  HIT:          0  MISS:          0
cpu0_L1I WRITEBACK ACCESS:          0  HIT:          0  MISS:          0
cpu0_STLB TOTAL     ACCESS:      85411  HIT:      12876  MISS:      72535
cpu0_STLB LOAD      ACCESS:      84121  HIT:      11834  MISS:      72287
cpu0_STLB RFO       ACCESS:       1290  HIT:       1042  MISS:        248
cpu0_STLB PREFETCH  ACCESS:          0  HIT:          0  MISS:          0
cpu0_STLB WRITEBACK ACCESS:          0  HIT:          0  MISS:          0
cpu0_L1D TOTAL     ACCESS:    4170889  HIT:    3562140  MISS:     608749
cpu0_L1D LOAD      ACCESS:    3419553  HIT:    2813647  MISS:     605906
cpu0_L1D RFO       ACCESS:     686561  HIT:     684964  MISS:       1597
cpu0_L1D PREFETCH  ACCESS:          0  HIT:          0  MISS:          0
cpu0_L1D WRITEBACK ACCESS:          0  HIT:          0  MISS:          0
cpu0_L2C TOTAL     ACCESS:     635723  HIT:      20326  MISS:     615397
cpu0_L2C LOAD      ACCESS:     628835  HIT:      14982  MISS:     613853
cpu0_L2C RFO       ACCESS:       1597  HIT:        392  MISS:       1205
cpu0_L2C PREFETCH  ACCESS:          0  HIT:          0  MISS:          0
cpu0_L2C WRITEBACK ACCESS:       4045  HIT:       3972  MISS:         73
LLC TOTAL     ACCESS:     618419  HIT:      30896  MISS:     587523
LLC LOAD      ACCESS:     613853  HIT:      27016  MISS:     586837
LLC RFO       ACCESS:       1205  HIT:        629  MISS:        576
LLC PREFETCH  ACCESS:          0  HIT:          0  MISS:          0
LLC WRITEBACK ACCESS:       3095  HIT:       3048  MISS:         47
Heartbeat CPU 0 instructions: 74000000 cycles: 99601434 heartbeat IPC: 0.278807 cumulative IPC: 0.28141 (Simulation time: 0 hr 58 min 36 sec) 

Region of Interest Statistics
cpu0_DTLB TOTAL     ACCESS:    5336415  HIT:    5250954  MISS:      85461
cpu0_DTLB LOAD      ACCESS:    4968635  HIT:    4884464  MISS:      84171
cpu0_DTLB RFO       ACCESS:     367780  HIT:     366490  MISS:       1290
cpu0_DTLB PREFETCH  ACCESS:          0  HIT:          0  MISS:          0
cpu0_DTLB WRITEBACK ACCESS:          0  HIT:          0  MISS:          0
cpu0_ITLB TOTAL     ACCESS:    3331329  HIT:    3326869  MISS:       4460
cpu0_ITLB LOAD      ACCESS:    3331329  HIT:    3326869  MISS:       4460
cpu0_ITLB RFO       ACCESS:          0  HIT:          0  MISS:          0
cpu0_ITLB PREFETCH  ACCESS:          0  HIT:          0  MISS:          0
cpu0_ITLB WRITEBACK ACCESS:          0  HIT:          0  MISS:          0
cpu0_L1I TOTAL     ACCESS:     116580  HIT:      93650  MISS:      22930
cpu0_L1I LOAD      ACCESS:     116580  HIT:      93650  MISS:      22930
cpu0_L1I RFO       ACCESS:          0  HIT:          0  MISS:          0
cpu0_L1I PREFETCH  ACCESS:          0  HIT:          0  MISS:          0
cpu0_L1I WRITEBACK ACCESS:          0  HIT:          0  MISS:          0
cpu0_STLB TOTAL     ACCESS:      89921  HIT:      12979  MISS:      76942
cpu0_STLB LOAD      ACCESS:      88631  HIT:      11937  MISS:      76694
cpu0_STLB RFO       ACCESS:       1290  HIT:       1042  MISS:        248
cpu0_STLB PREFETCH  ACCESS:          0  HIT:          0  MISS:          0
cpu0_STLB WRITEBACK ACCESS:          0  HIT:          0  MISS:          0
cpu0_L1D TOTAL     ACCESS:    4540922  HIT:    3875786  MISS:     665136
cpu0_L1D LOAD      ACCESS:    3733708  HIT:    3071516  MISS:     662192
cpu0_L1D RFO       ACCESS:     738152  HIT:     736555  MISS:       1597
cpu0_L1D PREFETCH  ACCESS:          0  HIT:          0  MISS:          0
cpu0_L1D WRITEBACK ACCESS:          0  HIT:          0  MISS:          0
cpu0_L2C TOTAL     ACCESS:     692110  HIT:      20427  MISS:     671683
cpu0_L2C LOAD      ACCESS:     685121  HIT:      14992  MISS:     670129
cpu0_L2C RFO       ACCESS:       1597  HIT:        392  MISS:       1205
cpu0_L2C PREFETCH  ACCESS:          0  HIT:          0  MISS:          0
cpu0_L2C WRITEBACK ACCESS:       4045  HIT:       3972  MISS:         73
LLC TOTAL     ACCESS:     674705  HIT:      30908  MISS:     643797
LLC LOAD      ACCESS:     670129  HIT:      27018  MISS:     643111
LLC RFO       ACCESS:       1205  HIT:        629  MISS:        576
LLC PREFETCH  ACCESS:          0  HIT:          0  MISS:          0
LLC WRITEBACK ACCESS:       3095  HIT:       3048  MISS:         47
Heartbeat CPU 0 instructions: 76000002 cycles: 106680844 heartbeat IPC: 0.28251 cumulative IPC: 0.281494 (Simulation time: 1 hr 0 min 38 sec) 

Region of Interest Statistics
cpu0_DTLB TOTAL     ACCESS:    5782562  HIT:    5691191  MISS:      91371
cpu0_DTLB LOAD      ACCESS:    5382970  HIT:    5293027  MISS:      89943
cpu0_DTLB RFO       ACCESS:     399592  HIT:     398164  MISS:       1428
cpu0_DTLB PREFETCH  ACCESS:          0  HIT:          0  MISS:          0
cpu0_DTLB WRITEBACK ACCESS:          0  HIT:          0  MISS:          0
cpu0_ITLB TOTAL     ACCESS:    3607399  HIT:    3602500  MISS:       4899
cpu0_ITLB LOAD      ACCESS:    3607399  HIT:    3602500  MISS:       4899
cpu0_ITLB RFO       ACCESS:          0  HIT:          0  MISS:          0
cpu0_ITLB PREFETCH  ACCESS:          0  HIT:          0  MISS:          0
cpu0_ITLB WRITEBACK ACCESS:          0  HIT:          0  MISS:          0
cpu0_L1I TOTAL     ACCESS:     127864  HIT:     102652  MISS:      25212
cpu0_L1I LOAD      ACCESS:     127864  HIT:     102652  MISS:      25212
cpu0_L1I RFO       ACCESS:          0  HIT:          0  MISS:          0
cpu0_L1I PREFETCH  ACCESS:          0  HIT:          0  MISS:          0
cpu0_L1I WRITEBACK ACCESS:          0  HIT:          0  MISS:          0
cpu0_STLB TOTAL     ACCESS:      96270  HIT:      14201  MISS:      82069
cpu0_STLB LOAD      ACCESS:      94842  HIT:      13052  MISS:      81790
cpu0_STLB RFO       ACCESS:       1428  HIT:       1149  MISS:        279
cpu0_STLB PREFETCH  ACCESS:          0  HIT:          0  MISS:          0
cpu0_STLB WRITEBACK ACCESS:          0  HIT:          0  MISS:          0
cpu0_L1D TOTAL     ACCESS:    4921154  HIT:    4201254  MISS:     719900
cpu0_L1D LOAD      ACCESS:    4045610  HIT:    3328902  MISS:     716708
cpu0_L1D RFO       ACCESS:     801946  HIT:     800200  MISS:       1746
cpu0_L1D PREFETCH  ACCESS:          0  HIT:          0  MISS:          0
cpu0_L1D WRITEBACK ACCESS:          0  HIT:          0  MISS:          0
cpu0_L2C TOTAL     ACCESS:     749554  HIT:      22348  MISS:     727206
cpu0_L2C LOAD      ACCESS:     741919  HIT:      16419  MISS:     725500
cpu0_L2C RFO       ACCESS:       1746  HIT:        422  MISS:       1324
cpu0_L2C PREFETCH  ACCESS:          0  HIT:          0  MISS:          0
cpu0_L2C WRITEBACK ACCESS:       4443  HIT:       4363  MISS:         80
LLC TOTAL     ACCESS:     730527  HIT:      31240  MISS:     699287
LLC LOAD      ACCESS:     725500  HIT:      27034  MISS:     698466
LLC RFO       ACCESS:       1324  HIT:        631  MISS:        693
LLC PREFETCH  ACCESS:          0  HIT:          0  MISS:          0
LLC WRITEBACK ACCESS:       3401  HIT:       3347  MISS:         54
Heartbeat CPU 0 instructions: 78000001 cycles: 113801625 heartbeat IPC: 0.280868 cumulative IPC: 0.281449 (Simulation time: 1 hr 2 min 39 sec) 

Region of Interest Statistics
cpu0_DTLB TOTAL     ACCESS:    6230302  HIT:    6134386  MISS:      95916
cpu0_DTLB LOAD      ACCESS:    5805313  HIT:    5710825  MISS:      94488
cpu0_DTLB RFO       ACCESS:     424989  HIT:     423561  MISS:       1428
cpu0_DTLB PREFETCH  ACCESS:          0  HIT:          0  MISS:          0
cpu0_DTLB WRITEBACK ACCESS:          0  HIT:          0  MISS:          0
cpu0_ITLB TOTAL     ACCESS:    3892003  HIT:    3887104  MISS:       4899
cpu0_ITLB LOAD      ACCESS:    3892003  HIT:    3887104  MISS:       4899
cpu0_ITLB RFO       ACCESS:          0  HIT:          0  MISS:          0
cpu0_ITLB PREFETCH  ACCESS:          0  HIT:          0  MISS:          0
cpu0_ITLB WRITEBACK ACCESS:          0  HIT:          0  MISS:          0
cpu0_L1I TOTAL     ACCESS:     127864  HIT:     102652  MISS:      25212
cpu0_L1I LOAD      ACCESS:     127864  HIT:     102652  MISS:      25212
cpu0_L1I RFO       ACCESS:          0  HIT:          0  MISS:          0
cpu0_L1I PREFETCH  ACCESS:          0  HIT:          0  MISS:          0
cpu0_L1I WRITEBACK ACCESS:          0  HIT:          0  MISS:          0
cpu0_STLB TOTAL     ACCESS:     100815  HIT:      14287  MISS:      86528
cpu0_STLB LOAD      ACCESS:      99387  HIT:      13138  MISS:      86249
cpu0_STLB RFO       ACCESS:       1428  HIT:       1149  MISS:        279
cpu0_STLB PREFETCH  ACCESS:          0  HIT:          0  MISS:          0
cpu0_STLB WRITEBACK ACCESS:          0  HIT:          0  MISS:          0
cpu0_L1D TOTAL     ACCESS:    5287237  HIT:    4511785  MISS:     775452
cpu0_L1D LOAD      ACCESS:    4356582  HIT:    3584418  MISS:     772164
cpu0_L1D RFO       ACCESS:     852740  HIT:     850994  MISS:       1746
cpu0_L1D PREFETCH  ACCESS:          0  HIT:          0  MISS:          0
cpu0_L1D WRITEBACK ACCESS:          0  HIT:          0  MISS:          0
cpu0_L2C TOTAL     ACCESS:     805106  HIT:      22443  MISS:     782663
cpu0_L2C LOAD      ACCESS:     797375  HIT:      16428  MISS:     780947
cpu0_L2C RFO       ACCESS:       1746  HIT:        422  MISS:       1324
cpu0_L2C PREFETCH  ACCESS:          0  HIT:          0  MISS:          0
cpu0_L2C WRITEBACK ACCESS:       4443  HIT:       4363  MISS:         80
LLC TOTAL     ACCESS:     785984  HIT:      31251  MISS:     754733
LLC LOAD      ACCESS:     780947  HIT:      27036  MISS:     753911
LLC RFO       ACCESS:       1324  HIT:        631  MISS:        693
LLC PREFETCH  ACCESS:          0  HIT:          0  MISS:          0
LLC WRITEBACK ACCESS:       3401  HIT:       3347  MISS:         54
Heartbeat CPU 0 instructions: 80000001 cycles: 120866770 heartbeat IPC: 0.28308 cumulative IPC: 0.281558 (Simulation time: 1 hr 4 min 38 sec) 

Region of Interest Statistics
cpu0_DTLB TOTAL     ACCESS:    6677988  HIT:    6577657  MISS:     100331
cpu0_DTLB LOAD      ACCESS:    6227591  HIT:    6128690  MISS:      98901
cpu0_DTLB RFO       ACCESS:     450397  HIT:     448967  MISS:       1430
cpu0_DTLB PREFETCH  ACCESS:          0  HIT:          0  MISS:          0
cpu0_DTLB WRITEBACK ACCESS:          0  HIT:          0  MISS:          0
cpu0_ITLB TOTAL     ACCESS:    4176564  HIT:    4171665  MISS:       4899
cpu0_ITLB LOAD      ACCESS:    4176564  HIT:    4171665  MISS:       4899
cpu0_ITLB RFO       ACCESS:          0  HIT:          0  MISS:          0
cpu0_ITLB PREFETCH  ACCESS:          0  HIT:          0  MISS:          0
cpu0_ITLB WRITEBACK ACCESS:          0  HIT:          0  MISS:          0
cpu0_L1I TOTAL     ACCESS:     127864  HIT:     102652  MISS:      25212
cpu0_L1I LOAD      ACCESS:     127864  HIT:     102652  MISS:      25212
cpu0_L1I RFO       ACCESS:          0  HIT:          0  MISS:          0
cpu0_L1I PREFETCH  ACCESS:          0  HIT:          0  MISS:          0
cpu0_L1I WRITEBACK ACCESS:          0  HIT:          0  MISS:          0
cpu0_STLB TOTAL     ACCESS:     105230  HIT:      14406  MISS:      90824
cpu0_STLB LOAD      ACCESS:     103800  HIT:      13256  MISS:      90544
cpu0_STLB RFO       ACCESS:       1430  HIT:       1150  MISS:        280
cpu0_STLB PREFETCH  ACCESS:          0  HIT:          0  MISS:          0
cpu0_STLB WRITEBACK ACCESS:          0  HIT:          0  MISS:          0
cpu0_L1D TOTAL     ACCESS:    5653278  HIT:    4822446  MISS:     830832
cpu0_L1D LOAD      ACCESS:    4667633  HIT:    3840173  MISS:     827460
cpu0_L1D RFO       ACCESS:     903557  HIT:     901811  MISS:       1746
cpu0_L1D PREFETCH  ACCESS:          0  HIT:          0  MISS:          0
cpu0_L1D WRITEBACK ACCESS:          0  HIT:          0  MISS:          0
cpu0_L2C TOTAL     ACCESS:     860486  HIT:      22528  MISS:     837958
cpu0_L2C LOAD      ACCESS:     852671  HIT:      16438  MISS:     836233
cpu0_L2C RFO       ACCESS:       1746  HIT:        422  MISS:       1324
cpu0_L2C PREFETCH  ACCESS:          0  HIT:          0  MISS:          0
cpu0_L2C WRITEBACK ACCESS:       4443  HIT:       4363  MISS:         80
LLC TOTAL     ACCESS:     841279  HIT:      31260  MISS:     810019
LLC LOAD      ACCESS:     836233  HIT:      27037  MISS:     809196
LLC RFO       ACCESS:       1324  HIT:        631  MISS:        693
LLC PREFETCH  ACCESS:          0  HIT:          0  MISS:          0
LLC WRITEBACK ACCESS:       3401  HIT:       3347  MISS:         54
Heartbeat CPU 0 instructions: 82000000 cycles: 127968647 heartbeat IPC: 0.281616 cumulative IPC: 0.281561 (Simulation time: 1 hr 6 min 43 sec) 

Region of Interest Statistics
cpu0_DTLB TOTAL     ACCESS:    7125282  HIT:    7018967  MISS:     106315
cpu0_DTLB LOAD      ACCESS:    6643436  HIT:    6538679  MISS:     104757
cpu0_DTLB RFO       ACCESS:     481846  HIT:     480288  MISS:       1558
cpu0_DTLB PREFETCH  ACCESS:          0  HIT:          0  MISS:          0
cpu0_DTLB WRITEBACK ACCESS:          0  HIT:          0  MISS:          0
cpu0_ITLB TOTAL     ACCESS:    4455316  HIT:    4449979  MISS:       5337
cpu0_ITLB LOAD      ACCESS:    4455316  HIT:    4449979  MISS:       5337
cpu0_ITLB RFO       ACCESS:          0  HIT:          0  MISS:          0
cpu0_ITLB PREFETCH  ACCESS:          0  HIT:          0  MISS:          0
cpu0_ITLB WRITEBACK ACCESS:          0  HIT:          0  MISS:          0
cpu0_L1I TOTAL     ACCESS:     139059  HIT:     111598  MISS:      27461
cpu0_L1I LOAD      ACCESS:     139059  HIT:     111598  MISS:      27461
cpu0_L1I RFO       ACCESS:          0  HIT:          0  MISS:          0
cpu0_L1I PREFETCH  ACCESS:          0  HIT:          0  MISS:          0
cpu0_L1I WRITEBACK ACCESS:          0  HIT:          0  MISS:          0
cpu0_STLB TOTAL     ACCESS:     111652  HIT:      15595  MISS:      96057
cpu0_STLB LOAD      ACCESS:     110094  HIT:      14342  MISS:      95752
cpu0_STLB RFO       ACCESS:       1558  HIT:       1253  MISS:        305
cpu0_STLB PREFETCH  ACCESS:          0  HIT:          0  MISS:          0
cpu0_STLB WRITEBACK ACCESS:          0  HIT:          0  MISS:          0
cpu0_L1D TOTAL     ACCESS:    6031366  HIT:    5145926  MISS:     885440
cpu0_L1D LOAD      ACCESS:    4977981  HIT:    4096172  MISS:     881809
cpu0_L1D RFO       ACCESS:     966669  HIT:     964774  MISS:       1895
cpu0_L1D PREFETCH  ACCESS:          0  HIT:          0  MISS:          0
cpu0_L1D WRITEBACK ACCESS:          0  HIT:          0  MISS:          0
cpu0_L2C TOTAL     ACCESS:     917732  HIT:      24445  MISS:     893287
cpu0_L2C LOAD      ACCESS:     909269  HIT:      17858  MISS:     891411
cpu0_L2C RFO       ACCESS:       1895  HIT:        454  MISS:       1441
cpu0_L2C PREFETCH  ACCESS:          0  HIT:          0  MISS:          0
cpu0_L2C WRITEBACK ACCESS:       4832  HIT:       4743  MISS:         89
LLC TOTAL     ACCESS:     896903  HIT:      31584  MISS:     865319
LLC LOAD      ACCESS:     891411  HIT:      27050  MISS:     864361
LLC RFO       ACCESS:       1441  HIT:        634  MISS:        807
LLC PREFETCH  ACCESS:          0  HIT:          0  MISS:          0
LLC WRITEBACK ACCESS:       3705  HIT:       3643  MISS:         62
Heartbeat CPU 0 instructions: 84000002 cycles: 135136160 heartbeat IPC: 0.279037 cumulative IPC: 0.281411 (Simulation time: 1 hr 8 min 47 sec) 

Region of Interest Statistics
cpu0_DTLB TOTAL     ACCESS:    7570485  HIT:    7458022  MISS:     112463
cpu0_DTLB LOAD      ACCESS:    7056724  HIT:    6945949  MISS:     110775
cpu0_DTLB RFO       ACCESS:     513761  HIT:     512073  MISS:       1688
cpu0_DTLB PREFETCH  ACCESS:          0  HIT:          0  MISS:          0
cpu0_DTLB WRITEBACK ACCESS:          0  HIT:          0  MISS:          0
cpu0_ITLB TOTAL     ACCESS:    4730115  HIT:    4724340  MISS:       5775
cpu0_ITLB LOAD      ACCESS:    4730115  HIT:    4724340  MISS:       5775
cpu0_ITLB RFO       ACCESS:          0  HIT:          0  MISS:          0
cpu0_ITLB PREFETCH  ACCESS:          0  HIT:          0  MISS:          0
cpu0_ITLB WRITEBACK ACCESS:          0  HIT:          0  MISS:          0
cpu0_L1I TOTAL     ACCESS:     150249  HIT:     120549  MISS:      29700
cpu0_L1I LOAD      ACCESS:     150249  HIT:     120549  MISS:      29700
cpu0_L1I RFO       ACCESS:          0  HIT:          0  MISS:          0
cpu0_L1I PREFETCH  ACCESS:          0  HIT:          0  MISS:          0
cpu0_L1I WRITEBACK ACCESS:          0  HIT:          0  MISS:          0
cpu0_STLB TOTAL     ACCESS:     118238  HIT:      16799  MISS:     101439
cpu0_STLB LOAD      ACCESS:     116550  HIT:      15446  MISS:     101104
cpu0_STLB RFO       ACCESS:       1688  HIT:       1353  MISS:        335
cpu0_STLB PREFETCH  ACCESS:          0  HIT:          0  MISS:          0
cpu0_STLB WRITEBACK ACCESS:          0  HIT:          0  MISS:          0
cpu0_L1D TOTAL     ACCESS:    6414661  HIT:    5473550  MISS:     941111
cpu0_L1D LOAD      ACCESS:    5292480  HIT:    4355271  MISS:     937209
cpu0_L1D RFO       ACCESS:    1030733  HIT:    1028687  MISS:       2046
cpu0_L1D PREFETCH  ACCESS:          0  HIT:          0  MISS:          0
cpu0_L1D WRITEBACK ACCESS:          0  HIT:          0  MISS:          0
cpu0_L2C TOTAL     ACCESS:     976048  HIT:      26391  MISS:     949657
cpu0_L2C LOAD      ACCESS:     966908  HIT:      19274  MISS:     947634
cpu0_L2C RFO       ACCESS:       2046  HIT:        492  MISS:       1554
cpu0_L2C PREFETCH  ACCESS:          0  HIT:          0  MISS:          0
cpu0_L2C WRITEBACK ACCESS:       5238  HIT:       5141  MISS:         97
LLC TOTAL     ACCESS:     953568  HIT:      32559  MISS:     921009
LLC LOAD      ACCESS:     947634  HIT:      27626  MISS:     920008
LLC RFO       ACCESS:       1554  HIT:        719  MISS:        835
LLC PREFETCH  ACCESS:          0  HIT:          0  MISS:          0
LLC WRITEBACK ACCESS:       4008  HIT:       3939  MISS:         69
Heartbeat CPU 0 instructions: 86000000 cycles: 142351949 heartbeat IPC: 0.27717 cumulative IPC: 0.281172 (Simulation time: 1 hr 10 min 49 sec) 

Region of Interest Statistics
cpu0_DTLB TOTAL     ACCESS:    8015660  HIT:    7898649  MISS:     117011
cpu0_DTLB LOAD      ACCESS:    7475930  HIT:    7360607  MISS:     115323
cpu0_DTLB RFO       ACCESS:     539730  HIT:     538042  MISS:       1688
cpu0_DTLB PREFETCH  ACCESS:          0  HIT:          0  MISS:          0
cpu0_DTLB WRITEBACK ACCESS:          0  HIT:          0  MISS:          0
cpu0_ITLB TOTAL     ACCESS:    5009720  HIT:    5003945  MISS:       5775
cpu0_ITLB LOAD      ACCESS:    5009720  HIT:    5003945  MISS:       5775
cpu0_ITLB RFO       ACCESS:          0  HIT:          0  MISS:          0
cpu0_ITLB PREFETCH  ACCESS:          0  HIT:          0  MISS:          0
cpu0_ITLB WRITEBACK ACCESS:          0  HIT:          0  MISS:          0
cpu0_L1I TOTAL     ACCESS:     150249  HIT:     120549  MISS:      29700
cpu0_L1I LOAD      ACCESS:     150249  HIT:     120549  MISS:      29700
cpu0_L1I RFO       ACCESS:          0  HIT:          0  MISS:          0
cpu0_L1I PREFETCH  ACCESS:          0  HIT:          0  MISS:          0
cpu0_L1I WRITEBACK ACCESS:          0  HIT:          0  MISS:          0
cpu0_STLB TOTAL     ACCESS:     122786  HIT:      16902  MISS:     105884
cpu0_STLB LOAD      ACCESS:     121098  HIT:      15549  MISS:     105549
cpu0_STLB RFO       ACCESS:       1688  HIT:       1353  MISS:        335
cpu0_STLB PREFETCH  ACCESS:          0  HIT:          0  MISS:          0
cpu0_STLB WRITEBACK ACCESS:          0  HIT:          0  MISS:          0
cpu0_L1D TOTAL     ACCESS:    6787216  HIT:    5789296  MISS:     997920
cpu0_L1D LOAD      ACCESS:    5608771  HIT:    4614853  MISS:     993918
cpu0_L1D RFO       ACCESS:    1082671  HIT:    1080625  MISS:       2046
cpu0_L1D PREFETCH  ACCESS:          0  HIT:          0  MISS:          0
cpu0_L1D WRITEBACK ACCESS:          0  HIT:          0  MISS:          0
cpu0_L2C TOTAL     ACCESS:    1032857  HIT:      26491  MISS:    1006366
cpu0_L2C LOAD      ACCESS:    1023617  HIT:      19284  MISS:    1004333
cpu0_L2C RFO       ACCESS:       2046  HIT:        492  MISS:       1554
cpu0_L2C PREFETCH  ACCESS:          0  HIT:          0  MISS:          0
cpu0_L2C WRITEBACK ACCESS:       5238  HIT:       5141  MISS:         97
LLC TOTAL     ACCESS:    1010277  HIT:      32634  MISS:     977643
LLC LOAD      ACCESS:    1004333  HIT:      27691  MISS:     976642
LLC RFO       ACCESS:       1554  HIT:        719  MISS:        835
LLC PREFETCH  ACCESS:          0  HIT:          0  MISS:          0
LLC WRITEBACK ACCESS:       4008  HIT:       3939  MISS:         69
Heartbeat CPU 0 instructions: 88000002 cycles: 150026776 heartbeat IPC: 0.260592 cumulative IPC: 0.280008 (Simulation time: 1 hr 13 min 0 sec) 

Region of Interest Statistics
cpu0_DTLB TOTAL     ACCESS:    8455519  HIT:    8328154  MISS:     127365
cpu0_DTLB LOAD      ACCESS:    7878431  HIT:    7752990  MISS:     125441
cpu0_DTLB RFO       ACCESS:     577088  HIT:     575164  MISS:       1924
cpu0_DTLB PREFETCH  ACCESS:          0  HIT:          0  MISS:          0
cpu0_DTLB WRITEBACK ACCESS:          0  HIT:          0  MISS:          0
cpu0_ITLB TOTAL     ACCESS:    5278525  HIT:    5272008  MISS:       6517
cpu0_ITLB LOAD      ACCESS:    5278525  HIT:    5272008  MISS:       6517
cpu0_ITLB RFO       ACCESS:          0  HIT:          0  MISS:          0
cpu0_ITLB PREFETCH  ACCESS:          0  HIT:          0  MISS:          0
cpu0_ITLB WRITEBACK ACCESS:          0  HIT:          0  MISS:          0
cpu0_L1I TOTAL     ACCESS:     169597  HIT:     135953  MISS:      33644
cpu0_L1I LOAD      ACCESS:     169597  HIT:     135953  MISS:      33644
cpu0_L1I RFO       ACCESS:          0  HIT:          0  MISS:          0
cpu0_L1I PREFETCH  ACCESS:          0  HIT:          0  MISS:          0
cpu0_L1I WRITEBACK ACCESS:          0  HIT:          0  MISS:          0
cpu0_STLB TOTAL     ACCESS:     133882  HIT:      18965  MISS:     114917
cpu0_STLB LOAD      ACCESS:     131958  HIT:      17434  MISS:     114524
cpu0_STLB RFO       ACCESS:       1924  HIT:       1531  MISS:        393
cpu0_STLB PREFETCH  ACCESS:          0  HIT:          0  MISS:          0
cpu0_STLB WRITEBACK ACCESS:          0  HIT:          0  MISS:          0
cpu0_L1D TOTAL     ACCESS:    7188990  HIT:    6132027  MISS:    1056963
cpu0_L1D LOAD      ACCESS:    5927639  HIT:    4875094  MISS:    1052545
cpu0_L1D RFO       ACCESS:    1157837  HIT:    1155519  MISS:       2318
cpu0_L1D PREFETCH  ACCESS:          0  HIT:          0  MISS:          0
cpu0_L1D WRITEBACK ACCESS:          0  HIT:          0  MISS:          0
cpu0_L2C TOTAL     ACCESS:    1096596  HIT:      29676  MISS:    1066920
cpu0_L2C LOAD      ACCESS:    1086188  HIT:      21578  MISS:    1064610
cpu0_L2C RFO       ACCESS:       2318  HIT:        540  MISS:       1778
cpu0_L2C PREFETCH  ACCESS:          0  HIT:          0  MISS:          0
cpu0_L2C WRITEBACK ACCESS:       5990  HIT:       5879  MISS:        111
LLC TOTAL     ACCESS:    1071416  HIT:      35428  MISS:    1035988
LLC LOAD      ACCESS:    1064611  HIT:      29773  MISS:    1034838
LLC RFO       ACCESS:       1778  HIT:        813  MISS:        965
LLC PREFETCH  ACCESS:          0  HIT:          0  MISS:          0
LLC WRITEBACK ACCESS:       4606  HIT:       4530  MISS:         76
Heartbeat CPU 0 instructions: 90000001 cycles: 157213345 heartbeat IPC: 0.278297 cumulative IPC: 0.279922 (Simulation time: 1 hr 15 min 24 sec) 

Region of Interest Statistics
cpu0_DTLB TOTAL     ACCESS:    8888189  HIT:    8737041  MISS:     151148
cpu0_DTLB LOAD      ACCESS:    8249223  HIT:    8100753  MISS:     148470
cpu0_DTLB RFO       ACCESS:     638966  HIT:     636288  MISS:       2678
cpu0_DTLB PREFETCH  ACCESS:          0  HIT:          0  MISS:          0
cpu0_DTLB WRITEBACK ACCESS:          0  HIT:          0  MISS:          0
cpu0_ITLB TOTAL     ACCESS:    5517431  HIT:    5508830  MISS:       8601
cpu0_ITLB LOAD      ACCESS:    5517431  HIT:    5508830  MISS:       8601
cpu0_ITLB RFO       ACCESS:          0  HIT:          0  MISS:          0
cpu0_ITLB PREFETCH  ACCESS:          0  HIT:          0  MISS:          0
cpu0_ITLB WRITEBACK ACCESS:          0  HIT:          0  MISS:          0
cpu0_L1I TOTAL     ACCESS:     232321  HIT:     191162  MISS:      41159
cpu0_L1I LOAD      ACCESS:     232321  HIT:     191162  MISS:      41159
cpu0_L1I RFO       ACCESS:          0  HIT:          0  MISS:          0
cpu0_L1I PREFETCH  ACCESS:          0  HIT:          0  MISS:          0
cpu0_L1I WRITEBACK ACCESS:          0  HIT:          0  MISS:          0
cpu0_STLB TOTAL     ACCESS:     159749  HIT:      27143  MISS:     132606
cpu0_STLB LOAD      ACCESS:     157071  HIT:      24908  MISS:     132163
cpu0_STLB RFO       ACCESS:       2678  HIT:       2235  MISS:        443
cpu0_STLB PREFETCH  ACCESS:          0  HIT:          0  MISS:          0
cpu0_STLB WRITEBACK ACCESS:          0  HIT:          0  MISS:          0
cpu0_L1D TOTAL     ACCESS:    7631280  HIT:    6518429  MISS:    1112851
cpu0_L1D LOAD      ACCESS:    6236132  HIT:    5128971  MISS:    1107161
cpu0_L1D RFO       ACCESS:    1279263  HIT:    1275906  MISS:       3357
cpu0_L1D PREFETCH  ACCESS:          0  HIT:          0  MISS:          0
cpu0_L1D WRITEBACK ACCESS:          0  HIT:          0  MISS:          0
cpu0_L2C TOTAL     ACCESS:    1161968  HIT:      41014  MISS:    1120954
cpu0_L2C LOAD      ACCESS:    1148319  HIT:      30262  MISS:    1118057
cpu0_L2C RFO       ACCESS:       3357  HIT:       1050  MISS:       2307
cpu0_L2C PREFETCH  ACCESS:          0  HIT:          0  MISS:          0
cpu0_L2C WRITEBACK ACCESS:       7959  HIT:       7831  MISS:        128
LLC TOTAL     ACCESS:    1125767  HIT:      39073  MISS:    1086694
LLC LOAD      ACCESS:    1118057  HIT:      32911  MISS:    1085146
LLC RFO       ACCESS:       2307  HIT:        950  MISS:       1357
LLC PREFETCH  ACCESS:          0  HIT:          0  MISS:          0
LLC WRITEBACK ACCESS:       4941  HIT:       4861  MISS:         80
Heartbeat CPU 0 instructions: 92000001 cycles: 163024931 heartbeat IPC: 0.34414 cumulative IPC: 0.282432 (Simulation time: 1 hr 17 min 25 sec) 

Region of Interest Statistics
cpu0_DTLB TOTAL     ACCESS:    9319160  HIT:    9149580  MISS:     169580
cpu0_DTLB LOAD      ACCESS:    8623756  HIT:    8457610  MISS:     166146
cpu0_DTLB RFO       ACCESS:     695404  HIT:     691970  MISS:       3434
cpu0_DTLB PREFETCH  ACCESS:          0  HIT:          0  MISS:          0
cpu0_DTLB WRITEBACK ACCESS:          0  HIT:          0  MISS:          0
cpu0_ITLB TOTAL     ACCESS:    5762931  HIT:    5752219  MISS:      10712
cpu0_ITLB LOAD      ACCESS:    5762931  HIT:    5752219  MISS:      10712
cpu0_ITLB RFO       ACCESS:          0  HIT:          0  MISS:          0
cpu0_ITLB PREFETCH  ACCESS:          0  HIT:          0  MISS:          0
cpu0_ITLB WRITEBACK ACCESS:          0  HIT:          0  MISS:          0
cpu0_L1I TOTAL     ACCESS:     294459  HIT:     245155  MISS:      49304
cpu0_L1I LOAD      ACCESS:     294459  HIT:     245155  MISS:      49304
cpu0_L1I RFO       ACCESS:          0  HIT:          0  MISS:          0
cpu0_L1I PREFETCH  ACCESS:          0  HIT:          0  MISS:          0
cpu0_L1I WRITEBACK ACCESS:          0  HIT:          0  MISS:          0
cpu0_STLB TOTAL     ACCESS:     180292  HIT:      35032  MISS:     145260
cpu0_STLB LOAD      ACCESS:     176858  HIT:      32080  MISS:     144778
cpu0_STLB RFO       ACCESS:       3434  HIT:       2952  MISS:        482
cpu0_STLB PREFETCH  ACCESS:          0  HIT:          0  MISS:          0
cpu0_STLB WRITEBACK ACCESS:          0  HIT:          0  MISS:          0
cpu0_L1D TOTAL     ACCESS:    8038805  HIT:    6882770  MISS:    1156035
cpu0_L1D LOAD      ACCESS:    6523454  HIT:    5374161  MISS:    1149293
cpu0_L1D RFO       ACCESS:    1390021  HIT:    1385799  MISS:       4222
cpu0_L1D PREFETCH  ACCESS:          0  HIT:          0  MISS:          0
cpu0_L1D WRITEBACK ACCESS:          0  HIT:          0  MISS:          0
cpu0_L2C TOTAL     ACCESS:    1215308  HIT:      52956  MISS:    1162352
cpu0_L2C LOAD      ACCESS:    1198596  HIT:      39568  MISS:    1159028
cpu0_L2C RFO       ACCESS:       4222  HIT:       1561  MISS:       2661
cpu0_L2C PREFETCH  ACCESS:          0  HIT:          0  MISS:          0
cpu0_L2C WRITEBACK ACCESS:       9970  HIT:       9790  MISS:        180
LLC TOTAL     ACCESS:    1168014  HIT:      42583  MISS:    1125431
LLC LOAD      ACCESS:    1159028  HIT:      35360  MISS:    1123668
LLC RFO       ACCESS:       2661  HIT:       1093  MISS:       1568
LLC PREFETCH  ACCESS:          0  HIT:          0  MISS:          0
LLC WRITEBACK ACCESS:       5842  HIT:       5758  MISS:         84
Heartbeat CPU 0 instructions: 94000000 cycles: 169802501 heartbeat IPC: 0.295091 cumulative IPC: 0.282984 (Simulation time: 1 hr 19 min 23 sec) 

Region of Interest Statistics
cpu0_DTLB TOTAL     ACCESS:    9763409  HIT:    9586339  MISS:     177070
cpu0_DTLB LOAD      ACCESS:    9030113  HIT:    8856730  MISS:     173383
cpu0_DTLB RFO       ACCESS:     733296  HIT:     729609  MISS:       3687
cpu0_DTLB PREFETCH  ACCESS:          0  HIT:          0  MISS:          0
cpu0_DTLB WRITEBACK ACCESS:          0  HIT:          0  MISS:          0
cpu0_ITLB TOTAL     ACCESS:    6031562  HIT:    6019974  MISS:      11588
cpu0_ITLB LOAD      ACCESS:    6031562  HIT:    6019974  MISS:      11588
cpu0_ITLB RFO       ACCESS:          0  HIT:          0  MISS:          0
cpu0_ITLB PREFETCH  ACCESS:          0  HIT:          0  MISS:          0
cpu0_ITLB WRITEBACK ACCESS:          0  HIT:          0  MISS:          0
cpu0_L1I TOTAL     ACCESS:     316936  HIT:     263138  MISS:      53798
cpu0_L1I LOAD      ACCESS:     316936  HIT:     263138  MISS:      53798
cpu0_L1I RFO       ACCESS:          0  HIT:          0  MISS:          0
cpu0_L1I PREFETCH  ACCESS:          0  HIT:          0  MISS:          0
cpu0_L1I WRITEBACK ACCESS:          0  HIT:          0  MISS:          0
cpu0_STLB TOTAL     ACCESS:     188658  HIT:      37707  MISS:     150951
cpu0_STLB LOAD      ACCESS:     184971  HIT:      34528  MISS:     150443
cpu0_STLB RFO       ACCESS:       3687  HIT:       3179  MISS:        508
cpu0_STLB PREFETCH  ACCESS:          0  HIT:          0  MISS:          0
cpu0_STLB WRITEBACK ACCESS:          0  HIT:          0  MISS:          0
cpu0_L1D TOTAL     ACCESS:    8434375  HIT:    7223607  MISS:    1210768
cpu0_L1D LOAD      ACCESS:    6837701  HIT:    5634098  MISS:    1203603
cpu0_L1D RFO       ACCESS:    1466570  HIT:    1462062  MISS:       4508
cpu0_L1D PREFETCH  ACCESS:          0  HIT:          0  MISS:          0
cpu0_L1D WRITEBACK ACCESS:          0  HIT:          0  MISS:          0
cpu0_L2C TOTAL     ACCESS:    1275310  HIT:      59206  MISS:    1216104
cpu0_L2C LOAD      ACCESS:    1257400  HIT:      44792  MISS:    1212608
cpu0_L2C RFO       ACCESS:       4508  HIT:       1706  MISS:       2802
cpu0_L2C PREFETCH  ACCESS:          0  HIT:          0  MISS:          0
cpu0_L2C WRITEBACK ACCESS:      10745  HIT:      10558  MISS:        187
LLC TOTAL     ACCESS:    1222407  HIT:      46007  MISS:    1176400
LLC LOAD      ACCESS:    1212608  HIT:      38022  MISS:    1174586
LLC RFO       ACCESS:       2802  HIT:       1189  MISS:       1613
LLC PREFETCH  ACCESS:          0  HIT:          0  MISS:          0
LLC WRITEBACK ACCESS:       6490  HIT:       6400  MISS:         90
Heartbeat CPU 0 instructions: 96000001 cycles: 176910725 heartbeat IPC: 0.281364 cumulative IPC: 0.282913 (Simulation time: 1 hr 21 min 22 sec) 

Region of Interest Statistics
cpu0_DTLB TOTAL     ACCESS:   10208517  HIT:   10026791  MISS:     181726
cpu0_DTLB LOAD      ACCESS:    9449257  HIT:    9271218  MISS:     178039
cpu0_DTLB RFO       ACCESS:     759260  HIT:     755573  MISS:       3687
cpu0_DTLB PREFETCH  ACCESS:          0  HIT:          0  MISS:          0
cpu0_DTLB WRITEBACK ACCESS:          0  HIT:          0  MISS:          0
cpu0_ITLB TOTAL     ACCESS:    6311187  HIT:    6299599  MISS:      11588
cpu0_ITLB LOAD      ACCESS:    6311187  HIT:    6299599  MISS:      11588
cpu0_ITLB RFO       ACCESS:          0  HIT:          0  MISS:          0
cpu0_ITLB PREFETCH  ACCESS:          0  HIT:          0  MISS:          0
cpu0_ITLB WRITEBACK ACCESS:          0  HIT:          0  MISS:          0
cpu0_L1I TOTAL     ACCESS:     316936  HIT:     263138  MISS:      53798
cpu0_L1I LOAD      ACCESS:     316936  HIT:     263138  MISS:      53798
cpu0_L1I RFO       ACCESS:          0  HIT:          0  MISS:          0
cpu0_L1I PREFETCH  ACCESS:          0  HIT:          0  MISS:          0
cpu0_L1I WRITEBACK ACCESS:          0  HIT:          0  MISS:          0
cpu0_STLB TOTAL     ACCESS:     193314  HIT:      37803  MISS:     155511
cpu0_STLB LOAD      ACCESS:     189627  HIT:      34624  MISS:     155003
cpu0_STLB RFO       ACCESS:       3687  HIT:       3179  MISS:        508
cpu0_STLB PREFETCH  ACCESS:          0  HIT:          0  MISS:          0
cpu0_STLB WRITEBACK ACCESS:          0  HIT:          0  MISS:          0
cpu0_L1D TOTAL     ACCESS:    8806997  HIT:    7539437  MISS:    1267560
cpu0_L1D LOAD      ACCESS:    7153981  HIT:    5893679  MISS:    1260302
cpu0_L1D RFO       ACCESS:    1518497  HIT:    1513989  MISS:       4508
cpu0_L1D PREFETCH  ACCESS:          0  HIT:          0  MISS:          0
cpu0_L1D WRITEBACK ACCESS:          0  HIT:          0  MISS:          0
cpu0_L2C TOTAL     ACCESS:    1332102  HIT:      59297  MISS:    1272805
cpu0_L2C LOAD      ACCESS:    1314099  HIT:      44802  MISS:    1269297
cpu0_L2C RFO       ACCESS:       4508  HIT:       1706  MISS:       2802
cpu0_L2C PREFETCH  ACCESS:          0  HIT:          0  MISS:          0
cpu0_L2C WRITEBACK ACCESS:      10745  HIT:      10558  MISS:        187
LLC TOTAL     ACCESS:    1279130  HIT:      48738  MISS:    1230392
LLC LOAD      ACCESS:    1269297  HIT:      40719  MISS:    1228578
LLC RFO       ACCESS:       2802  HIT:       1189  MISS:       1613
LLC PREFETCH  ACCESS:          0  HIT:          0  MISS:          0
LLC WRITEBACK ACCESS:       6512  HIT:       6422  MISS:         90
Heartbeat CPU 0 instructions: 98000001 cycles: 184114019 heartbeat IPC: 0.277651 cumulative IPC: 0.28269 (Simulation time: 1 hr 23 min 23 sec) 

Region of Interest Statistics
cpu0_DTLB TOTAL     ACCESS:   10653635  HIT:   10467394  MISS:     186241
cpu0_DTLB LOAD      ACCESS:    9868406  HIT:    9685854  MISS:     182552
cpu0_DTLB RFO       ACCESS:     785229  HIT:     781540  MISS:       3689
cpu0_DTLB PREFETCH  ACCESS:          0  HIT:          0  MISS:          0
cpu0_DTLB WRITEBACK ACCESS:          0  HIT:          0  MISS:          0
cpu0_ITLB TOTAL     ACCESS:    6590807  HIT:    6579219  MISS:      11588
cpu0_ITLB LOAD      ACCESS:    6590807  HIT:    6579219  MISS:      11588
cpu0_ITLB RFO       ACCESS:          0  HIT:          0  MISS:          0
cpu0_ITLB PREFETCH  ACCESS:          0  HIT:          0  MISS:          0
cpu0_ITLB WRITEBACK ACCESS:          0  HIT:          0  MISS:          0
cpu0_L1I TOTAL     ACCESS:     316936  HIT:     263138  MISS:      53798
cpu0_L1I LOAD      ACCESS:     316936  HIT:     263138  MISS:      53798
cpu0_L1I RFO       ACCESS:          0  HIT:          0  MISS:          0
cpu0_L1I PREFETCH  ACCESS:          0  HIT:          0  MISS:          0
cpu0_L1I WRITEBACK ACCESS:          0  HIT:          0  MISS:          0
cpu0_STLB TOTAL     ACCESS:     197829  HIT:      37923  MISS:     159906
cpu0_STLB LOAD      ACCESS:     194140  HIT:      34743  MISS:     159397
cpu0_STLB RFO       ACCESS:       3689  HIT:       3180  MISS:        509
cpu0_STLB PREFETCH  ACCESS:          0  HIT:          0  MISS:          0
cpu0_STLB WRITEBACK ACCESS:          0  HIT:          0  MISS:          0
cpu0_L1D TOTAL     ACCESS:    9179553  HIT:    7855326  MISS:    1324227
cpu0_L1D LOAD      ACCESS:    7470332  HIT:    6153462  MISS:    1316870
cpu0_L1D RFO       ACCESS:    1570433  HIT:    1565925  MISS:       4508
cpu0_L1D PREFETCH  ACCESS:          0  HIT:          0  MISS:          0
cpu0_L1D WRITEBACK ACCESS:          0  HIT:          0  MISS:          0
cpu0_L2C TOTAL     ACCESS:    1388769  HIT:      59398  MISS:    1329371
cpu0_L2C LOAD      ACCESS:    1370667  HIT:      44813  MISS:    1325854
cpu0_L2C RFO       ACCESS:       4508  HIT:       1706  MISS:       2802
cpu0_L2C PREFETCH  ACCESS:          0  HIT:          0  MISS:          0
cpu0_L2C WRITEBACK ACCESS:      10745  HIT:      10558  MISS:        187
LLC TOTAL     ACCESS:    1335696  HIT:      48745  MISS:    1286951
LLC LOAD      ACCESS:    1325854  HIT:      40720  MISS:    1285134
LLC RFO       ACCESS:       2802  HIT:       1189  MISS:       1613
LLC PREFETCH  ACCESS:          0  HIT:          0  MISS:          0
LLC WRITEBACK ACCESS:       6512  HIT:       6422  MISS:         90
Heartbeat CPU 0 instructions: 100000001 cycles: 190235660 heartbeat IPC: 0.32671 cumulative IPC: 0.284222 (Simulation time: 1 hr 25 min 17 sec) 

Region of Interest Statistics
cpu0_DTLB TOTAL     ACCESS:   11096929  HIT:   10901987  MISS:     194942
cpu0_DTLB LOAD      ACCESS:   10267860  HIT:   10076981  MISS:     190879
cpu0_DTLB RFO       ACCESS:     829069  HIT:     825006  MISS:       4063
cpu0_DTLB PREFETCH  ACCESS:          0  HIT:          0  MISS:          0
cpu0_DTLB WRITEBACK ACCESS:          0  HIT:          0  MISS:          0
cpu0_ITLB TOTAL     ACCESS:    6853766  HIT:    6840869  MISS:      12897
cpu0_ITLB LOAD      ACCESS:    6853766  HIT:    6840869  MISS:      12897
cpu0_ITLB RFO       ACCESS:          0  HIT:          0  MISS:          0
cpu0_ITLB PREFETCH  ACCESS:          0  HIT:          0  MISS:          0
cpu0_ITLB WRITEBACK ACCESS:          0  HIT:          0  MISS:          0
cpu0_L1I TOTAL     ACCESS:     350377  HIT:     289854  MISS:      60523
cpu0_L1I LOAD      ACCESS:     350377  HIT:     289854  MISS:      60523
cpu0_L1I RFO       ACCESS:          0  HIT:          0  MISS:          0
cpu0_L1I PREFETCH  ACCESS:          0  HIT:          0  MISS:          0
cpu0_L1I WRITEBACK ACCESS:          0  HIT:          0  MISS:          0
cpu0_STLB TOTAL     ACCESS:     207839  HIT:      42171  MISS:     165668
cpu0_STLB LOAD      ACCESS:     203776  HIT:      38652  MISS:     165124
cpu0_STLB RFO       ACCESS:       4063  HIT:       3519  MISS:        544
cpu0_STLB PREFETCH  ACCESS:          0  HIT:          0  MISS:          0
cpu0_STLB WRITEBACK ACCESS:          0  HIT:          0  MISS:          0
cpu0_L1D TOTAL     ACCESS:    9585678  HIT:    8207952  MISS:    1377726
cpu0_L1D LOAD      ACCESS:    7783305  HIT:    6413529  MISS:    1369776
cpu0_L1D RFO       ACCESS:    1659160  HIT:    1654210  MISS:       4950
cpu0_L1D PREFETCH  ACCESS:          0  HIT:          0  MISS:          0
cpu0_L1D WRITEBACK ACCESS:          0  HIT:          0  MISS:          0
cpu0_L2C TOTAL     ACCESS:    1450154  HIT:      70546  MISS:    1379608
cpu0_L2C LOAD      ACCESS:    1430297  HIT:      54474  MISS:    1375823
cpu0_L2C RFO       ACCESS:       4950  HIT:       1925  MISS:       3025
cpu0_L2C PREFETCH  ACCESS:          0  HIT:          0  MISS:          0
cpu0_L2C WRITEBACK ACCESS:      11907  HIT:      11709  MISS:        198
LLC TOTAL     ACCESS:    1386456  HIT:      55190  MISS:    1331266
LLC LOAD      ACCESS:    1375823  HIT:      46551  MISS:    1329272
LLC RFO       ACCESS:       3025  HIT:       1254  MISS:       1771
LLC PREFETCH  ACCESS:          0  HIT:          0  MISS:          0
LLC WRITEBACK ACCESS:       7046  HIT:       6949  MISS:         97
Heartbeat CPU 0 instructions: 102000000 cycles: 198766401 heartbeat IPC: 0.234446 cumulative IPC: 0.28192 (Simulation time: 1 hr 27 min 39 sec) 

Region of Interest Statistics
cpu0_DTLB TOTAL     ACCESS:   11532080  HIT:   11322140  MISS:     209940
cpu0_DTLB LOAD      ACCESS:   10667243  HIT:   10461540  MISS:     205703
cpu0_DTLB RFO       ACCESS:     864837  HIT:     860600  MISS:       4237
cpu0_DTLB PREFETCH  ACCESS:          0  HIT:          0  MISS:          0
cpu0_DTLB WRITEBACK ACCESS:          0  HIT:          0  MISS:          0
cpu0_ITLB TOTAL     ACCESS:    7123482  HIT:    7110033  MISS:      13449
cpu0_ITLB LOAD      ACCESS:    7123482  HIT:    7110033  MISS:      13449
cpu0_ITLB RFO       ACCESS:          0  HIT:          0  MISS:          0
cpu0_ITLB PREFETCH  ACCESS:          0  HIT:          0  MISS:          0
cpu0_ITLB WRITEBACK ACCESS:          0  HIT:          0  MISS:          0
cpu0_L1I TOTAL     ACCESS:     365662  HIT:     301726  MISS:      63936
cpu0_L1I LOAD      ACCESS:     365662  HIT:     301726  MISS:      63936
cpu0_L1I RFO       ACCESS:          0  HIT:          0  MISS:          0
cpu0_L1I PREFETCH  ACCESS:          0  HIT:          0  MISS:          0
cpu0_L1I WRITEBACK ACCESS:          0  HIT:          0  MISS:          0
cpu0_STLB TOTAL     ACCESS:     223389  HIT:      43586  MISS:     179803
cpu0_STLB LOAD      ACCESS:     219152  HIT:      39946  MISS:     179206
cpu0_STLB RFO       ACCESS:       4237  HIT:       3640  MISS:        597
cpu0_STLB PREFETCH  ACCESS:          0  HIT:          0  MISS:          0
cpu0_STLB WRITEBACK ACCESS:          0  HIT:          0  MISS:          0
cpu0_L1D TOTAL     ACCESS:    9989225  HIT:    8548100  MISS:    1441125
cpu0_L1D LOAD      ACCESS:    8102469  HIT:    6669701  MISS:    1432768
cpu0_L1D RFO       ACCESS:    1731127  HIT:    1725911  MISS:       5216
cpu0_L1D PREFETCH  ACCESS:          0  HIT:          0  MISS:          0
cpu0_L1D WRITEBACK ACCESS:          0  HIT:          0  MISS:          0
cpu0_L2C TOTAL     ACCESS:    1517668  HIT:      73212  MISS:    1444456
cpu0_L2C LOAD      ACCESS:    1496702  HIT:      56300  MISS:    1440402
cpu0_L2C RFO       ACCESS:       5216  HIT:       1976  MISS:       3240
cpu0_L2C PREFETCH  ACCESS:          0  HIT:          0  MISS:          0
cpu0_L2C WRITEBACK ACCESS:      12609  HIT:      12400  MISS:        209
LLC TOTAL     ACCESS:    1451863  HIT:      59648  MISS:    1392215
LLC LOAD      ACCESS:    1440402  HIT:      50242  MISS:    1390160
LLC RFO       ACCESS:       3240  HIT:       1416  MISS:       1824
LLC PREFETCH  ACCESS:          0  HIT:          0  MISS:          0
LLC WRITEBACK ACCESS:       7616  HIT:       7514  MISS:        102
Heartbeat CPU 0 instructions: 104000000 cycles: 205341532 heartbeat IPC: 0.304176 cumulative IPC: 0.282686 (Simulation time: 1 hr 29 min 41 sec) 

Region of Interest Statistics
cpu0_DTLB TOTAL     ACCESS:   11965109  HIT:   11736700  MISS:     228409
cpu0_DTLB LOAD      ACCESS:   11050526  HIT:   10826926  MISS:     223600
cpu0_DTLB RFO       ACCESS:     914583  HIT:     909774  MISS:       4809
cpu0_DTLB PREFETCH  ACCESS:          0  HIT:          0  MISS:          0
cpu0_DTLB WRITEBACK ACCESS:          0  HIT:          0  MISS:          0
cpu0_ITLB TOTAL     ACCESS:    7376431  HIT:    7361319  MISS:      15112
cpu0_ITLB LOAD      ACCESS:    7376431  HIT:    7361319  MISS:      15112
cpu0_ITLB RFO       ACCESS:          0  HIT:          0  MISS:          0
cpu0_ITLB PREFETCH  ACCESS:          0  HIT:          0  MISS:          0
cpu0_ITLB WRITEBACK ACCESS:          0  HIT:          0  MISS:          0
cpu0_L1I TOTAL     ACCESS:     413701  HIT:     343424  MISS:      70277
cpu0_L1I LOAD      ACCESS:     413701  HIT:     343424  MISS:      70277
cpu0_L1I RFO       ACCESS:          0  HIT:          0  MISS:          0
cpu0_L1I PREFETCH  ACCESS:          0  HIT:          0  MISS:          0
cpu0_L1I WRITEBACK ACCESS:          0  HIT:          0  MISS:          0
cpu0_STLB TOTAL     ACCESS:     243521  HIT:      49725  MISS:     193796
cpu0_STLB LOAD      ACCESS:     238712  HIT:      45551  MISS:     193161
cpu0_STLB RFO       ACCESS:       4809  HIT:       4174  MISS:        635
cpu0_STLB PREFETCH  ACCESS:          0  HIT:          0  MISS:          0
cpu0_STLB WRITEBACK ACCESS:          0  HIT:          0  MISS:          0
cpu0_L1D TOTAL     ACCESS:   10392732  HIT:    8904133  MISS:    1488599
cpu0_L1D LOAD      ACCESS:    8397733  HIT:    6918395  MISS:    1479338
cpu0_L1D RFO       ACCESS:    1828434  HIT:    1822486  MISS:       5948
cpu0_L1D PREFETCH  ACCESS:          0  HIT:          0  MISS:          0
cpu0_L1D WRITEBACK ACCESS:          0  HIT:          0  MISS:          0
cpu0_L2C TOTAL     ACCESS:    1572904  HIT:      81968  MISS:    1490936
cpu0_L2C LOAD      ACCESS:    1549613  HIT:      63135  MISS:    1486478
cpu0_L2C RFO       ACCESS:       5948  HIT:       2347  MISS:       3601
cpu0_L2C PREFETCH  ACCESS:          0  HIT:          0  MISS:          0
cpu0_L2C WRITEBACK ACCESS:      14030  HIT:      13804  MISS:        226
LLC TOTAL     ACCESS:    1498918  HIT:      62361  MISS:    1436557
LLC LOAD      ACCESS:    1486478  HIT:      52258  MISS:    1434220
LLC RFO       ACCESS:       3601  HIT:       1499  MISS:       2102
LLC PREFETCH  ACCESS:          0  HIT:          0  MISS:          0
LLC WRITEBACK ACCESS:       8208  HIT:       8102  MISS:        106
Heartbeat CPU 0 instructions: 106000000 cycles: 212427314 heartbeat IPC: 0.282255 cumulative IPC: 0.28267 (Simulation time: 1 hr 31 min 46 sec) 

Region of Interest Statistics
cpu0_DTLB TOTAL     ACCESS:   12407803  HIT:   12171894  MISS:     235909
cpu0_DTLB LOAD      ACCESS:   11461191  HIT:   11230232  MISS:     230959
cpu0_DTLB RFO       ACCESS:     946612  HIT:     941662  MISS:       4950
cpu0_DTLB PREFETCH  ACCESS:          0  HIT:          0  MISS:          0
cpu0_DTLB WRITEBACK ACCESS:          0  HIT:          0  MISS:          0
cpu0_ITLB TOTAL     ACCESS:    7650237  HIT:    7634624  MISS:      15613
cpu0_ITLB LOAD      ACCESS:    7650237  HIT:    7634624  MISS:      15613
cpu0_ITLB RFO       ACCESS:          0  HIT:          0  MISS:          0
cpu0_ITLB PREFETCH  ACCESS:          0  HIT:          0  MISS:          0
cpu0_ITLB WRITEBACK ACCESS:          0  HIT:          0  MISS:          0
cpu0_L1I TOTAL     ACCESS:     426471  HIT:     353706  MISS:      72765
cpu0_L1I LOAD      ACCESS:     426471  HIT:     353706  MISS:      72765
cpu0_L1I RFO       ACCESS:          0  HIT:          0  MISS:          0
cpu0_L1I PREFETCH  ACCESS:          0  HIT:          0  MISS:          0
cpu0_L1I WRITEBACK ACCESS:          0  HIT:          0  MISS:          0
cpu0_STLB TOTAL     ACCESS:     251522  HIT:      51095  MISS:     200427
cpu0_STLB LOAD      ACCESS:     246572  HIT:      46809  MISS:     199763
cpu0_STLB RFO       ACCESS:       4950  HIT:       4286  MISS:        664
cpu0_STLB PREFETCH  ACCESS:          0  HIT:          0  MISS:          0
cpu0_STLB WRITEBACK ACCESS:          0  HIT:          0  MISS:          0
cpu0_L1D TOTAL     ACCESS:   10774097  HIT:    9230906  MISS:    1543191
cpu0_L1D LOAD      ACCESS:    8708842  HIT:    7175220  MISS:    1533622
cpu0_L1D RFO       ACCESS:    1892959  HIT:    1886827  MISS:       6132
cpu0_L1D PREFETCH  ACCESS:          0  HIT:          0  MISS:          0
cpu0_L1D WRITEBACK ACCESS:          0  HIT:          0  MISS:          0
cpu0_L2C TOTAL     ACCESS:    1630451  HIT:      84358  MISS:    1546093
cpu0_L2C LOAD      ACCESS:    1606385  HIT:      64918  MISS:    1541467
cpu0_L2C RFO       ACCESS:       6132  HIT:       2397  MISS:       3735
cpu0_L2C PREFETCH  ACCESS:          0  HIT:          0  MISS:          0
[...]
cpu0_DTLB PREFETCH  REQUESTED:          0  ISSUED:          0  USEFUL:          0  USELESS:          0
cpu0_DTLB AVERAGE MISS LATENCY: 41.8339 cycles
cpu0_ITLB TOTAL     ACCESS:  204458829  HIT:  204072436  MISS:     386393
cpu0_ITLB LOAD      ACCESS:  204458829  HIT:  204072436  MISS:     386393
cpu0_ITLB RFO       ACCESS:          0  HIT:          0  MISS:          0
cpu0_ITLB PREFETCH  ACCESS:          0  HIT:          0  MISS:          0
cpu0_ITLB WRITEBACK ACCESS:          0  HIT:          0  MISS:          0
cpu0_ITLB TRANSLATION ACCESS:          0  HIT:          0  MISS:          0
cpu0_ITLB PREFETCH  REQUESTED:          0  ISSUED:          0  USEFUL:          0  USELESS:          0
cpu0_ITLB AVERAGE MISS LATENCY: 10.7952 cycles
cpu0_L1I TOTAL     ACCESS:   10405176  HIT:    8531047  MISS:    1874129
cpu0_L1I LOAD      ACCESS:   10405176  HIT:    8531047  MISS:    1874129
cpu0_L1I RFO       ACCESS:          0  HIT:          0  MISS:          0
cpu0_L1I PREFETCH  ACCESS:          0  HIT:          0  MISS:          0
cpu0_L1I WRITEBACK ACCESS:          0  HIT:          0  MISS:          0
cpu0_L1I TRANSLATION ACCESS:          0  HIT:          0  MISS:          0
cpu0_L1I PREFETCH  REQUESTED:          0  ISSUED:          0  USEFUL:          0  USELESS:          0
cpu0_L1I AVERAGE MISS LATENCY: 56.9683 cycles
cpu0_STLB TOTAL     ACCESS:    6803389  HIT:    1216174  MISS:    5587215
cpu0_STLB LOAD      ACCESS:    6682541  HIT:    1114364  MISS:    5568177
cpu0_STLB RFO       ACCESS:     120848  HIT:     101810  MISS:      19038
cpu0_STLB PREFETCH  ACCESS:          0  HIT:          0  MISS:          0
cpu0_STLB WRITEBACK ACCESS:          0  HIT:          0  MISS:          0
cpu0_STLB TRANSLATION ACCESS:          0  HIT:          0  MISS:          0
cpu0_STLB PREFETCH  REQUESTED:          0  ISSUED:          0  USEFUL:          0  USELESS:          0
cpu0_STLB AVERAGE MISS LATENCY: 37.7453 cycles
cpu0_L1D TOTAL     ACCESS:  288205516  HIT:  246588197  MISS:   41617319
cpu0_L1D LOAD      ACCESS:  233536844  HIT:  192211849  MISS:   41324995
cpu0_L1D RFO       ACCESS:   49808482  HIT:   49604439  MISS:     204043
cpu0_L1D PREFETCH  ACCESS:          0  HIT:          0  MISS:          0
cpu0_L1D WRITEBACK ACCESS:          0  HIT:          0  MISS:          0
cpu0_L1D TRANSLATION ACCESS:    4860190  HIT:    4771909  MISS:      88281
cpu0_L1D PREFETCH  REQUESTED:          0  ISSUED:          0  USEFUL:          0  USELESS:          0
cpu0_L1D AVERAGE MISS LATENCY: 179.546 cycles
cpu0_L2C TOTAL     ACCESS:   43910830  HIT:    2038767  MISS:   41872063
cpu0_L2C LOAD      ACCESS:   43199050  HIT:    1503330  MISS:   41695720
cpu0_L2C RFO       ACCESS:     204037  HIT:      51596  MISS:     152441
cpu0_L2C PREFETCH  ACCESS:          0  HIT:          0  MISS:          0
cpu0_L2C WRITEBACK ACCESS:     419462  HIT:     413716  MISS:       5746
cpu0_L2C TRANSLATION ACCESS:      88281  HIT:      70125  MISS:      18156
cpu0_L2C PREFETCH  REQUESTED:          0  ISSUED:          0  USEFUL:          0  USELESS:          0
cpu0_L2C AVERAGE MISS LATENCY: 169.457 cycles
LLC TOTAL     ACCESS:   42158107  HIT:    2714361  MISS:   39443746
LLC LOAD      ACCESS:   41695720  HIT:    2363812  MISS:   39331908
LLC RFO       ACCESS:     152441  HIT:      47948  MISS:     104493
LLC PREFETCH  ACCESS:          0  HIT:          0  MISS:          0
LLC WRITEBACK ACCESS:     291790  HIT:     288454  MISS:       3336
LLC TRANSLATION ACCESS:      18156  HIT:      14147  MISS:       4009
LLC PREFETCH  REQUESTED:          0  ISSUED:          0  USEFUL:          0  USELESS:          0
LLC AVERAGE MISS LATENCY: 157.599 cycles
~~~~~~~~~~Reuse Distance Profiler output~~~~~~~~~~
0	49940704	31061216
1	33349520	25823008
2	27068448	26302576
3	5793536	5207168
4	8615856	8141232
5	10886960	4671024
6	3551040	3310160
7	951232	731712
8	1082336	852112
9	520848	357280
10	458176	269248
11	1475024	760160
12	2233696	232224
13	6977632	4830416
14	1504608	259392
15	927824	461072
16	463840	344576
17	765104	674080
18	1425584	1342352
19	4314224	4251312
20	332240	262432
21	248336	182560
22	181648	109520
23	217280	132080
24	296016	195424
25	452336	362176
26	1621232	1537088
27	4371120	4302976
28	3861248	3664720
29	2144304	1373376
30	2651840	526480
31	2136096	268816
32	1055696	322848
33	543824	255904
34	418624	257152
35	561328	357840
36	722032	548768
37	1361376	1298576
38	1618464	1587920
39	1662960	1642448
40	6116464	6095936
41	16497808	16476576
42	15295984	15270480
43	6769664	6750960
44	2315008	2293744
45	708928	687744
46	480032	454528
47	483520	443936
48	721024	679072
49	923072	880320
50	1155248	1130592
51	913856	886528
52	411968	386416
53	137728	111472
54	71728	47840
55	85056	59984
56	159312	116240
57	153760	119696
58	154672	127216
59	81616	67648
60	66176	49168
61	53216	36912
62	60896	44672
63	56800	43488
64	140528	109824
66	105552	78992
68	89440	67856
70	74960	59024
72	59312	45200
74	67248	58944
76	315920	308576
78	493952	487600
80	407936	400448
82	434368	425328
84	217584	210352
86	107584	102224
88	111952	107856
90	93200	87920
92	58528	53344
94	32544	28784
96	26976	22112
98	24128	19056
100	23760	21264
102	23936	21472
104	17056	14528
106	17552	14976
108	19216	16896
110	22752	20224
112	20032	16720
114	19744	14256
116	15760	13280
118	20640	18288
120	26544	22640
122	26384	22800
124	34960	30272
126	37888	34128
128	75360	69920
132	86320	79984
136	46672	39616
140	31088	22944
144	28800	22784
148	28720	22624
152	26848	20864
156	24128	19472
160	31168	25824
164	40688	35120
168	45008	37824
172	43696	36320
176	39376	32992
180	24752	18672
184	24016	17328
188	25776	19168
192	26400	18976
196	23056	17600
200	15872	13088
204	22272	19616
208	26400	22832
212	32832	28096
216	37312	32624
220	29216	24880
224	25200	20864
228	26720	22448
232	23984	19600
236	24448	21488
240	22624	19600
244	19872	16800
248	25072	22208
252	28496	24624
256	58960	53296
264	36352	32368
272	34384	30656
280	48688	43680
288	41568	37824
296	43408	38960
304	32192	27568
312	23184	19600
320	22784	19648
328	22208	17664
336	26848	22896
344	26912	23744
352	14480	12192
360	16848	13744
368	14288	12976
376	21792	20512
384	32368	30640
392	18736	16800
400	20240	17664
408	16928	15440
416	15856	14752
424	19152	17728
432	18192	16032
440	17152	14640
448	18896	15696
456	17280	14784
464	19888	17344
472	17520	15792
480	12032	10704
488	14496	13440
496	13728	12272
504	16656	15280
512	37168	34416
528	24160	22512
544	25584	22816
560	22448	19920
576	18608	15856
592	27680	20544
608	16928	11856
624	23568	16512
640	22992	19440
656	16640	14432
672	21456	19552
688	16000	15008
704	18384	17136
720	24048	20128
736	22256	16352
752	23040	17792
768	18144	13120
784	17600	14128
800	25264	20816
816	20416	15440
832	15648	12192
848	13936	11392
864	11568	9696
880	14112	11984
896	12944	10720
912	12160	10032
928	16608	12944
944	13984	10896
960	12992	11232
976	13584	10816
992	10832	7920
1008	11312	9472
1024	25472	21936
1056	22240	18352
1088	26112	23872
1120	20128	17616
1152	17248	14960
1184	20224	16848
1216	21184	18320
1248	19920	16304
1280	20752	17584
1312	22080	18912
1344	22176	18592
1376	24896	21072
1408	25600	22160
1440	24160	21632
1472	20992	18448
1504	21040	17632
1536	24080	20480
1568	34064	30576
1600	39488	34560
1632	34144	30368
1664	32624	29376
1696	33632	30016
1728	38464	35744
1760	37200	33584
1792	33936	30384
1824	35168	31440
1856	35040	32096
1888	26896	24160
1920	27568	25456
1952	26432	23808
1984	26464	23376
2016	28752	25232
2048	66560	58928
2112	104368	95456
2176	63312	58000
2240	53744	48560
2304	61008	55184
2368	68912	63328
2432	58624	53696
2496	48864	44048
2560	54736	47104
2624	51488	45920
2688	46192	41712
2752	59920	56064
2816	75600	67392
2880	78256	66992
2944	55952	48432
3008	46336	39904
3072	39392	34336
3136	45232	40816
3200	45680	40448
3264	38928	33424
3328	35344	30416
3392	34016	31584
3456	40752	36880
3520	52976	44560
3584	22896	19744
3648	19920	16016
3712	18304	15792
3776	19760	17680
3840	26976	24416
3904	20816	18480
3968	16064	13056
4032	12464	10496
4096	24640	20480
4224	24512	20704
4352	19008	15472
4480	15488	12336
4608	21424	17536
4736	24928	21472
4864	19536	16208
4992	30704	27408
5120	24544	22048
5248	11632	9328
5376	11920	10320
5504	17328	15648
5632	12784	11696
5760	17152	15168
5888	11616	10608
6016	19216	17472
6144	12240	10944
6272	8272	6960
6400	6864	5504
6528	4304	3136
6656	4176	3440
6784	10384	9568
6912	7920	6880
7040	5248	4544
7168	9024	7904
7296	7536	6352
7424	7824	6800
7552	9728	8960
7680	6736	6128
7808	6928	6160
7936	3792	3200
8064	2032	1728
8192	5280	4560
8448	4016	3328
8704	4720	4112
8960	3216	2832
9216	4016	3600
9472	4544	4320
9728	3264	2864
9984	3680	3120
10240	3248	2864
10496	3952	3360
10752	6160	4816
11008	6544	5360
11264	2112	1648
11520	1696	1328
11776	1600	1280
12032	1728	1440
12288	1312	1072
12544	1200	928
12800	1408	1216
13056	1040	944
13312	992	880
13568	912	736
13824	768	624
14080	992	800
14336	1040	928
14592	1296	1120
14848	2608	2464
15104	5040	4784
15360	1712	1552
15616	1520	1296
15872	1168	1024
16128	848	704
16384	1552	1184
16896	2720	2256
17408	1808	1312
17920	2512	2160
18432	2208	1856
18944	1536	1184
19456	1840	1504
19968	896	720
20480	2128	1920
20992	2304	2208
21504	1216	1024
22016	1408	1216
22528	1840	1472
23040	2176	1664
23552	1632	1440
24064	2352	2096
24576	2144	2032
25088	2624	2336
25600	3072	2784
26112	4016	3824
26624	2272	2080
27136	3552	3088
27648	1920	1408
28160	3376	2832
28672	3552	3232
29184	1744	1536
29696	1408	1248
30208	1456	1328
30720	1488	1344
31232	848	704
31744	1008	912
32256	1136	976
32768	1216	1024
33792	3360	3008
34816	3952	3536
35840	912	800
36864	3440	3296
37888	896	784
38912	2448	2304
39936	3776	3600
40960	2912	2816
41984	1136	1008
43008	3104	2944
44032	3584	3424
45056	3824	3744
46080	4064	3840
47104	7760	7632
48128	1120	960
49152	1440	1200
50176	1088	960
51200	912	816
52224	1392	1152
53248	16160	16064
54272	960	864
55296	1120	976
56320	832	688
57344	704	576
58368	800	704
59392	992	928
60416	1040	976
61440	1040	976
62464	960	880
63488	944	880
64512	5984	5888
65536	7424	7264
67584	1472	1280
69632	9200	8992
71680	15776	15504
73728	8848	8608
75776	24480	24176
77824	18336	18064
79872	1680	1552
81920	7184	7056
83968	10592	10384
86016	20352	20048
88064	11456	11296
90112	11808	11712
92160	2624	2480
94208	2464	2208
96256	2448	2144
98304	26352	26192
100352	13488	13216
102400	13424	13248
104448	2064	1936
106496	3216	3024
108544	38800	38576
110592	5824	5648
112640	22800	22544
114688	28016	27840
116736	27456	27264
118784	25776	25648
120832	44368	44208
122880	1408	1360
124928	16704	16576
126976	16800	16656
129024	2000	1776
131072	44720	44288
135168	3792	3584
139264	47232	47008
143360	14688	14544
147456	3888	3744
151552	16624	16400
155648	3760	3568
159744	42624	42400
163840	4512	4176
167936	55424	54400
172032	65424	63280
176128	59312	56416
180224	38288	37008
184320	42640	41584
188416	63360	61824
192512	106800	104672
196608	120160	118528
200704	147680	146912
204800	137472	136752
208896	87088	86640
212992	66416	65952
217088	16944	16192
221184	52800	51584
225280	60848	58496
229376	110032	108480
233472	25328	24688
237568	86560	85984
241664	64592	63968
245760	103536	102032
249856	86416	84944
253952	63456	62352
258048	19440	19088
262144	294736	294080
270336	117088	116464
278528	30192	29616
286720	124064	123552
294912	105264	104816
303104	142416	141856
311296	101296	100912
319488	151760	151440
327680	122976	122560
335872	122656	122288
344064	173936	173648
352256	69888	69296
360448	188320	187968
368640	77312	76912
376832	189376	188864
385024	183632	183184
393216	82928	82528
401408	203520	203136
409600	160704	160560
417792	185600	185184
425984	137024	136608
434176	206048	205600
442368	295840	295504
450560	242336	242096
458752	255200	254880
466944	170544	170208
475136	46960	46640
483328	192624	192288
491520	213536	213184
499712	170624	170208
507904	252512	252336
516096	113872	113632
524288	126672	126000
540672	107376	106944
557056	570272	569520
573440	384928	384592
589824	281904	281600
606208	100272	99840
622592	529264	528768
638976	233632	232848
655360	507504	507040
671744	235712	235104
688128	278288	277680
704512	195440	195136
720896	269088	268544
737280	346208	345792
753664	591392	591072
770048	473984	473632
786432	237664	237488
802816	131216	130944
819200	248128	247728
835584	246624	246272
851968	247728	247296
868352	593856	593328
884736	226544	226384
901120	417392	416928
917504	193776	190544
933888	2544688	2541760
950272	2954704	2953040
966656	354784	354608
983040	474800	474704
999424	299136	299008
1015808	392928	392784
1032192	269488	269408
1048576	300640	300480
1081344	352368	351984
1114112	581808	581440
1146880	573760	573488
1179648	419168	418976
1212416	398272	398112
1245184	378144	378080
1277952	526912	526688
1310720	333280	333136
1343488	410032	409776
1376256	241280	241088
1409024	300976	300752
1441792	653264	652976
1474560	177904	177728
1507328	267072	266928
1540096	572864	572736
1572864	151200	151184
1605632	314000	313824
1638400	1022240	1022032
1671168	620752	620624
1703936	325680	325584
1736704	368432	368240
1769472	484592	484496
1802240	125920	125888
1835008	288592	288480
1867776	221872	221792
1900544	125840	125824
1933312	109520	109504
1966080	430064	430000
1998848	131408	131392
2031616	20384	20256
2064384	247984	247920
2097152	434848	434576
2162688	283600	283312
2228224	46320	46160
2293760	306672	306448
2359296	145968	145552
2424832	410368	410240
2490368	83488	83392
2555904	367168	366928
2621440	73168	73104
2686976	161184	161056
2752512	98944	98864
2818048	272496	272352
2883584	197488	197344
2949120	42864	42752
3014656	130640	130544
3080192	165456	165200
3145728	172544	172448
3211264	137632	137504
3276800	224064	223792
3342336	150592	150464
3407872	93728	93648
3473408	138368	138208
3538944	71408	71248
3604480	35056	34944
3670016	50848	50800
3735552	83376	83280
3801088	7040	6896
3866624	116160	116064
3932160	65280	64960
3997696	69936	69648
4063232	27264	26976
4128768	29600	29328
4194304	427712	427200
4325376	259104	258560
4456448	167632	167568
4587520	76512	76384
4718592	124464	124256
4849664	89744	89536
4980736	46096	46048
5111808	86128	85952
5242880	158016	157792
5373952	118464	118192
5505024	40016	39904
5636096	8624	8512
5767168	89040	88944
5898240	5824	5568
6029312	143184	142752
6160384	89152	88944
6291456	28128	27984
6422528	5248	5024
6553600	87952	87760
6684672	72720	72544
6815744	70256	69840
6946816	3792	3664
7077888	3232	2992
7208960	4848	4624
7340032	15984	15856
7471104	105744	105664
7602176	5168	5056
7733248	12928	12736
7864320	37248	37200
7995392	76256	76096
8126464	2624	2480
8257536	4144	3872
8388608	31424	30656
8650752	24448	23600
8912896	6864	6272
9175040	8944	8416
9437184	67056	66480
9699328	47616	47344
9961472	7968	7520
10223616	10592	10176
10485760	72160	71728
10747904	4352	4016
11010048	33616	33040
11272192	11440	11200
11534336	2640	2496
11796480	5440	5152
12058624	60848	60512
12320768	5504	5072
12582912	5216	4768
12845056	2656	2560
13107200	3824	3424
13369344	19840	19536
13631488	3008	2816
13893632	2784	2272
14155776	2800	2464
14417920	2384	2208
14680064	3344	2560
14942208	3152	2848
15204352	4368	3712
15466496	3872	3168
15728640	2528	2320
15990784	2848	2288
16252928	3600	3312
16515072	4192	3072
16777216	8352	4880
17301504	6656	6336
17825792	8208	4496
18350080	5440	5216
18874368	6992	4384
19398656	4912	4000
19922944	19216	18848
20447232	5920	5280
20971520	5408	5184
21495808	7728	7248
22020096	3760	3568
22544384	7104	4000
23068672	3696	3264
23592960	3616	2912
24117248	5376	5200
24641536	5840	3056
25165824	6672	6016
25690112	3904	3600
26214400	4608	4432
26738688	4576	4160
27262976	3840	3376
27787264	5312	4720
28311552	3664	3472
28835840	3328	2896
29360128	4272	3120
29884416	3488	3232
30408704	3360	2992
30932992	5296	5088
31457280	4016	3936
31981568	3184	2928
32505856	2416	2208
33030144	2864	2448
33554432	5568	5232
34603008	5952	5648
35651584	6256	5808
36700160	5760	5536
37748736	6416	6144
38797312	6176	5856
39845888	4816	4560
40894464	6016	5776
41943040	4560	4416
42991616	4528	4400
44040192	5504	5344
45088768	4144	3904
46137344	5152	4928
47185920	4160	4048
48234496	5808	5264
49283072	4320	4272
50331648	4560	4560
51380224	4864	4624
52428800	4624	4560
53477376	3648	3648
54525952	3584	3584
55574528	5584	5568
56623104	2720	2688
57671680	4576	4560
58720256	2624	2624
59768832	4288	4128
60817408	3376	3376
61865984	4032	4032
62914560	2960	2928
63963136	2144	2144
65011712	2592	2592
66060288	3808	3664
67108864	5104	5104
69206016	5152	5136
71303168	4640	4640
73400320	5200	5184
75497472	5824	5808
77594624	3904	3888
79691776	4160	4160
81788928	4432	4432
83886080	4176	4176
85983232	2896	2896
88080384	3008	3008
90177536	3456	3456
92274688	3072	3072
94371840	2912	2912
96468992	3376	3376
98566144	3248	3248
100663296	2256	2256
102760448	2304	2304
104857600	2384	2384
106954752	1872	1872
109051904	2720	2720
111149056	1856	1856
113246208	1968	1968
115343360	1888	1888
117440512	2864	2864
119537664	1536	1536
121634816	1616	1616
123731968	1168	1168
125829120	1728	1728
127926272	1312	1312
130023424	1712	1712
132120576	1472	1472
134217728	2832	2832
138412032	2816	2816
142606336	2016	2016
146800640	2480	2480
150994944	2368	2352
155189248	1184	1184
159383552	1392	1392
163577856	1120	1120
167772160	928	928
171966464	1072	1072
176160768	768	768
180355072	640	640
184549376	528	528
188743680	1248	1248
192937984	352	352
197132288	544	544
201326592	384	384
205520896	896	896
209715200	256	256
213909504	480	480
218103808	400	400
222298112	208	208
226492416	464	464
230686720	128	128
234881024	256	256
239075328	128	128
243269632	112	112
247463936	208	208
251658240	144	144
255852544	176	176
260046848	32	32
264241152	32	32
268435456	112	112
276824064	80	80
285212672	16	16
293601280	0	0
301989888	0	0
310378496	0	0
318767104	0	0
327155712	0	0
335544320	0	0
343932928	0	0
352321536	0	0
360710144	0	0
369098752	0	0
377487360	0	0
385875968	0	0
394264576	0	0
402653184	0	0
411041792	0	0
419430400	0	0
427819008	0	0
436207616	0	0
444596224	0	0
452984832	0	0
461373440	0	0
469762048	0	0
478150656	0	0
486539264	0	0
494927872	0	0
503316480	0	0
511705088	0	0
520093696	0	0
528482304	0	0
536870912	0	0
553648128	0	0
570425344	0	0
587202560	0	0
603979776	0	0
620756992	0	0
637534208	0	0
654311424	0	0
671088640	0	0
687865856	0	0
704643072	0	0
721420288	0	0
738197504	0	0
754974720	0	0
771751936	0	0
788529152	0	0
805306368	0	0
822083584	0	0
838860800	0	0
855638016	0	0
872415232	0	0
889192448	0	0
905969664	0	0
922746880	0	0
939524096	0	0
956301312	0	0
973078528	0	0
989855744	0	0
1006632960	0	0
1023410176	0	0
1040187392	0	0
1056964608	0	0
1073741824	0	0
1107296256	0	0
1140850688	0	0
1174405120	0	0
1207959552	0	0
1241513984	0	0
1275068416	0	0
1308622848	0	0
1342177280	0	0
1375731712	0	0
1409286144	0	0
1442840576	0	0
1476395008	0	0
1509949440	0	0
1543503872	0	0
1577058304	0	0
1610612736	0	0
1644167168	0	0
1677721600	0	0
1711276032	0	0
1744830464	0	0
1778384896	0	0
1811939328	0	0
1845493760	0	0
1879048192	0	0
1912602624	0	0
1946157056	0	0
1979711488	0	0
2013265920	0	0
2046820352	0	0
2080374784	0	0
2113929216	0	0
2147483648	0	0
2214592512	0	0
2281701376	0	0
2348810240	0	0
2415919104	0	0
2483027968	0	0
2550136832	0	0
2617245696	0	0
2684354560	0	0
2751463424	0	0
2818572288	0	0
2885681152	0	0
2952790016	0	0
3019898880	0	0
3087007744	0	0
3154116608	0	0
3221225472	0	0
3288334336	0	0
3355443200	0	0
3422552064	0	0
3489660928	0	0
3556769792	0	0
3623878656	0	0
3690987520	0	0
3758096384	0	0
3825205248	0	0
3892314112	0	0
3959422976	0	0
4026531840	0	0
4093640704	0	0
4160749568	0	0
4227858432	0	0
~~~~~~~~~~Reuse Distance Profiler output end~~~~~~~~~~

Sampler size:27161

DRAM Statistics
 CHANNEL 0
 RQ ROW_BUFFER_HIT:   10948599  ROW_BUFFER_MISS:   28491803
 DBUS AVG_CONGESTED_CYCLE:    3.89637
 WQ ROW_BUFFER_HIT:      75423  ROW_BUFFER_MISS:      71057  FULL:          0


CPU 0 Branch Prediction Accuracy: 91.4372% MPKI: 24.4473 Average ROB Occupancy at Mispredict: 22.7665
Branch type MPKI
BRANCH_DIRECT_JUMP: 2.26667e-05
BRANCH_INDIRECT: 0.00630933
BRANCH_CONDITIONAL: 24.3449
BRANCH_DIRECT_CALL: 2.06667e-05
BRANCH_INDIRECT_CALL: 0.0226987
BRANCH_RETURN: 0.073348

