
*** ChampSim Multicore Out-of-Order Simulator ***

Warmup Instructions: 50000000
Simulation Instructions: 1500000000
Number of CPUs: 1
Off-chip DRAM Size: 4 GiB Channels: 1 Width: 64-bit Data Rate: 3200 MT/s

VirtualMemory physical capacity: 8588881920 num_ppages: 2096895
VirtualMemory page size: 4096 log2_page_size: 12

CPU 0 runs /s/traces/champsim_traces/602.gcc_s-2226B.champsimtrace.xz
CPU 0 Bimodal branch predictor
Basic BTB sets: 1024 ways: 8 indirect buffer size: 4096 RAS size: 64
Initializing LRU.
Initializing LRU.
Initializing LRU.
Initializing LRU.
Initializing rdLRU.
Initializing LRU.
Heartbeat CPU 0 instructions: 2000004 cycles: 698712 heartbeat IPC: 2.86242 cumulative IPC: 2.86242 (Simulation time: 0 hr 1 min 28 sec) 
Heartbeat CPU 0 instructions: 4000001 cycles: 1394338 heartbeat IPC: 2.8751 cumulative IPC: 2.86875 (Simulation time: 0 hr 3 min 1 sec) 
Heartbeat CPU 0 instructions: 6000003 cycles: 2081030 heartbeat IPC: 2.91252 cumulative IPC: 2.88319 (Simulation time: 0 hr 4 min 33 sec) 
Heartbeat CPU 0 instructions: 8000003 cycles: 2777717 heartbeat IPC: 2.87073 cumulative IPC: 2.88006 (Simulation time: 0 hr 6 min 8 sec) 
Heartbeat CPU 0 instructions: 10000001 cycles: 3475363 heartbeat IPC: 2.86678 cumulative IPC: 2.8774 (Simulation time: 0 hr 7 min 46 sec) 
Heartbeat CPU 0 instructions: 12000004 cycles: 4173089 heartbeat IPC: 2.86646 cumulative IPC: 2.87557 (Simulation time: 0 hr 9 min 22 sec) 
Heartbeat CPU 0 instructions: 14000003 cycles: 4870607 heartbeat IPC: 2.86731 cumulative IPC: 2.87439 (Simulation time: 0 hr 10 min 57 sec) 
Heartbeat CPU 0 instructions: 16000000 cycles: 5567654 heartbeat IPC: 2.86924 cumulative IPC: 2.87374 (Simulation time: 0 hr 12 min 33 sec) 
Heartbeat CPU 0 instructions: 18000003 cycles: 6265584 heartbeat IPC: 2.86562 cumulative IPC: 2.87284 (Simulation time: 0 hr 14 min 7 sec) 
Heartbeat CPU 0 instructions: 20000000 cycles: 6963120 heartbeat IPC: 2.86723 cumulative IPC: 2.87228 (Simulation time: 0 hr 15 min 42 sec) 
Heartbeat CPU 0 instructions: 22000002 cycles: 7661196 heartbeat IPC: 2.86502 cumulative IPC: 2.87161 (Simulation time: 0 hr 17 min 13 sec) 
Heartbeat CPU 0 instructions: 24000002 cycles: 8358489 heartbeat IPC: 2.86823 cumulative IPC: 2.87133 (Simulation time: 0 hr 18 min 45 sec) 
Heartbeat CPU 0 instructions: 26000000 cycles: 9059318 heartbeat IPC: 2.85376 cumulative IPC: 2.86997 (Simulation time: 0 hr 20 min 19 sec) 
Heartbeat CPU 0 instructions: 28000000 cycles: 9759683 heartbeat IPC: 2.85565 cumulative IPC: 2.86895 (Simulation time: 0 hr 21 min 48 sec) 
Heartbeat CPU 0 instructions: 30000003 cycles: 10459619 heartbeat IPC: 2.85741 cumulative IPC: 2.86817 (Simulation time: 0 hr 23 min 18 sec) 
Heartbeat CPU 0 instructions: 32000000 cycles: 11159670 heartbeat IPC: 2.85693 cumulative IPC: 2.86747 (Simulation time: 0 hr 24 min 46 sec) 
Heartbeat CPU 0 instructions: 34000002 cycles: 11860095 heartbeat IPC: 2.85541 cumulative IPC: 2.86676 (Simulation time: 0 hr 26 min 13 sec) 
Heartbeat CPU 0 instructions: 36000002 cycles: 12561037 heartbeat IPC: 2.8533 cumulative IPC: 2.86601 (Simulation time: 0 hr 27 min 38 sec) 
Heartbeat CPU 0 instructions: 38000000 cycles: 13260448 heartbeat IPC: 2.85955 cumulative IPC: 2.86566 (Simulation time: 0 hr 29 min 3 sec) 
Heartbeat CPU 0 instructions: 40000000 cycles: 13956965 heartbeat IPC: 2.87143 cumulative IPC: 2.86595 (Simulation time: 0 hr 30 min 28 sec) 
Heartbeat CPU 0 instructions: 42000001 cycles: 14643155 heartbeat IPC: 2.91465 cumulative IPC: 2.86823 (Simulation time: 0 hr 31 min 50 sec) 
Heartbeat CPU 0 instructions: 44000001 cycles: 15339873 heartbeat IPC: 2.8706 cumulative IPC: 2.86834 (Simulation time: 0 hr 33 min 14 sec) 
Heartbeat CPU 0 instructions: 46000004 cycles: 16036623 heartbeat IPC: 2.87047 cumulative IPC: 2.86843 (Simulation time: 0 hr 34 min 39 sec) 
Heartbeat CPU 0 instructions: 48000000 cycles: 16734863 heartbeat IPC: 2.86434 cumulative IPC: 2.86826 (Simulation time: 0 hr 36 min 3 sec) 
Heartbeat CPU 0 instructions: 50000002 cycles: 17432412 heartbeat IPC: 2.86718 cumulative IPC: 2.86822 (Simulation time: 0 hr 37 min 26 sec) 

Warmup complete CPU 0 instructions: 50000002 cycles: 17432412 (Simulation time: 0 hr 37 min 26 sec) 

Heartbeat CPU 0 instructions: 52000002 cycles: 34705062 heartbeat IPC: 0.11579 cumulative IPC: 0.11579 (Simulation time: 0 hr 45 min 28 sec) 

Region of Interest Statistics
cpu0_DTLB TOTAL     ACCESS:     267023  HIT:     264190  MISS:       2833
cpu0_DTLB LOAD      ACCESS:     257340  HIT:     254507  MISS:       2833
cpu0_DTLB RFO       ACCESS:       9683  HIT:       9683  MISS:          0
cpu0_DTLB PREFETCH  ACCESS:          0  HIT:          0  MISS:          0
cpu0_DTLB WRITEBACK ACCESS:          0  HIT:          0  MISS:          0
cpu0_ITLB TOTAL     ACCESS:     123733  HIT:     123733  MISS:          0
cpu0_ITLB LOAD      ACCESS:     123733  HIT:     123733  MISS:          0
cpu0_ITLB RFO       ACCESS:          0  HIT:          0  MISS:          0
cpu0_ITLB PREFETCH  ACCESS:          0  HIT:          0  MISS:          0
cpu0_ITLB WRITEBACK ACCESS:          0  HIT:          0  MISS:          0
cpu0_STLB TOTAL     ACCESS:       2833  HIT:        114  MISS:       2719
cpu0_STLB LOAD      ACCESS:       2833  HIT:        114  MISS:       2719
cpu0_STLB RFO       ACCESS:          0  HIT:          0  MISS:          0
cpu0_STLB PREFETCH  ACCESS:          0  HIT:          0  MISS:          0
cpu0_STLB WRITEBACK ACCESS:          0  HIT:          0  MISS:          0
cpu0_L1D TOTAL     ACCESS:     283300  HIT:     142718  MISS:     140582
cpu0_L1D LOAD      ACCESS:     254960  HIT:     114686  MISS:     140274
cpu0_L1D RFO       ACCESS:      25622  HIT:      25570  MISS:         52
cpu0_L1D PREFETCH  ACCESS:          0  HIT:          0  MISS:          0
cpu0_L1D WRITEBACK ACCESS:          0  HIT:          0  MISS:          0
cpu0_L2C TOTAL     ACCESS:     140817  HIT:        473  MISS:     140344
cpu0_L2C LOAD      ACCESS:     140274  HIT:         51  MISS:     140223
cpu0_L2C RFO       ACCESS:         52  HIT:          0  MISS:         52
cpu0_L2C PREFETCH  ACCESS:          0  HIT:          0  MISS:          0
cpu0_L2C WRITEBACK ACCESS:        235  HIT:        233  MISS:          2
LLC TOTAL     ACCESS:     140582  HIT:        269  MISS:     140313
LLC LOAD      ACCESS:     140223  HIT:          3  MISS:     140220
LLC RFO       ACCESS:         52  HIT:          0  MISS:         52
LLC PREFETCH  ACCESS:          0  HIT:          0  MISS:          0
LLC WRITEBACK ACCESS:        240  HIT:        238  MISS:          2
Heartbeat CPU 0 instructions: 54000000 cycles: 51954479 heartbeat IPC: 0.115946 cumulative IPC: 0.115868 (Simulation time: 0 hr 53 min 37 sec) 

Region of Interest Statistics
cpu0_DTLB TOTAL     ACCESS:     534457  HIT:     528904  MISS:       5553
cpu0_DTLB LOAD      ACCESS:     515057  HIT:     509505  MISS:       5552
cpu0_DTLB RFO       ACCESS:      19400  HIT:      19399  MISS:          1
cpu0_DTLB PREFETCH  ACCESS:          0  HIT:          0  MISS:          0
cpu0_DTLB WRITEBACK ACCESS:          0  HIT:          0  MISS:          0
cpu0_ITLB TOTAL     ACCESS:     247661  HIT:     247661  MISS:          0
cpu0_ITLB LOAD      ACCESS:     247661  HIT:     247661  MISS:          0
cpu0_ITLB RFO       ACCESS:          0  HIT:          0  MISS:          0
cpu0_ITLB PREFETCH  ACCESS:          0  HIT:          0  MISS:          0
cpu0_ITLB WRITEBACK ACCESS:          0  HIT:          0  MISS:          0
cpu0_STLB TOTAL     ACCESS:       5553  HIT:        204  MISS:       5349
cpu0_STLB LOAD      ACCESS:       5552  HIT:        204  MISS:       5348
cpu0_STLB RFO       ACCESS:          1  HIT:          0  MISS:          1
cpu0_STLB PREFETCH  ACCESS:          0  HIT:          0  MISS:          0
cpu0_STLB WRITEBACK ACCESS:          0  HIT:          0  MISS:          0
cpu0_L1D TOTAL     ACCESS:     566687  HIT:     285497  MISS:     281190
cpu0_L1D LOAD      ACCESS:     510008  HIT:     229391  MISS:     280617
cpu0_L1D RFO       ACCESS:      51332  HIT:      51235  MISS:         97
cpu0_L1D PREFETCH  ACCESS:          0  HIT:          0  MISS:          0
cpu0_L1D WRITEBACK ACCESS:          0  HIT:          0  MISS:          0
cpu0_L2C TOTAL     ACCESS:     281658  HIT:        934  MISS:     280724
cpu0_L2C LOAD      ACCESS:     280617  HIT:        107  MISS:     280510
cpu0_L2C RFO       ACCESS:         97  HIT:          0  MISS:         97
cpu0_L2C PREFETCH  ACCESS:          0  HIT:          0  MISS:          0
cpu0_L2C WRITEBACK ACCESS:        468  HIT:        466  MISS:          2
LLC TOTAL     ACCESS:     281195  HIT:        525  MISS:     280670
LLC LOAD      ACCESS:     280510  HIT:          9  MISS:     280501
LLC RFO       ACCESS:         97  HIT:          0  MISS:         97
LLC PREFETCH  ACCESS:          0  HIT:          0  MISS:          0
LLC WRITEBACK ACCESS:        473  HIT:        471  MISS:          2
Heartbeat CPU 0 instructions: 56000003 cycles: 69231831 heartbeat IPC: 0.115759 cumulative IPC: 0.115831 (Simulation time: 1 hr 1 min 39 sec) 

Region of Interest Statistics
cpu0_DTLB TOTAL     ACCESS:     801215  HIT:     792717  MISS:       8498
cpu0_DTLB LOAD      ACCESS:     772166  HIT:     763670  MISS:       8496
cpu0_DTLB RFO       ACCESS:      29049  HIT:      29047  MISS:          2
cpu0_DTLB PREFETCH  ACCESS:          0  HIT:          0  MISS:          0
cpu0_DTLB WRITEBACK ACCESS:          0  HIT:          0  MISS:          0
cpu0_ITLB TOTAL     ACCESS:     371475  HIT:     371475  MISS:          0
cpu0_ITLB LOAD      ACCESS:     371475  HIT:     371475  MISS:          0
cpu0_ITLB RFO       ACCESS:          0  HIT:          0  MISS:          0
cpu0_ITLB PREFETCH  ACCESS:          0  HIT:          0  MISS:          0
cpu0_ITLB WRITEBACK ACCESS:          0  HIT:          0  MISS:          0
cpu0_STLB TOTAL     ACCESS:       8498  HIT:        312  MISS:       8186
cpu0_STLB LOAD      ACCESS:       8496  HIT:        312  MISS:       8184
cpu0_STLB RFO       ACCESS:          2  HIT:          0  MISS:          2
cpu0_STLB PREFETCH  ACCESS:          0  HIT:          0  MISS:          0
cpu0_STLB WRITEBACK ACCESS:          0  HIT:          0  MISS:          0
cpu0_L1D TOTAL     ACCESS:     849501  HIT:     427634  MISS:     421867
cpu0_L1D LOAD      ACCESS:     764405  HIT:     343474  MISS:     420931
cpu0_L1D RFO       ACCESS:      76914  HIT:      76759  MISS:        155
cpu0_L1D PREFETCH  ACCESS:          0  HIT:          0  MISS:          0
cpu0_L1D WRITEBACK ACCESS:          0  HIT:          0  MISS:          0
cpu0_L2C TOTAL     ACCESS:     422581  HIT:       1489  MISS:     421092
cpu0_L2C LOAD      ACCESS:     420931  HIT:        178  MISS:     420753
cpu0_L2C RFO       ACCESS:        155  HIT:          0  MISS:        155
cpu0_L2C PREFETCH  ACCESS:          0  HIT:          0  MISS:          0
cpu0_L2C WRITEBACK ACCESS:        714  HIT:        712  MISS:          2
LLC TOTAL     ACCESS:     421802  HIT:        794  MISS:     421008
LLC LOAD      ACCESS:     420753  HIT:         10  MISS:     420743
LLC RFO       ACCESS:        155  HIT:          0  MISS:        155
LLC PREFETCH  ACCESS:          0  HIT:          0  MISS:          0
LLC WRITEBACK ACCESS:        712  HIT:        710  MISS:          2
Heartbeat CPU 0 instructions: 58000000 cycles: 86556107 heartbeat IPC: 0.115445 cumulative IPC: 0.115735 (Simulation time: 1 hr 9 min 33 sec) 

Region of Interest Statistics
cpu0_DTLB TOTAL     ACCESS:    1068572  HIT:    1057356  MISS:      11216
cpu0_DTLB LOAD      ACCESS:    1029816  HIT:    1018602  MISS:      11214
cpu0_DTLB RFO       ACCESS:      38756  HIT:      38754  MISS:          2
cpu0_DTLB PREFETCH  ACCESS:          0  HIT:          0  MISS:          0
cpu0_DTLB WRITEBACK ACCESS:          0  HIT:          0  MISS:          0
cpu0_ITLB TOTAL     ACCESS:     495258  HIT:     495258  MISS:          0
cpu0_ITLB LOAD      ACCESS:     495258  HIT:     495258  MISS:          0
cpu0_ITLB RFO       ACCESS:          0  HIT:          0  MISS:          0
cpu0_ITLB PREFETCH  ACCESS:          0  HIT:          0  MISS:          0
cpu0_ITLB WRITEBACK ACCESS:          0  HIT:          0  MISS:          0
cpu0_STLB TOTAL     ACCESS:      11216  HIT:        379  MISS:      10837
cpu0_STLB LOAD      ACCESS:      11214  HIT:        379  MISS:      10835
cpu0_STLB RFO       ACCESS:          2  HIT:          0  MISS:          2
cpu0_STLB PREFETCH  ACCESS:          0  HIT:          0  MISS:          0
cpu0_STLB WRITEBACK ACCESS:          0  HIT:          0  MISS:          0
cpu0_L1D TOTAL     ACCESS:    1133222  HIT:     570711  MISS:     562511
cpu0_L1D LOAD      ACCESS:    1019789  HIT:     458479  MISS:     561310
cpu0_L1D RFO       ACCESS:     102601  HIT:     102403  MISS:        198
cpu0_L1D PREFETCH  ACCESS:          0  HIT:          0  MISS:          0
cpu0_L1D WRITEBACK ACCESS:          0  HIT:          0  MISS:          0
cpu0_L2C TOTAL     ACCESS:     563461  HIT:       1934  MISS:     561527
cpu0_L2C LOAD      ACCESS:     561310  HIT:        212  MISS:     561098
cpu0_L2C RFO       ACCESS:        198  HIT:          0  MISS:        198
cpu0_L2C PREFETCH  ACCESS:          0  HIT:          0  MISS:          0
cpu0_L2C WRITEBACK ACCESS:        950  HIT:        948  MISS:          2
LLC TOTAL     ACCESS:     562473  HIT:       1061  MISS:     561412
LLC LOAD      ACCESS:     561098  HIT:         16  MISS:     561082
LLC RFO       ACCESS:        198  HIT:          0  MISS:        198
LLC PREFETCH  ACCESS:          0  HIT:          0  MISS:          0
LLC WRITEBACK ACCESS:        948  HIT:        946  MISS:          2
Heartbeat CPU 0 instructions: 60000000 cycles: 103840458 heartbeat IPC: 0.115712 cumulative IPC: 0.11573 (Simulation time: 1 hr 17 min 30 sec) 

Region of Interest Statistics
cpu0_DTLB TOTAL     ACCESS:    1335387  HIT:    1321275  MISS:      14112
cpu0_DTLB LOAD      ACCESS:    1286961  HIT:    1272853  MISS:      14108
cpu0_DTLB RFO       ACCESS:      48426  HIT:      48422  MISS:          4
cpu0_DTLB PREFETCH  ACCESS:          0  HIT:          0  MISS:          0
cpu0_DTLB WRITEBACK ACCESS:          0  HIT:          0  MISS:          0
cpu0_ITLB TOTAL     ACCESS:     619196  HIT:     619196  MISS:          0
cpu0_ITLB LOAD      ACCESS:     619196  HIT:     619196  MISS:          0
cpu0_ITLB RFO       ACCESS:          0  HIT:          0  MISS:          0
cpu0_ITLB PREFETCH  ACCESS:          0  HIT:          0  MISS:          0
cpu0_ITLB WRITEBACK ACCESS:          0  HIT:          0  MISS:          0
cpu0_STLB TOTAL     ACCESS:      14112  HIT:        460  MISS:      13652
cpu0_STLB LOAD      ACCESS:      14108  HIT:        460  MISS:      13648
cpu0_STLB RFO       ACCESS:          4  HIT:          0  MISS:          4
cpu0_STLB PREFETCH  ACCESS:          0  HIT:          0  MISS:          0
cpu0_STLB WRITEBACK ACCESS:          0  HIT:          0  MISS:          0
cpu0_L1D TOTAL     ACCESS:    1416352  HIT:     713285  MISS:     703067
cpu0_L1D LOAD      ACCESS:    1274484  HIT:     572928  MISS:     701556
cpu0_L1D RFO       ACCESS:     128222  HIT:     127956  MISS:        266
cpu0_L1D PREFETCH  ACCESS:          0  HIT:          0  MISS:          0
cpu0_L1D WRITEBACK ACCESS:          0  HIT:          0  MISS:          0
cpu0_L2C TOTAL     ACCESS:     704253  HIT:       2430  MISS:     701823
cpu0_L2C LOAD      ACCESS:     701556  HIT:        285  MISS:     701271
cpu0_L2C RFO       ACCESS:        266  HIT:          0  MISS:        266
cpu0_L2C PREFETCH  ACCESS:          0  HIT:          0  MISS:          0
cpu0_L2C WRITEBACK ACCESS:       1186  HIT:       1184  MISS:          2
LLC TOTAL     ACCESS:     703007  HIT:       1332  MISS:     701675
LLC LOAD      ACCESS:     701271  HIT:         18  MISS:     701253
LLC RFO       ACCESS:        266  HIT:          0  MISS:        266
LLC PREFETCH  ACCESS:          0  HIT:          0  MISS:          0
LLC WRITEBACK ACCESS:       1186  HIT:       1184  MISS:          2
Heartbeat CPU 0 instructions: 62000003 cycles: 121142455 heartbeat IPC: 0.115594 cumulative IPC: 0.115707 (Simulation time: 1 hr 25 min 35 sec) 

Region of Interest Statistics
cpu0_DTLB TOTAL     ACCESS:    1603625  HIT:    1587040  MISS:      16585
cpu0_DTLB LOAD      ACCESS:    1545468  HIT:    1528888  MISS:      16580
cpu0_DTLB RFO       ACCESS:      58157  HIT:      58152  MISS:          5
cpu0_DTLB PREFETCH  ACCESS:          0  HIT:          0  MISS:          0
cpu0_DTLB WRITEBACK ACCESS:          0  HIT:          0  MISS:          0
cpu0_ITLB TOTAL     ACCESS:     742726  HIT:     742726  MISS:          0
cpu0_ITLB LOAD      ACCESS:     742726  HIT:     742726  MISS:          0
cpu0_ITLB RFO       ACCESS:          0  HIT:          0  MISS:          0
cpu0_ITLB PREFETCH  ACCESS:          0  HIT:          0  MISS:          0
cpu0_ITLB WRITEBACK ACCESS:          0  HIT:          0  MISS:          0
cpu0_STLB TOTAL     ACCESS:      16585  HIT:        529  MISS:      16056
cpu0_STLB LOAD      ACCESS:      16580  HIT:        529  MISS:      16051
cpu0_STLB RFO       ACCESS:          5  HIT:          0  MISS:          5
cpu0_STLB PREFETCH  ACCESS:          0  HIT:          0  MISS:          0
cpu0_STLB WRITEBACK ACCESS:          0  HIT:          0  MISS:          0
cpu0_L1D TOTAL     ACCESS:    1700920  HIT:     857075  MISS:     843845
cpu0_L1D LOAD      ACCESS:    1530877  HIT:     688723  MISS:     842154
cpu0_L1D RFO       ACCESS:     153993  HIT:     153686  MISS:        307
cpu0_L1D PREFETCH  ACCESS:          0  HIT:          0  MISS:          0
cpu0_L1D WRITEBACK ACCESS:          0  HIT:          0  MISS:          0
cpu0_L2C TOTAL     ACCESS:     845214  HIT:       2737  MISS:     842477
cpu0_L2C LOAD      ACCESS:     842154  HIT:        297  MISS:     841857
cpu0_L2C RFO       ACCESS:        307  HIT:          0  MISS:        307
cpu0_L2C PREFETCH  ACCESS:          0  HIT:          0  MISS:          0
cpu0_L2C WRITEBACK ACCESS:       1369  HIT:       1367  MISS:          2
LLC TOTAL     ACCESS:     843848  HIT:       1538  MISS:     842310
LLC LOAD      ACCESS:     841857  HIT:         23  MISS:     841834
LLC RFO       ACCESS:        307  HIT:          0  MISS:        307
LLC PREFETCH  ACCESS:          0  HIT:          0  MISS:          0
LLC WRITEBACK ACCESS:       1373  HIT:       1371  MISS:          2
Heartbeat CPU 0 instructions: 64000000 cycles: 138426039 heartbeat IPC: 0.115717 cumulative IPC: 0.115709 (Simulation time: 1 hr 33 min 45 sec) 

Region of Interest Statistics
cpu0_DTLB TOTAL     ACCESS:    1871736  HIT:    1852655  MISS:      19081
cpu0_DTLB LOAD      ACCESS:    1803841  HIT:    1784766  MISS:      19075
cpu0_DTLB RFO       ACCESS:      67895  HIT:      67889  MISS:          6
cpu0_DTLB PREFETCH  ACCESS:          0  HIT:          0  MISS:          0
cpu0_DTLB WRITEBACK ACCESS:          0  HIT:          0  MISS:          0
cpu0_ITLB TOTAL     ACCESS:     866318  HIT:     866318  MISS:          0
cpu0_ITLB LOAD      ACCESS:     866318  HIT:     866318  MISS:          0
cpu0_ITLB RFO       ACCESS:          0  HIT:          0  MISS:          0
cpu0_ITLB PREFETCH  ACCESS:          0  HIT:          0  MISS:          0
cpu0_ITLB WRITEBACK ACCESS:          0  HIT:          0  MISS:          0
cpu0_STLB TOTAL     ACCESS:      19081  HIT:        584  MISS:      18497
cpu0_STLB LOAD      ACCESS:      19075  HIT:        584  MISS:      18491
cpu0_STLB RFO       ACCESS:          6  HIT:          0  MISS:          6
cpu0_STLB PREFETCH  ACCESS:          0  HIT:          0  MISS:          0
cpu0_STLB WRITEBACK ACCESS:          0  HIT:          0  MISS:          0
cpu0_L1D TOTAL     ACCESS:    1985373  HIT:    1000816  MISS:     984557
cpu0_L1D LOAD      ACCESS:    1787102  HIT:     804410  MISS:     982692
cpu0_L1D RFO       ACCESS:     179780  HIT:     179439  MISS:        341
cpu0_L1D PREFETCH  ACCESS:          0  HIT:          0  MISS:          0
cpu0_L1D WRITEBACK ACCESS:          0  HIT:          0  MISS:          0
cpu0_L2C TOTAL     ACCESS:     986106  HIT:       3049  MISS:     983057
cpu0_L2C LOAD      ACCESS:     982692  HIT:        315  MISS:     982377
cpu0_L2C RFO       ACCESS:        341  HIT:          0  MISS:        341
cpu0_L2C PREFETCH  ACCESS:          0  HIT:          0  MISS:          0
cpu0_L2C WRITEBACK ACCESS:       1549  HIT:       1547  MISS:          2
LLC TOTAL     ACCESS:     984608  HIT:       1731  MISS:     982877
LLC LOAD      ACCESS:     982377  HIT:         26  MISS:     982351
LLC RFO       ACCESS:        341  HIT:          0  MISS:        341
LLC PREFETCH  ACCESS:          0  HIT:          0  MISS:          0
LLC WRITEBACK ACCESS:       1553  HIT:       1551  MISS:          2
Heartbeat CPU 0 instructions: 66000000 cycles: 155746822 heartbeat IPC: 0.115468 cumulative IPC: 0.115678 (Simulation time: 1 hr 41 min 44 sec) 

Region of Interest Statistics
cpu0_DTLB TOTAL     ACCESS:    2139755  HIT:    2118099  MISS:      21656
cpu0_DTLB LOAD      ACCESS:    2062145  HIT:    2040496  MISS:      21649
cpu0_DTLB RFO       ACCESS:      77610  HIT:      77603  MISS:          7
cpu0_DTLB PREFETCH  ACCESS:          0  HIT:          0  MISS:          0
cpu0_DTLB WRITEBACK ACCESS:          0  HIT:          0  MISS:          0
cpu0_ITLB TOTAL     ACCESS:     989945  HIT:     989945  MISS:          0
cpu0_ITLB LOAD      ACCESS:     989945  HIT:     989945  MISS:          0
cpu0_ITLB RFO       ACCESS:          0  HIT:          0  MISS:          0
cpu0_ITLB PREFETCH  ACCESS:          0  HIT:          0  MISS:          0
cpu0_ITLB WRITEBACK ACCESS:          0  HIT:          0  MISS:          0
cpu0_STLB TOTAL     ACCESS:      21656  HIT:        657  MISS:      20999
cpu0_STLB LOAD      ACCESS:      21649  HIT:        657  MISS:      20992
cpu0_STLB RFO       ACCESS:          7  HIT:          0  MISS:          7
cpu0_STLB PREFETCH  ACCESS:          0  HIT:          0  MISS:          0
cpu0_STLB WRITEBACK ACCESS:          0  HIT:          0  MISS:          0
cpu0_L1D TOTAL     ACCESS:    2269785  HIT:    1144424  MISS:    1125361
cpu0_L1D LOAD      ACCESS:    2043229  HIT:     919975  MISS:    1123254
cpu0_L1D RFO       ACCESS:     205564  HIT:     205143  MISS:        421
cpu0_L1D PREFETCH  ACCESS:          0  HIT:          0  MISS:          0
cpu0_L1D WRITEBACK ACCESS:          0  HIT:          0  MISS:          0
cpu0_L2C TOTAL     ACCESS:    1127112  HIT:       3390  MISS:    1123722
cpu0_L2C LOAD      ACCESS:    1123254  HIT:        332  MISS:    1122922
cpu0_L2C RFO       ACCESS:        421  HIT:          0  MISS:        421
cpu0_L2C PREFETCH  ACCESS:          0  HIT:          0  MISS:          0
cpu0_L2C WRITEBACK ACCESS:       1751  HIT:       1748  MISS:          3
LLC TOTAL     ACCESS:    1125473  HIT:       1949  MISS:    1123524
LLC LOAD      ACCESS:    1122922  HIT:         29  MISS:    1122893
LLC RFO       ACCESS:        421  HIT:          0  MISS:        421
LLC PREFETCH  ACCESS:          0  HIT:          0  MISS:          0
LLC WRITEBACK ACCESS:       1754  HIT:       1751  MISS:          3
Heartbeat CPU 0 instructions: 68000001 cycles: 173102400 heartbeat IPC: 0.115237 cumulative IPC: 0.115629 (Simulation time: 1 hr 49 min 57 sec) 

Region of Interest Statistics
cpu0_DTLB TOTAL     ACCESS:    2407739  HIT:    2383463  MISS:      24276
cpu0_DTLB LOAD      ACCESS:    2320436  HIT:    2296169  MISS:      24267
cpu0_DTLB RFO       ACCESS:      87303  HIT:      87294  MISS:          9
cpu0_DTLB PREFETCH  ACCESS:          0  HIT:          0  MISS:          0
cpu0_DTLB WRITEBACK ACCESS:          0  HIT:          0  MISS:          0
cpu0_ITLB TOTAL     ACCESS:    1113621  HIT:    1113621  MISS:          0
cpu0_ITLB LOAD      ACCESS:    1113621  HIT:    1113621  MISS:          0
cpu0_ITLB RFO       ACCESS:          0  HIT:          0  MISS:          0
cpu0_ITLB PREFETCH  ACCESS:          0  HIT:          0  MISS:          0
cpu0_ITLB WRITEBACK ACCESS:          0  HIT:          0  MISS:          0
cpu0_STLB TOTAL     ACCESS:      24276  HIT:        698  MISS:      23578
cpu0_STLB LOAD      ACCESS:      24267  HIT:        698  MISS:      23569
cpu0_STLB RFO       ACCESS:          9  HIT:          0  MISS:          9
cpu0_STLB PREFETCH  ACCESS:          0  HIT:          0  MISS:          0
cpu0_STLB WRITEBACK ACCESS:          0  HIT:          0  MISS:          0
cpu0_L1D TOTAL     ACCESS:    2554354  HIT:    1288105  MISS:    1266249
cpu0_L1D LOAD      ACCESS:    2299486  HIT:    1035542  MISS:    1263944
cpu0_L1D RFO       ACCESS:     231298  HIT:     230844  MISS:        454
cpu0_L1D PREFETCH  ACCESS:          0  HIT:          0  MISS:          0
cpu0_L1D WRITEBACK ACCESS:          0  HIT:          0  MISS:          0
cpu0_L2C TOTAL     ACCESS:    1268238  HIT:       3792  MISS:    1264446
cpu0_L2C LOAD      ACCESS:    1263944  HIT:        356  MISS:    1263588
cpu0_L2C RFO       ACCESS:        454  HIT:          0  MISS:        454
cpu0_L2C PREFETCH  ACCESS:          0  HIT:          0  MISS:          0
cpu0_L2C WRITEBACK ACCESS:       1989  HIT:       1986  MISS:          3
LLC TOTAL     ACCESS:    1266434  HIT:       2201  MISS:    1264233
LLC LOAD      ACCESS:    1263588  HIT:         32  MISS:    1263556
LLC RFO       ACCESS:        454  HIT:          0  MISS:        454
LLC PREFETCH  ACCESS:          0  HIT:          0  MISS:          0
LLC WRITEBACK ACCESS:       1991  HIT:       1988  MISS:          3
Heartbeat CPU 0 instructions: 70000000 cycles: 190435251 heartbeat IPC: 0.115388 cumulative IPC: 0.115605 (Simulation time: 1 hr 58 min 4 sec) 

Region of Interest Statistics
cpu0_DTLB TOTAL     ACCESS:    2675803  HIT:    2648949  MISS:      26854
cpu0_DTLB LOAD      ACCESS:    2578781  HIT:    2551937  MISS:      26844
cpu0_DTLB RFO       ACCESS:      97022  HIT:      97012  MISS:         10
cpu0_DTLB PREFETCH  ACCESS:          0  HIT:          0  MISS:          0
cpu0_DTLB WRITEBACK ACCESS:          0  HIT:          0  MISS:          0
cpu0_ITLB TOTAL     ACCESS:    1237292  HIT:    1237292  MISS:          0
cpu0_ITLB LOAD      ACCESS:    1237292  HIT:    1237292  MISS:          0
cpu0_ITLB RFO       ACCESS:          0  HIT:          0  MISS:          0
cpu0_ITLB PREFETCH  ACCESS:          0  HIT:          0  MISS:          0
cpu0_ITLB WRITEBACK ACCESS:          0  HIT:          0  MISS:          0
cpu0_STLB TOTAL     ACCESS:      26854  HIT:        739  MISS:      26115
cpu0_STLB LOAD      ACCESS:      26844  HIT:        739  MISS:      26105
cpu0_STLB RFO       ACCESS:         10  HIT:          0  MISS:         10
cpu0_STLB PREFETCH  ACCESS:          0  HIT:          0  MISS:          0
cpu0_STLB WRITEBACK ACCESS:          0  HIT:          0  MISS:          0
cpu0_L1D TOTAL     ACCESS:    2838987  HIT:    1431851  MISS:    1407136
cpu0_L1D LOAD      ACCESS:    2555807  HIT:    1151206  MISS:    1404601
cpu0_L1D RFO       ACCESS:     257074  HIT:     256542  MISS:        532
cpu0_L1D PREFETCH  ACCESS:          0  HIT:          0  MISS:          0
cpu0_L1D WRITEBACK ACCESS:          0  HIT:          0  MISS:          0
cpu0_L2C TOTAL     ACCESS:    1409346  HIT:       4154  MISS:    1405192
cpu0_L2C LOAD      ACCESS:    1404601  HIT:        376  MISS:    1404225
cpu0_L2C RFO       ACCESS:        532  HIT:          0  MISS:        532
cpu0_L2C PREFETCH  ACCESS:          0  HIT:          0  MISS:          0
cpu0_L2C WRITEBACK ACCESS:       2210  HIT:       2207  MISS:          3
LLC TOTAL     ACCESS:    1407397  HIT:       2435  MISS:    1404962
LLC LOAD      ACCESS:    1404225  HIT:         36  MISS:    1404189
LLC RFO       ACCESS:        532  HIT:          0  MISS:        532
LLC PREFETCH  ACCESS:          0  HIT:          0  MISS:          0
LLC WRITEBACK ACCESS:       2208  HIT:       2205  MISS:          3
Heartbeat CPU 0 instructions: 72000000 cycles: 207739707 heartbeat IPC: 0.115577 cumulative IPC: 0.115602 (Simulation time: 2 hr 6 min 3 sec) 

Region of Interest Statistics
cpu0_DTLB TOTAL     ACCESS:    2944042  HIT:    2914699  MISS:      29343
cpu0_DTLB LOAD      ACCESS:    2837281  HIT:    2807948  MISS:      29333
cpu0_DTLB RFO       ACCESS:     106761  HIT:     106751  MISS:         10
cpu0_DTLB PREFETCH  ACCESS:          0  HIT:          0  MISS:          0
cpu0_DTLB WRITEBACK ACCESS:          0  HIT:          0  MISS:          0
cpu0_ITLB TOTAL     ACCESS:    1360826  HIT:    1360826  MISS:          0
cpu0_ITLB LOAD      ACCESS:    1360826  HIT:    1360826  MISS:          0
cpu0_ITLB RFO       ACCESS:          0  HIT:          0  MISS:          0
cpu0_ITLB PREFETCH  ACCESS:          0  HIT:          0  MISS:          0
cpu0_ITLB WRITEBACK ACCESS:          0  HIT:          0  MISS:          0
cpu0_STLB TOTAL     ACCESS:      29343  HIT:        802  MISS:      28541
cpu0_STLB LOAD      ACCESS:      29333  HIT:        802  MISS:      28531
cpu0_STLB RFO       ACCESS:         10  HIT:          0  MISS:         10
cpu0_STLB PREFETCH  ACCESS:          0  HIT:          0  MISS:          0
cpu0_STLB WRITEBACK ACCESS:          0  HIT:          0  MISS:          0
cpu0_L1D TOTAL     ACCESS:    3123608  HIT:    1575673  MISS:    1547935
cpu0_L1D LOAD      ACCESS:    2812231  HIT:    1267029  MISS:    1545202
cpu0_L1D RFO       ACCESS:     282845  HIT:     282257  MISS:        588
cpu0_L1D PREFETCH  ACCESS:          0  HIT:          0  MISS:          0
cpu0_L1D WRITEBACK ACCESS:          0  HIT:          0  MISS:          0
cpu0_L2C TOTAL     ACCESS:    1550343  HIT:       4478  MISS:    1545865
cpu0_L2C LOAD      ACCESS:    1545202  HIT:        383  MISS:    1544819
cpu0_L2C RFO       ACCESS:        588  HIT:          0  MISS:        588
cpu0_L2C PREFETCH  ACCESS:          0  HIT:          0  MISS:          0
cpu0_L2C WRITEBACK ACCESS:       2408  HIT:       2405  MISS:          3
LLC TOTAL     ACCESS:    1548265  HIT:       2648  MISS:    1545617
LLC LOAD      ACCESS:    1544819  HIT:         43  MISS:    1544776
LLC RFO       ACCESS:        588  HIT:          0  MISS:        588
LLC PREFETCH  ACCESS:          0  HIT:          0  MISS:          0
LLC WRITEBACK ACCESS:       2403  HIT:       2400  MISS:          3
Heartbeat CPU 0 instructions: 74000001 cycles: 225060186 heartbeat IPC: 0.11547 cumulative IPC: 0.115591 (Simulation time: 2 hr 14 min 7 sec) 

Region of Interest Statistics
cpu0_DTLB TOTAL     ACCESS:    3212413  HIT:    3180575  MISS:      31838
cpu0_DTLB LOAD      ACCESS:    3095886  HIT:    3064058  MISS:      31828
cpu0_DTLB RFO       ACCESS:     116527  HIT:     116517  MISS:         10
cpu0_DTLB PREFETCH  ACCESS:          0  HIT:          0  MISS:          0
cpu0_DTLB WRITEBACK ACCESS:          0  HIT:          0  MISS:          0
cpu0_ITLB TOTAL     ACCESS:    1484326  HIT:    1484326  MISS:          0
cpu0_ITLB LOAD      ACCESS:    1484326  HIT:    1484326  MISS:          0
cpu0_ITLB RFO       ACCESS:          0  HIT:          0  MISS:          0
cpu0_ITLB PREFETCH  ACCESS:          0  HIT:          0  MISS:          0
cpu0_ITLB WRITEBACK ACCESS:          0  HIT:          0  MISS:          0
cpu0_STLB TOTAL     ACCESS:      31838  HIT:        845  MISS:      30993
cpu0_STLB LOAD      ACCESS:      31828  HIT:        845  MISS:      30983
cpu0_STLB RFO       ACCESS:         10  HIT:          0  MISS:         10
cpu0_STLB PREFETCH  ACCESS:          0  HIT:          0  MISS:          0
cpu0_STLB WRITEBACK ACCESS:          0  HIT:          0  MISS:          0
cpu0_L1D TOTAL     ACCESS:    3408264  HIT:    1719461  MISS:    1688803
cpu0_L1D LOAD      ACCESS:    3068673  HIT:    1382807  MISS:    1685866
cpu0_L1D RFO       ACCESS:     308608  HIT:     307985  MISS:        623
cpu0_L1D PREFETCH  ACCESS:          0  HIT:          0  MISS:          0
cpu0_L1D WRITEBACK ACCESS:          0  HIT:          0  MISS:          0
cpu0_L2C TOTAL     ACCESS:    1691426  HIT:       4843  MISS:    1686583
cpu0_L2C LOAD      ACCESS:    1685866  HIT:        395  MISS:    1685471
cpu0_L2C RFO       ACCESS:        623  HIT:          0  MISS:        623
cpu0_L2C PREFETCH  ACCESS:          0  HIT:          0  MISS:          0
cpu0_L2C WRITEBACK ACCESS:       2623  HIT:       2620  MISS:          3
LLC TOTAL     ACCESS:    1689205  HIT:       2882  MISS:    1686323
LLC LOAD      ACCESS:    1685471  HIT:         49  MISS:    1685422
LLC RFO       ACCESS:        623  HIT:          0  MISS:        623
LLC PREFETCH  ACCESS:          0  HIT:          0  MISS:          0
LLC WRITEBACK ACCESS:       2625  HIT:       2622  MISS:          3
Heartbeat CPU 0 instructions: 76000002 cycles: 242343676 heartbeat IPC: 0.115717 cumulative IPC: 0.115601 (Simulation time: 2 hr 22 min 15 sec) 

Region of Interest Statistics
cpu0_DTLB TOTAL     ACCESS:    3479301  HIT:    3444581  MISS:      34720
cpu0_DTLB LOAD      ACCESS:    3353092  HIT:    3318383  MISS:      34709
cpu0_DTLB RFO       ACCESS:     126209  HIT:     126198  MISS:         11
cpu0_DTLB PREFETCH  ACCESS:          0  HIT:          0  MISS:          0
cpu0_DTLB WRITEBACK ACCESS:          0  HIT:          0  MISS:          0
cpu0_ITLB TOTAL     ACCESS:    1608285  HIT:    1608285  MISS:          0
cpu0_ITLB LOAD      ACCESS:    1608285  HIT:    1608285  MISS:          0
cpu0_ITLB RFO       ACCESS:          0  HIT:          0  MISS:          0
cpu0_ITLB PREFETCH  ACCESS:          0  HIT:          0  MISS:          0
cpu0_ITLB WRITEBACK ACCESS:          0  HIT:          0  MISS:          0
cpu0_STLB TOTAL     ACCESS:      34720  HIT:        993  MISS:      33727
cpu0_STLB LOAD      ACCESS:      34709  HIT:        993  MISS:      33716
cpu0_STLB RFO       ACCESS:         11  HIT:          0  MISS:         11
cpu0_STLB PREFETCH  ACCESS:          0  HIT:          0  MISS:          0
cpu0_STLB WRITEBACK ACCESS:          0  HIT:          0  MISS:          0
cpu0_L1D TOTAL     ACCESS:    3691437  HIT:    1862119  MISS:    1829318
cpu0_L1D LOAD      ACCESS:    3323467  HIT:    1497389  MISS:    1826078
cpu0_L1D RFO       ACCESS:     334254  HIT:     333561  MISS:        693
cpu0_L1D PREFETCH  ACCESS:          0  HIT:          0  MISS:          0
cpu0_L1D WRITEBACK ACCESS:          0  HIT:          0  MISS:          0
cpu0_L2C TOTAL     ACCESS:    1832179  HIT:       5323  MISS:    1826856
cpu0_L2C LOAD      ACCESS:    1826078  HIT:        447  MISS:    1825631
cpu0_L2C RFO       ACCESS:        693  HIT:          0  MISS:        693
cpu0_L2C PREFETCH  ACCESS:          0  HIT:          0  MISS:          0
cpu0_L2C WRITEBACK ACCESS:       2861  HIT:       2858  MISS:          3
LLC TOTAL     ACCESS:    1829714  HIT:       3142  MISS:    1826572
LLC LOAD      ACCESS:    1825631  HIT:         52  MISS:    1825579
LLC RFO       ACCESS:        693  HIT:          0  MISS:        693
LLC PREFETCH  ACCESS:          0  HIT:          0  MISS:          0
LLC WRITEBACK ACCESS:       2861  HIT:       2858  MISS:          3
Heartbeat CPU 0 instructions: 78000002 cycles: 259570506 heartbeat IPC: 0.116098 cumulative IPC: 0.115636 (Simulation time: 2 hr 30 min 15 sec) 

Region of Interest Statistics
cpu0_DTLB TOTAL     ACCESS:    3745337  HIT:    3707633  MISS:      37704
cpu0_DTLB LOAD      ACCESS:    3609489  HIT:    3571796  MISS:      37693
cpu0_DTLB RFO       ACCESS:     135848  HIT:     135837  MISS:         11
cpu0_DTLB PREFETCH  ACCESS:          0  HIT:          0  MISS:          0
cpu0_DTLB WRITEBACK ACCESS:          0  HIT:          0  MISS:          0
cpu0_ITLB TOTAL     ACCESS:    1732376  HIT:    1732376  MISS:          0
cpu0_ITLB LOAD      ACCESS:    1732376  HIT:    1732376  MISS:          0
cpu0_ITLB RFO       ACCESS:          0  HIT:          0  MISS:          0
cpu0_ITLB PREFETCH  ACCESS:          0  HIT:          0  MISS:          0
cpu0_ITLB WRITEBACK ACCESS:          0  HIT:          0  MISS:          0
cpu0_STLB TOTAL     ACCESS:      37704  HIT:       1090  MISS:      36614
cpu0_STLB LOAD      ACCESS:      37693  HIT:       1090  MISS:      36603
cpu0_STLB RFO       ACCESS:         11  HIT:          0  MISS:         11
cpu0_STLB PREFETCH  ACCESS:          0  HIT:          0  MISS:          0
cpu0_STLB WRITEBACK ACCESS:          0  HIT:          0  MISS:          0
cpu0_L1D TOTAL     ACCESS:    3973671  HIT:    2004221  MISS:    1969450
cpu0_L1D LOAD      ACCESS:    3577281  HIT:    1611390  MISS:    1965891
cpu0_L1D RFO       ACCESS:     359791  HIT:     359029  MISS:        762
cpu0_L1D PREFETCH  ACCESS:          0  HIT:          0  MISS:          0
cpu0_L1D WRITEBACK ACCESS:          0  HIT:          0  MISS:          0
cpu0_L2C TOTAL     ACCESS:    1972552  HIT:       5823  MISS:    1966729
cpu0_L2C LOAD      ACCESS:    1965891  HIT:        511  MISS:    1965380
cpu0_L2C RFO       ACCESS:        762  HIT:          0  MISS:        762
cpu0_L2C PREFETCH  ACCESS:          0  HIT:          0  MISS:          0
cpu0_L2C WRITEBACK ACCESS:       3102  HIT:       3099  MISS:          3
LLC TOTAL     ACCESS:    1969827  HIT:       3403  MISS:    1966424
LLC LOAD      ACCESS:    1965380  HIT:         53  MISS:    1965327
LLC RFO       ACCESS:        762  HIT:          0  MISS:        762
LLC PREFETCH  ACCESS:          0  HIT:          0  MISS:          0
LLC WRITEBACK ACCESS:       3101  HIT:       3098  MISS:          3
Heartbeat CPU 0 instructions: 80000001 cycles: 276149609 heartbeat IPC: 0.120634 cumulative IPC: 0.115957 (Simulation time: 2 hr 38 min 4 sec) 

Region of Interest Statistics
cpu0_DTLB TOTAL     ACCESS:    4020310  HIT:    3979518  MISS:      40792
cpu0_DTLB LOAD      ACCESS:    3865746  HIT:    3824968  MISS:      40778
cpu0_DTLB RFO       ACCESS:     154564  HIT:     154550  MISS:         14
cpu0_DTLB PREFETCH  ACCESS:          0  HIT:          0  MISS:          0
cpu0_DTLB WRITEBACK ACCESS:          0  HIT:          0  MISS:          0
cpu0_ITLB TOTAL     ACCESS:    1853172  HIT:    1853172  MISS:          0
cpu0_ITLB LOAD      ACCESS:    1853172  HIT:    1853172  MISS:          0
cpu0_ITLB RFO       ACCESS:          0  HIT:          0  MISS:          0
cpu0_ITLB PREFETCH  ACCESS:          0  HIT:          0  MISS:          0
cpu0_ITLB WRITEBACK ACCESS:          0  HIT:          0  MISS:          0
cpu0_L1I TOTAL     ACCESS:       8081  HIT:       8081  MISS:          0
cpu0_L1I LOAD      ACCESS:       8081  HIT:       8081  MISS:          0
cpu0_L1I RFO       ACCESS:          0  HIT:          0  MISS:          0
cpu0_L1I PREFETCH  ACCESS:          0  HIT:          0  MISS:          0
cpu0_L1I WRITEBACK ACCESS:          0  HIT:          0  MISS:          0
cpu0_STLB TOTAL     ACCESS:      40792  HIT:       1369  MISS:      39423
cpu0_STLB LOAD      ACCESS:      40778  HIT:       1368  MISS:      39410
cpu0_STLB RFO       ACCESS:         14  HIT:          1  MISS:         13
cpu0_STLB PREFETCH  ACCESS:          0  HIT:          0  MISS:          0
cpu0_STLB WRITEBACK ACCESS:          0  HIT:          0  MISS:          0
cpu0_L1D TOTAL     ACCESS:    4269911  HIT:    2165551  MISS:    2104360
cpu0_L1D LOAD      ACCESS:    3830768  HIT:    1730328  MISS:    2100440
cpu0_L1D RFO       ACCESS:     399739  HIT:     398911  MISS:        828
cpu0_L1D PREFETCH  ACCESS:          0  HIT:          0  MISS:          0
cpu0_L1D WRITEBACK ACCESS:          0  HIT:          0  MISS:          0
cpu0_L2C TOTAL     ACCESS:    2107713  HIT:       6809  MISS:    2100904
cpu0_L2C LOAD      ACCESS:    2100440  HIT:       1038  MISS:    2099402
cpu0_L2C RFO       ACCESS:        828  HIT:          0  MISS:        828
cpu0_L2C PREFETCH  ACCESS:          0  HIT:          0  MISS:          0
cpu0_L2C WRITEBACK ACCESS:       3353  HIT:       3345  MISS:          8
LLC TOTAL     ACCESS:    2104242  HIT:       3667  MISS:    2100575
LLC LOAD      ACCESS:    2099402  HIT:         54  MISS:    2099348
LLC RFO       ACCESS:        828  HIT:          0  MISS:        828
LLC PREFETCH  ACCESS:          0  HIT:          0  MISS:          0
LLC WRITEBACK ACCESS:       3346  HIT:       3338  MISS:          8
Heartbeat CPU 0 instructions: 82000000 cycles: 293394231 heartbeat IPC: 0.115978 cumulative IPC: 0.115958 (Simulation time: 2 hr 46 min 10 sec) 

Region of Interest Statistics
cpu0_DTLB TOTAL     ACCESS:    4286952  HIT:    4243261  MISS:      43691
cpu0_DTLB LOAD      ACCESS:    4122722  HIT:    4079048  MISS:      43674
cpu0_DTLB RFO       ACCESS:     164230  HIT:     164213  MISS:         17
cpu0_DTLB PREFETCH  ACCESS:          0  HIT:          0  MISS:          0
cpu0_DTLB WRITEBACK ACCESS:          0  HIT:          0  MISS:          0
cpu0_ITLB TOTAL     ACCESS:    1977097  HIT:    1977097  MISS:          0
cpu0_ITLB LOAD      ACCESS:    1977097  HIT:    1977097  MISS:          0
cpu0_ITLB RFO       ACCESS:          0  HIT:          0  MISS:          0
cpu0_ITLB PREFETCH  ACCESS:          0  HIT:          0  MISS:          0
cpu0_ITLB WRITEBACK ACCESS:          0  HIT:          0  MISS:          0
cpu0_L1I TOTAL     ACCESS:       8081  HIT:       8081  MISS:          0
cpu0_L1I LOAD      ACCESS:       8081  HIT:       8081  MISS:          0
cpu0_L1I RFO       ACCESS:          0  HIT:          0  MISS:          0
cpu0_L1I PREFETCH  ACCESS:          0  HIT:          0  MISS:          0
cpu0_L1I WRITEBACK ACCESS:          0  HIT:          0  MISS:          0
cpu0_STLB TOTAL     ACCESS:      43691  HIT:       1498  MISS:      42193
cpu0_STLB LOAD      ACCESS:      43674  HIT:       1497  MISS:      42177
cpu0_STLB RFO       ACCESS:         17  HIT:          1  MISS:         16
cpu0_STLB PREFETCH  ACCESS:          0  HIT:          0  MISS:          0
cpu0_STLB WRITEBACK ACCESS:          0  HIT:          0  MISS:          0
cpu0_L1D TOTAL     ACCESS:    4552604  HIT:    2307795  MISS:    2244809
cpu0_L1D LOAD      ACCESS:    4085098  HIT:    1844564  MISS:    2240534
cpu0_L1D RFO       ACCESS:     425333  HIT:     424441  MISS:        892
cpu0_L1D PREFETCH  ACCESS:          0  HIT:          0  MISS:          0
cpu0_L1D WRITEBACK ACCESS:          0  HIT:          0  MISS:          0
cpu0_L2C TOTAL     ACCESS:    2248402  HIT:       7348  MISS:    2241054
cpu0_L2C LOAD      ACCESS:    2240534  HIT:       1114  MISS:    2239420
cpu0_L2C RFO       ACCESS:        892  HIT:          0  MISS:        892
cpu0_L2C PREFETCH  ACCESS:          0  HIT:          0  MISS:          0
cpu0_L2C WRITEBACK ACCESS:       3593  HIT:       3584  MISS:          9
LLC TOTAL     ACCESS:    2244636  HIT:       3941  MISS:    2240695
LLC LOAD      ACCESS:    2239420  HIT:         56  MISS:    2239364
LLC RFO       ACCESS:        892  HIT:          0  MISS:        892
LLC PREFETCH  ACCESS:          0  HIT:          0  MISS:          0
LLC WRITEBACK ACCESS:       3591  HIT:       3582  MISS:          9
Heartbeat CPU 0 instructions: 84000001 cycles: 310672014 heartbeat IPC: 0.115756 cumulative IPC: 0.115946 (Simulation time: 2 hr 54 min 8 sec) 

Region of Interest Statistics
cpu0_DTLB TOTAL     ACCESS:    4554309  HIT:    4507856  MISS:      46453
cpu0_DTLB LOAD      ACCESS:    4380345  HIT:    4333909  MISS:      46436
cpu0_DTLB RFO       ACCESS:     173964  HIT:     173947  MISS:         17
cpu0_DTLB PREFETCH  ACCESS:          0  HIT:          0  MISS:          0
cpu0_DTLB WRITEBACK ACCESS:          0  HIT:          0  MISS:          0
cpu0_ITLB TOTAL     ACCESS:    2100990  HIT:    2100990  MISS:          0
cpu0_ITLB LOAD      ACCESS:    2100990  HIT:    2100990  MISS:          0
cpu0_ITLB RFO       ACCESS:          0  HIT:          0  MISS:          0
cpu0_ITLB PREFETCH  ACCESS:          0  HIT:          0  MISS:          0
cpu0_ITLB WRITEBACK ACCESS:          0  HIT:          0  MISS:          0
cpu0_L1I TOTAL     ACCESS:       8081  HIT:       8081  MISS:          0
cpu0_L1I LOAD      ACCESS:       8081  HIT:       8081  MISS:          0
cpu0_L1I RFO       ACCESS:          0  HIT:          0  MISS:          0
cpu0_L1I PREFETCH  ACCESS:          0  HIT:          0  MISS:          0
cpu0_L1I WRITEBACK ACCESS:          0  HIT:          0  MISS:          0
cpu0_STLB TOTAL     ACCESS:      46453  HIT:       1609  MISS:      44844
cpu0_STLB LOAD      ACCESS:      46436  HIT:       1608  MISS:      44828
cpu0_STLB RFO       ACCESS:         17  HIT:          1  MISS:         16
cpu0_STLB PREFETCH  ACCESS:          0  HIT:          0  MISS:          0
cpu0_STLB WRITEBACK ACCESS:          0  HIT:          0  MISS:          0
cpu0_L1D TOTAL     ACCESS:    4836198  HIT:    2450818  MISS:    2385380
cpu0_L1D LOAD      ACCESS:    4340345  HIT:    1959526  MISS:    2380819
cpu0_L1D RFO       ACCESS:     451029  HIT:     450087  MISS:        942
cpu0_L1D PREFETCH  ACCESS:          0  HIT:          0  MISS:          0
cpu0_L1D WRITEBACK ACCESS:          0  HIT:          0  MISS:          0
cpu0_L2C TOTAL     ACCESS:    2389180  HIT:       7793  MISS:    2381387
cpu0_L2C LOAD      ACCESS:    2380819  HIT:       1164  MISS:    2379655
cpu0_L2C RFO       ACCESS:        942  HIT:          0  MISS:        942
cpu0_L2C PREFETCH  ACCESS:          0  HIT:          0  MISS:          0
cpu0_L2C WRITEBACK ACCESS:       3800  HIT:       3791  MISS:          9
LLC TOTAL     ACCESS:    2385178  HIT:       4172  MISS:    2381006
LLC LOAD      ACCESS:    2379655  HIT:         60  MISS:    2379595
LLC RFO       ACCESS:        942  HIT:          0  MISS:        942
LLC PREFETCH  ACCESS:          0  HIT:          0  MISS:          0
LLC WRITEBACK ACCESS:       3800  HIT:       3791  MISS:          9
Heartbeat CPU 0 instructions: 86000003 cycles: 327933098 heartbeat IPC: 0.115868 cumulative IPC: 0.115942 (Simulation time: 3 hr 2 min 6 sec) 

Region of Interest Statistics
cpu0_DTLB TOTAL     ACCESS:    4821712  HIT:    4772477  MISS:      49235
cpu0_DTLB LOAD      ACCESS:    4638051  HIT:    4588833  MISS:      49218
cpu0_DTLB RFO       ACCESS:     183661  HIT:     183644  MISS:         17
cpu0_DTLB PREFETCH  ACCESS:          0  HIT:          0  MISS:          0
cpu0_DTLB WRITEBACK ACCESS:          0  HIT:          0  MISS:          0
cpu0_ITLB TOTAL     ACCESS:    2224733  HIT:    2224733  MISS:          0
cpu0_ITLB LOAD      ACCESS:    2224733  HIT:    2224733  MISS:          0
cpu0_ITLB RFO       ACCESS:          0  HIT:          0  MISS:          0
cpu0_ITLB PREFETCH  ACCESS:          0  HIT:          0  MISS:          0
cpu0_ITLB WRITEBACK ACCESS:          0  HIT:          0  MISS:          0
cpu0_L1I TOTAL     ACCESS:       8081  HIT:       8081  MISS:          0
cpu0_L1I LOAD      ACCESS:       8081  HIT:       8081  MISS:          0
cpu0_L1I RFO       ACCESS:          0  HIT:          0  MISS:          0
cpu0_L1I PREFETCH  ACCESS:          0  HIT:          0  MISS:          0
cpu0_L1I WRITEBACK ACCESS:          0  HIT:          0  MISS:          0
cpu0_STLB TOTAL     ACCESS:      49235  HIT:       1767  MISS:      47468
cpu0_STLB LOAD      ACCESS:      49218  HIT:       1766  MISS:      47452
cpu0_STLB RFO       ACCESS:         17  HIT:          1  MISS:         16
cpu0_STLB PREFETCH  ACCESS:          0  HIT:          0  MISS:          0
cpu0_STLB WRITEBACK ACCESS:          0  HIT:          0  MISS:          0
cpu0_L1D TOTAL     ACCESS:    5119672  HIT:    2593588  MISS:    2526084
cpu0_L1D LOAD      ACCESS:    4595526  HIT:    2074283  MISS:    2521243
cpu0_L1D RFO       ACCESS:     476699  HIT:     475698  MISS:       1001
cpu0_L1D PREFETCH  ACCESS:          0  HIT:          0  MISS:          0
cpu0_L1D WRITEBACK ACCESS:          0  HIT:          0  MISS:          0
cpu0_L2C TOTAL     ACCESS:    2530120  HIT:       8268  MISS:    2521852
cpu0_L2C LOAD      ACCESS:    2521243  HIT:       1228  MISS:    2520015
cpu0_L2C RFO       ACCESS:       1001  HIT:          0  MISS:       1001
cpu0_L2C PREFETCH  ACCESS:          0  HIT:          0  MISS:          0
cpu0_L2C WRITEBACK ACCESS:       4036  HIT:       4027  MISS:          9
LLC TOTAL     ACCESS:    2525873  HIT:       4428  MISS:    2521445
LLC LOAD      ACCESS:    2520015  HIT:         64  MISS:    2519951
LLC RFO       ACCESS:       1001  HIT:          0  MISS:       1001
LLC PREFETCH  ACCESS:          0  HIT:          0  MISS:          0
LLC WRITEBACK ACCESS:       4030  HIT:       4021  MISS:          9
Heartbeat CPU 0 instructions: 88000000 cycles: 345176777 heartbeat IPC: 0.115984 cumulative IPC: 0.115944 (Simulation time: 3 hr 10 min 8 sec) 

Region of Interest Statistics
cpu0_DTLB TOTAL     ACCESS:    5088524  HIT:    5036427  MISS:      52097
cpu0_DTLB LOAD      ACCESS:    4895190  HIT:    4843110  MISS:      52080
cpu0_DTLB RFO       ACCESS:     193334  HIT:     193317  MISS:         17
cpu0_DTLB PREFETCH  ACCESS:          0  HIT:          0  MISS:          0
cpu0_DTLB WRITEBACK ACCESS:          0  HIT:          0  MISS:          0
cpu0_ITLB TOTAL     ACCESS:    2348597  HIT:    2348597  MISS:          0
cpu0_ITLB LOAD      ACCESS:    2348597  HIT:    2348597  MISS:          0
cpu0_ITLB RFO       ACCESS:          0  HIT:          0  MISS:          0
cpu0_ITLB PREFETCH  ACCESS:          0  HIT:          0  MISS:          0
cpu0_ITLB WRITEBACK ACCESS:          0  HIT:          0  MISS:          0
cpu0_L1I TOTAL     ACCESS:       8081  HIT:       8081  MISS:          0
cpu0_L1I LOAD      ACCESS:       8081  HIT:       8081  MISS:          0
cpu0_L1I RFO       ACCESS:          0  HIT:          0  MISS:          0
cpu0_L1I PREFETCH  ACCESS:          0  HIT:          0  MISS:          0
cpu0_L1I WRITEBACK ACCESS:          0  HIT:          0  MISS:          0
cpu0_STLB TOTAL     ACCESS:      52097  HIT:       1878  MISS:      50219
cpu0_STLB LOAD      ACCESS:      52080  HIT:       1877  MISS:      50203
cpu0_STLB RFO       ACCESS:         17  HIT:          1  MISS:         16
cpu0_STLB PREFETCH  ACCESS:          0  HIT:          0  MISS:          0
cpu0_STLB WRITEBACK ACCESS:          0  HIT:          0  MISS:          0
cpu0_L1D TOTAL     ACCESS:    5402543  HIT:    2736029  MISS:    2666514
cpu0_L1D LOAD      ACCESS:    4850031  HIT:    2188643  MISS:    2661388
cpu0_L1D RFO       ACCESS:     502316  HIT:     501281  MISS:       1035
cpu0_L1D PREFETCH  ACCESS:          0  HIT:          0  MISS:          0
cpu0_L1D WRITEBACK ACCESS:          0  HIT:          0  MISS:          0
cpu0_L2C TOTAL     ACCESS:    2670788  HIT:       8769  MISS:    2662019
cpu0_L2C LOAD      ACCESS:    2661388  HIT:       1304  MISS:    2660084
cpu0_L2C RFO       ACCESS:       1035  HIT:          0  MISS:       1035
cpu0_L2C PREFETCH  ACCESS:          0  HIT:          0  MISS:          0
cpu0_L2C WRITEBACK ACCESS:       4274  HIT:       4264  MISS:         10
LLC TOTAL     ACCESS:    2666285  HIT:       4704  MISS:    2661581
LLC LOAD      ACCESS:    2660084  HIT:         67  MISS:    2660017
LLC RFO       ACCESS:       1035  HIT:          0  MISS:       1035
LLC PREFETCH  ACCESS:          0  HIT:          0  MISS:          0
LLC WRITEBACK ACCESS:       4276  HIT:       4266  MISS:         10
Heartbeat CPU 0 instructions: 90000002 cycles: 362406098 heartbeat IPC: 0.116081 cumulative IPC: 0.115951 (Simulation time: 3 hr 18 min 17 sec) 

Region of Interest Statistics
cpu0_DTLB TOTAL     ACCESS:    5355604  HIT:    5300734  MISS:      54870
cpu0_DTLB LOAD      ACCESS:    5152595  HIT:    5097743  MISS:      54852
cpu0_DTLB RFO       ACCESS:     203009  HIT:     202991  MISS:         18
cpu0_DTLB PREFETCH  ACCESS:          0  HIT:          0  MISS:          0
cpu0_DTLB WRITEBACK ACCESS:          0  HIT:          0  MISS:          0
cpu0_ITLB TOTAL     ACCESS:    2472443  HIT:    2472443  MISS:          0
cpu0_ITLB LOAD      ACCESS:    2472443  HIT:    2472443  MISS:          0
cpu0_ITLB RFO       ACCESS:          0  HIT:          0  MISS:          0
cpu0_ITLB PREFETCH  ACCESS:          0  HIT:          0  MISS:          0
cpu0_ITLB WRITEBACK ACCESS:          0  HIT:          0  MISS:          0
cpu0_L1I TOTAL     ACCESS:       8081  HIT:       8081  MISS:          0
cpu0_L1I LOAD      ACCESS:       8081  HIT:       8081  MISS:          0
cpu0_L1I RFO       ACCESS:          0  HIT:          0  MISS:          0
cpu0_L1I PREFETCH  ACCESS:          0  HIT:          0  MISS:          0
cpu0_L1I WRITEBACK ACCESS:          0  HIT:          0  MISS:          0
cpu0_STLB TOTAL     ACCESS:      54870  HIT:       1988  MISS:      52882
cpu0_STLB LOAD      ACCESS:      54852  HIT:       1987  MISS:      52865
cpu0_STLB RFO       ACCESS:         18  HIT:          1  MISS:         17
cpu0_STLB PREFETCH  ACCESS:          0  HIT:          0  MISS:          0
cpu0_STLB WRITEBACK ACCESS:          0  HIT:          0  MISS:          0
cpu0_L1D TOTAL     ACCESS:    5685571  HIT:    2878513  MISS:    2807058
cpu0_L1D LOAD      ACCESS:    5104783  HIT:    2303152  MISS:    2801631
cpu0_L1D RFO       ACCESS:     527930  HIT:     526829  MISS:       1101
cpu0_L1D PREFETCH  ACCESS:          0  HIT:          0  MISS:          0
cpu0_L1D WRITEBACK ACCESS:          0  HIT:          0  MISS:          0
cpu0_L2C TOTAL     ACCESS:    2811567  HIT:       9253  MISS:    2802314
cpu0_L2C LOAD      ACCESS:    2801631  HIT:       1368  MISS:    2800263
cpu0_L2C RFO       ACCESS:       1101  HIT:          0  MISS:       1101
cpu0_L2C PREFETCH  ACCESS:          0  HIT:          0  MISS:          0
cpu0_L2C WRITEBACK ACCESS:       4509  HIT:       4498  MISS:         11
LLC TOTAL     ACCESS:    2806813  HIT:       4959  MISS:    2801854
LLC LOAD      ACCESS:    2800263  HIT:         70  MISS:    2800193
LLC RFO       ACCESS:       1101  HIT:          0  MISS:       1101
LLC PREFETCH  ACCESS:          0  HIT:          0  MISS:          0
LLC WRITEBACK ACCESS:       4510  HIT:       4499  MISS:         11
Heartbeat CPU 0 instructions: 92000003 cycles: 379706423 heartbeat IPC: 0.115605 cumulative IPC: 0.115934 (Simulation time: 3 hr 26 min 27 sec) 

Region of Interest Statistics
cpu0_DTLB TOTAL     ACCESS:    5622802  HIT:    5565052  MISS:      57750
cpu0_DTLB LOAD      ACCESS:    5410098  HIT:    5352367  MISS:      57731
cpu0_DTLB RFO       ACCESS:     212704  HIT:     212685  MISS:         19
cpu0_DTLB PREFETCH  ACCESS:          0  HIT:          0  MISS:          0
cpu0_DTLB WRITEBACK ACCESS:          0  HIT:          0  MISS:          0
cpu0_ITLB TOTAL     ACCESS:    2596335  HIT:    2596335  MISS:          0
cpu0_ITLB LOAD      ACCESS:    2596335  HIT:    2596335  MISS:          0
cpu0_ITLB RFO       ACCESS:          0  HIT:          0  MISS:          0
cpu0_ITLB PREFETCH  ACCESS:          0  HIT:          0  MISS:          0
cpu0_ITLB WRITEBACK ACCESS:          0  HIT:          0  MISS:          0
cpu0_L1I TOTAL     ACCESS:       8081  HIT:       8081  MISS:          0
cpu0_L1I LOAD      ACCESS:       8081  HIT:       8081  MISS:          0
cpu0_L1I RFO       ACCESS:          0  HIT:          0  MISS:          0
cpu0_L1I PREFETCH  ACCESS:          0  HIT:          0  MISS:          0
cpu0_L1I WRITEBACK ACCESS:          0  HIT:          0  MISS:          0
cpu0_STLB TOTAL     ACCESS:      57750  HIT:       2098  MISS:      55652
cpu0_STLB LOAD      ACCESS:      57731  HIT:       2097  MISS:      55634
cpu0_STLB RFO       ACCESS:         19  HIT:          1  MISS:         18
cpu0_STLB PREFETCH  ACCESS:          0  HIT:          0  MISS:          0
cpu0_STLB WRITEBACK ACCESS:          0  HIT:          0  MISS:          0
cpu0_L1D TOTAL     ACCESS:    5968913  HIT:    3021108  MISS:    2947805
cpu0_L1D LOAD      ACCESS:    5359669  HIT:    2417623  MISS:    2942046
cpu0_L1D RFO       ACCESS:     553616  HIT:     552464  MISS:       1152
cpu0_L1D PREFETCH  ACCESS:          0  HIT:          0  MISS:          0
cpu0_L1D WRITEBACK ACCESS:          0  HIT:          0  MISS:          0
cpu0_L2C TOTAL     ACCESS:    2952556  HIT:       9758  MISS:    2942798
cpu0_L2C LOAD      ACCESS:    2942046  HIT:       1416  MISS:    2940630
cpu0_L2C RFO       ACCESS:       1152  HIT:          0  MISS:       1152
cpu0_L2C PREFETCH  ACCESS:          0  HIT:          0  MISS:          0
cpu0_L2C WRITEBACK ACCESS:       4751  HIT:       4740  MISS:         11
LLC TOTAL     ACCESS:    2947540  HIT:       5230  MISS:    2942310
LLC LOAD      ACCESS:    2940630  HIT:         74  MISS:    2940556
LLC RFO       ACCESS:       1152  HIT:          0  MISS:       1152
LLC PREFETCH  ACCESS:          0  HIT:          0  MISS:          0
LLC WRITEBACK ACCESS:       4753  HIT:       4742  MISS:         11
Heartbeat CPU 0 instructions: 94000002 cycles: 397009302 heartbeat IPC: 0.115588 cumulative IPC: 0.115919 (Simulation time: 3 hr 34 min 37 sec) 

Region of Interest Statistics
cpu0_DTLB TOTAL     ACCESS:    5890024  HIT:    5829519  MISS:      60505
cpu0_DTLB LOAD      ACCESS:    5667618  HIT:    5607132  MISS:      60486
cpu0_DTLB RFO       ACCESS:     222406  HIT:     222387  MISS:         19
cpu0_DTLB PREFETCH  ACCESS:          0  HIT:          0  MISS:          0
cpu0_DTLB WRITEBACK ACCESS:          0  HIT:          0  MISS:          0
cpu0_ITLB TOTAL     ACCESS:    2720132  HIT:    2720132  MISS:          0
cpu0_ITLB LOAD      ACCESS:    2720132  HIT:    2720132  MISS:          0
cpu0_ITLB RFO       ACCESS:          0  HIT:          0  MISS:          0
cpu0_ITLB PREFETCH  ACCESS:          0  HIT:          0  MISS:          0
cpu0_ITLB WRITEBACK ACCESS:          0  HIT:          0  MISS:          0
cpu0_L1I TOTAL     ACCESS:       8081  HIT:       8081  MISS:          0
cpu0_L1I LOAD      ACCESS:       8081  HIT:       8081  MISS:          0
cpu0_L1I RFO       ACCESS:          0  HIT:          0  MISS:          0
cpu0_L1I PREFETCH  ACCESS:          0  HIT:          0  MISS:          0
cpu0_L1I WRITEBACK ACCESS:          0  HIT:          0  MISS:          0
cpu0_STLB TOTAL     ACCESS:      60505  HIT:       2171  MISS:      58334
cpu0_STLB LOAD      ACCESS:      60486  HIT:       2170  MISS:      58316
cpu0_STLB RFO       ACCESS:         19  HIT:          1  MISS:         18
cpu0_STLB PREFETCH  ACCESS:          0  HIT:          0  MISS:          0
cpu0_STLB WRITEBACK ACCESS:          0  HIT:          0  MISS:          0
cpu0_L1D TOTAL     ACCESS:    6252415  HIT:    3163977  MISS:    3088438
cpu0_L1D LOAD      ACCESS:    5614822  HIT:    2532427  MISS:    3082395
cpu0_L1D RFO       ACCESS:     579286  HIT:     578093  MISS:       1193
cpu0_L1D PREFETCH  ACCESS:          0  HIT:          0  MISS:          0
cpu0_L1D WRITEBACK ACCESS:          0  HIT:          0  MISS:          0
cpu0_L2C TOTAL     ACCESS:    3093426  HIT:      10236  MISS:    3083190
cpu0_L2C LOAD      ACCESS:    3082395  HIT:       1466  MISS:    3080929
cpu0_L2C RFO       ACCESS:       1193  HIT:          0  MISS:       1193
cpu0_L2C PREFETCH  ACCESS:          0  HIT:          0  MISS:          0
cpu0_L2C WRITEBACK ACCESS:       4988  HIT:       4977  MISS:         11
LLC TOTAL     ACCESS:    3088166  HIT:       5497  MISS:    3082669
LLC LOAD      ACCESS:    3080929  HIT:         76  MISS:    3080853
LLC RFO       ACCESS:       1193  HIT:          0  MISS:       1193
LLC PREFETCH  ACCESS:          0  HIT:          0  MISS:          0
LLC WRITEBACK ACCESS:       4987  HIT:       4976  MISS:         11
Heartbeat CPU 0 instructions: 96000000 cycles: 414305719 heartbeat IPC: 0.115631 cumulative IPC: 0.115906 (Simulation time: 3 hr 42 min 47 sec) 

Region of Interest Statistics
cpu0_DTLB TOTAL     ACCESS:    6156814  HIT:    6093432  MISS:      63382
cpu0_DTLB LOAD      ACCESS:    5924749  HIT:    5861388  MISS:      63361
cpu0_DTLB RFO       ACCESS:     232065  HIT:     232044  MISS:         21
cpu0_DTLB PREFETCH  ACCESS:          0  HIT:          0  MISS:          0
cpu0_DTLB WRITEBACK ACCESS:          0  HIT:          0  MISS:          0
cpu0_ITLB TOTAL     ACCESS:    2843947  HIT:    2843947  MISS:          0
cpu0_ITLB LOAD      ACCESS:    2843947  HIT:    2843947  MISS:          0
cpu0_ITLB RFO       ACCESS:          0  HIT:          0  MISS:          0
cpu0_ITLB PREFETCH  ACCESS:          0  HIT:          0  MISS:          0
cpu0_ITLB WRITEBACK ACCESS:          0  HIT:          0  MISS:          0
cpu0_L1I TOTAL     ACCESS:       8081  HIT:       8081  MISS:          0
cpu0_L1I LOAD      ACCESS:       8081  HIT:       8081  MISS:          0
cpu0_L1I RFO       ACCESS:          0  HIT:          0  MISS:          0
cpu0_L1I PREFETCH  ACCESS:          0  HIT:          0  MISS:          0
cpu0_L1I WRITEBACK ACCESS:          0  HIT:          0  MISS:          0
cpu0_STLB TOTAL     ACCESS:      63382  HIT:       2251  MISS:      61131
cpu0_STLB LOAD      ACCESS:      63361  HIT:       2250  MISS:      61111
cpu0_STLB RFO       ACCESS:         21  HIT:          1  MISS:         20
cpu0_STLB PREFETCH  ACCESS:          0  HIT:          0  MISS:          0
cpu0_STLB WRITEBACK ACCESS:          0  HIT:          0  MISS:          0
cpu0_L1D TOTAL     ACCESS:    6535536  HIT:    3306535  MISS:    3229001
cpu0_L1D LOAD      ACCESS:    5869550  HIT:    2646884  MISS:    3222666
cpu0_L1D RFO       ACCESS:     604882  HIT:     603627  MISS:       1255
cpu0_L1D PREFETCH  ACCESS:          0  HIT:          0  MISS:          0
cpu0_L1D WRITEBACK ACCESS:          0  HIT:          0  MISS:          0
cpu0_L2C TOTAL     ACCESS:    3234229  HIT:      10721  MISS:    3223508
cpu0_L2C LOAD      ACCESS:    3222666  HIT:       1532  MISS:    3221134
cpu0_L2C RFO       ACCESS:       1255  HIT:          0  MISS:       1255
cpu0_L2C PREFETCH  ACCESS:          0  HIT:          0  MISS:          0
cpu0_L2C WRITEBACK ACCESS:       5228  HIT:       5217  MISS:         11
LLC TOTAL     ACCESS:    3228718  HIT:       5767  MISS:    3222951
LLC LOAD      ACCESS:    3221134  HIT:         78  MISS:    3221056
LLC RFO       ACCESS:       1255  HIT:          0  MISS:       1255
LLC PREFETCH  ACCESS:          0  HIT:          0  MISS:          0
LLC WRITEBACK ACCESS:       5221  HIT:       5210  MISS:         11
Heartbeat CPU 0 instructions: 98000004 cycles: 431611688 heartbeat IPC: 0.115567 cumulative IPC: 0.115892 (Simulation time: 3 hr 50 min 48 sec) 

Region of Interest Statistics
cpu0_DTLB TOTAL     ACCESS:    6424777  HIT:    6358822  MISS:      65955
cpu0_DTLB LOAD      ACCESS:    6182994  HIT:    6117061  MISS:      65933
cpu0_DTLB RFO       ACCESS:     241783  HIT:     241761  MISS:         22
cpu0_DTLB PREFETCH  ACCESS:          0  HIT:          0  MISS:          0
cpu0_DTLB WRITEBACK ACCESS:          0  HIT:          0  MISS:          0
cpu0_ITLB TOTAL     ACCESS:    2967603  HIT:    2967603  MISS:          0
cpu0_ITLB LOAD      ACCESS:    2967603  HIT:    2967603  MISS:          0
cpu0_ITLB RFO       ACCESS:          0  HIT:          0  MISS:          0
cpu0_ITLB PREFETCH  ACCESS:          0  HIT:          0  MISS:          0
cpu0_ITLB WRITEBACK ACCESS:          0  HIT:          0  MISS:          0
cpu0_L1I TOTAL     ACCESS:       8081  HIT:       8081  MISS:          0
cpu0_L1I LOAD      ACCESS:       8081  HIT:       8081  MISS:          0
cpu0_L1I RFO       ACCESS:          0  HIT:          0  MISS:          0
cpu0_L1I PREFETCH  ACCESS:          0  HIT:          0  MISS:          0
cpu0_L1I WRITEBACK ACCESS:          0  HIT:          0  MISS:          0
cpu0_STLB TOTAL     ACCESS:      65955  HIT:       2324  MISS:      63631
cpu0_STLB LOAD      ACCESS:      65933  HIT:       2323  MISS:      63610
cpu0_STLB RFO       ACCESS:         22  HIT:          1  MISS:         21
cpu0_STLB PREFETCH  ACCESS:          0  HIT:          0  MISS:          0
cpu0_STLB WRITEBACK ACCESS:          0  HIT:          0  MISS:          0
cpu0_L1D TOTAL     ACCESS:    6819831  HIT:    3450084  MISS:    3369747
cpu0_L1D LOAD      ACCESS:    6125597  HIT:    2762400  MISS:    3363197
cpu0_L1D RFO       ACCESS:     630631  HIT:     629332  MISS:       1299
cpu0_L1D PREFETCH  ACCESS:          0  HIT:          0  MISS:          0
cpu0_L1D WRITEBACK ACCESS:          0  HIT:          0  MISS:          0
cpu0_L2C TOTAL     ACCESS:    3375172  HIT:      11079  MISS:    3364093
cpu0_L2C LOAD      ACCESS:    3363197  HIT:       1559  MISS:    3361638
cpu0_L2C RFO       ACCESS:       1299  HIT:          0  MISS:       1299
cpu0_L2C PREFETCH  ACCESS:          0  HIT:          0  MISS:          0
cpu0_L2C WRITEBACK ACCESS:       5425  HIT:       5414  MISS:         11
LLC TOTAL     ACCESS:    3369510  HIT:       5994  MISS:    3363516
LLC LOAD      ACCESS:    3361638  HIT:         80  MISS:    3361558
LLC RFO       ACCESS:       1299  HIT:          0  MISS:       1299
LLC PREFETCH  ACCESS:          0  HIT:          0  MISS:          0
LLC WRITEBACK ACCESS:       5428  HIT:       5417  MISS:         11
Heartbeat CPU 0 instructions: 100000000 cycles: 448902151 heartbeat IPC: 0.11567 cumulative IPC: 0.115883 (Simulation time: 3 hr 58 min 51 sec) 

Region of Interest Statistics
cpu0_DTLB TOTAL     ACCESS:    6692918  HIT:    6624465  MISS:      68453
cpu0_DTLB LOAD      ACCESS:    6441392  HIT:    6372962  MISS:      68430
cpu0_DTLB RFO       ACCESS:     251526  HIT:     251503  MISS:         23
cpu0_DTLB PREFETCH  ACCESS:          0  HIT:          0  MISS:          0
cpu0_DTLB WRITEBACK ACCESS:          0  HIT:          0  MISS:          0
cpu0_ITLB TOTAL     ACCESS:    3091191  HIT:    3091191  MISS:          0
cpu0_ITLB LOAD      ACCESS:    3091191  HIT:    3091191  MISS:          0
cpu0_ITLB RFO       ACCESS:          0  HIT:          0  MISS:          0
cpu0_ITLB PREFETCH  ACCESS:          0  HIT:          0  MISS:          0
cpu0_ITLB WRITEBACK ACCESS:          0  HIT:          0  MISS:          0
cpu0_L1I TOTAL     ACCESS:       8081  HIT:       8081  MISS:          0
cpu0_L1I LOAD      ACCESS:       8081  HIT:       8081  MISS:          0
cpu0_L1I RFO       ACCESS:          0  HIT:          0  MISS:          0
cpu0_L1I PREFETCH  ACCESS:          0  HIT:          0  MISS:          0
cpu0_L1I WRITEBACK ACCESS:          0  HIT:          0  MISS:          0
cpu0_STLB TOTAL     ACCESS:      68453  HIT:       2362  MISS:      66091
cpu0_STLB LOAD      ACCESS:      68430  HIT:       2361  MISS:      66069
cpu0_STLB RFO       ACCESS:         23  HIT:          1  MISS:         22
cpu0_STLB PREFETCH  ACCESS:          0  HIT:          0  MISS:          0
cpu0_STLB WRITEBACK ACCESS:          0  HIT:          0  MISS:          0
cpu0_L1D TOTAL     ACCESS:    7104301  HIT:    3593806  MISS:    3510495
cpu0_L1D LOAD      ACCESS:    6381844  HIT:    2878091  MISS:    3503753
cpu0_L1D RFO       ACCESS:     656394  HIT:     655047  MISS:       1347
cpu0_L1D PREFETCH  ACCESS:          0  HIT:          0  MISS:          0
cpu0_L1D WRITEBACK ACCESS:          0  HIT:          0  MISS:          0
cpu0_L2C TOTAL     ACCESS:    3516105  HIT:      11397  MISS:    3504708
cpu0_L2C LOAD      ACCESS:    3503753  HIT:       1574  MISS:    3502179
cpu0_L2C RFO       ACCESS:       1347  HIT:          0  MISS:       1347
cpu0_L2C PREFETCH  ACCESS:          0  HIT:          0  MISS:          0
cpu0_L2C WRITEBACK ACCESS:       5610  HIT:       5599  MISS:         11
LLC TOTAL     ACCESS:    3510298  HIT:       6183  MISS:    3504115
LLC LOAD      ACCESS:    3502179  HIT:         86  MISS:    3502093
LLC RFO       ACCESS:       1347  HIT:          0  MISS:       1347
LLC PREFETCH  ACCESS:          0  HIT:          0  MISS:          0
LLC WRITEBACK ACCESS:       5601  HIT:       5590  MISS:         11
Heartbeat CPU 0 instructions: 102000003 cycles: 466202414 heartbeat IPC: 0.115605 cumulative IPC: 0.115872 (Simulation time: 4 hr 7 min 4 sec) 

Region of Interest Statistics
cpu0_DTLB TOTAL     ACCESS:    6961121  HIT:    6890172  MISS:      70949
cpu0_DTLB LOAD      ACCESS:    6699867  HIT:    6628942  MISS:      70925
cpu0_DTLB RFO       ACCESS:     261254  HIT:     261230  MISS:         24
cpu0_DTLB PREFETCH  ACCESS:          0  HIT:          0  MISS:          0
cpu0_DTLB WRITEBACK ACCESS:          0  HIT:          0  MISS:          0
cpu0_ITLB TOTAL     ACCESS:    3214792  HIT:    3214792  MISS:          0
cpu0_ITLB LOAD      ACCESS:    3214792  HIT:    3214792  MISS:          0
cpu0_ITLB RFO       ACCESS:          0  HIT:          0  MISS:          0
cpu0_ITLB PREFETCH  ACCESS:          0  HIT:          0  MISS:          0
cpu0_ITLB WRITEBACK ACCESS:          0  HIT:          0  MISS:          0
cpu0_L1I TOTAL     ACCESS:       8081  HIT:       8081  MISS:          0
cpu0_L1I LOAD      ACCESS:       8081  HIT:       8081  MISS:          0
cpu0_L1I RFO       ACCESS:          0  HIT:          0  MISS:          0
cpu0_L1I PREFETCH  ACCESS:          0  HIT:          0  MISS:          0
cpu0_L1I WRITEBACK ACCESS:          0  HIT:          0  MISS:          0
cpu0_STLB TOTAL     ACCESS:      70949  HIT:       2443  MISS:      68506
cpu0_STLB LOAD      ACCESS:      70925  HIT:       2442  MISS:      68483
cpu0_STLB RFO       ACCESS:         24  HIT:          1  MISS:         23
cpu0_STLB PREFETCH  ACCESS:          0  HIT:          0  MISS:          0
cpu0_STLB WRITEBACK ACCESS:          0  HIT:          0  MISS:          0
cpu0_L1D TOTAL     ACCESS:    7388885  HIT:    3737618  MISS:    3651267
cpu0_L1D LOAD      ACCESS:    6638190  HIT:    2993875  MISS:    3644315
cpu0_L1D RFO       ACCESS:     682218  HIT:     680799  MISS:       1419
cpu0_L1D PREFETCH  ACCESS:          0  HIT:          0  MISS:          0
cpu0_L1D WRITEBACK ACCESS:          0  HIT:          0  MISS:          0
cpu0_L2C TOTAL     ACCESS:    3657057  HIT:      11697  MISS:    3645360
cpu0_L2C LOAD      ACCESS:    3644315  HIT:       1587  MISS:    3642728
cpu0_L2C RFO       ACCESS:       1419  HIT:          0  MISS:       1419
cpu0_L2C PREFETCH  ACCESS:          0  HIT:          0  MISS:          0
cpu0_L2C WRITEBACK ACCESS:       5790  HIT:       5779  MISS:         11
LLC TOTAL     ACCESS:    3651138  HIT:       6387  MISS:    3644751
LLC LOAD      ACCESS:    3642728  HIT:         87  MISS:    3642641
LLC RFO       ACCESS:       1419  HIT:          0  MISS:       1419
LLC PREFETCH  ACCESS:          0  HIT:          0  MISS:          0
LLC WRITEBACK ACCESS:       5789  HIT:       5778  MISS:         11
Heartbeat CPU 0 instructions: 104000001 cycles: 483574024 heartbeat IPC: 0.11513 cumulative IPC: 0.115845 (Simulation time: 4 hr 15 min 14 sec) 

Region of Interest Statistics
cpu0_DTLB TOTAL     ACCESS:    7228923  HIT:    7155295  MISS:      73628
cpu0_DTLB LOAD      ACCESS:    6957997  HIT:    6884395  MISS:      73602
cpu0_DTLB RFO       ACCESS:     270926  HIT:     270900  MISS:         26
cpu0_DTLB PREFETCH  ACCESS:          0  HIT:          0  MISS:          0
cpu0_DTLB WRITEBACK ACCESS:          0  HIT:          0  MISS:          0
cpu0_ITLB TOTAL     ACCESS:    3338464  HIT:    3338464  MISS:          0
cpu0_ITLB LOAD      ACCESS:    3338464  HIT:    3338464  MISS:          0
cpu0_ITLB RFO       ACCESS:          0  HIT:          0  MISS:          0
cpu0_ITLB PREFETCH  ACCESS:          0  HIT:          0  MISS:          0
cpu0_ITLB WRITEBACK ACCESS:          0  HIT:          0  MISS:          0
cpu0_L1I TOTAL     ACCESS:       8081  HIT:       8081  MISS:          0
cpu0_L1I LOAD      ACCESS:       8081  HIT:       8081  MISS:          0
cpu0_L1I RFO       ACCESS:          0  HIT:          0  MISS:          0
cpu0_L1I PREFETCH  ACCESS:          0  HIT:          0  MISS:          0
cpu0_L1I WRITEBACK ACCESS:          0  HIT:          0  MISS:          0
cpu0_STLB TOTAL     ACCESS:      73628  HIT:       2496  MISS:      71132
cpu0_STLB LOAD      ACCESS:      73602  HIT:       2495  MISS:      71107
cpu0_STLB RFO       ACCESS:         26  HIT:          1  MISS:         25
cpu0_STLB PREFETCH  ACCESS:          0  HIT:          0  MISS:          0
cpu0_STLB WRITEBACK ACCESS:          0  HIT:          0  MISS:          0
cpu0_L1D TOTAL     ACCESS:    7673259  HIT:    3881094  MISS:    3792165
cpu0_L1D LOAD      ACCESS:    6894245  HIT:    3109257  MISS:    3784988
cpu0_L1D RFO       ACCESS:     707912  HIT:     706450  MISS:       1462
cpu0_L1D PREFETCH  ACCESS:          0  HIT:          0  MISS:          0
cpu0_L1D WRITEBACK ACCESS:          0  HIT:          0  MISS:          0
cpu0_L2C TOTAL     ACCESS:    3798202  HIT:      12119  MISS:    3786083
cpu0_L2C LOAD      ACCESS:    3784988  HIT:       1613  MISS:    3783375
cpu0_L2C RFO       ACCESS:       1462  HIT:          0  MISS:       1462
cpu0_L2C PREFETCH  ACCESS:          0  HIT:          0  MISS:          0
cpu0_L2C WRITEBACK ACCESS:       6037  HIT:       6026  MISS:         11
LLC TOTAL     ACCESS:    3792107  HIT:       6652  MISS:    3785455
LLC LOAD      ACCESS:    3783375  HIT:         93  MISS:    3783282
LLC RFO       ACCESS:       1462  HIT:          0  MISS:       1462
LLC PREFETCH  ACCESS:          0  HIT:          0  MISS:          0
LLC WRITEBACK ACCESS:       6035  HIT:       6024  MISS:         11
Heartbeat CPU 0 instructions: 106000001 cycles: 500902411 heartbeat IPC: 0.115418 cumulative IPC: 0.115829 (Simulation time: 4 hr 23 min 16 sec) 

Region of Interest Statistics
cpu0_DTLB TOTAL     ACCESS:    7496978  HIT:    7420793  MISS:      76185
cpu0_DTLB LOAD      ACCESS:    7216338  HIT:    7140180  MISS:      76158
cpu0_DTLB RFO       ACCESS:     280640  HIT:     280613  MISS:         27
cpu0_DTLB PREFETCH  ACCESS:          0  HIT:          0  MISS:          0
cpu0_DTLB WRITEBACK ACCESS:          0  HIT:          0  MISS:          0
cpu0_ITLB TOTAL     ACCESS:    3462079  HIT:    3462079  MISS:          0
cpu0_ITLB LOAD      ACCESS:    3462079  HIT:    3462079  MISS:          0
cpu0_ITLB RFO       ACCESS:          0  HIT:          0  MISS:          0
cpu0_ITLB PREFETCH  ACCESS:          0  HIT:          0  MISS:          0
cpu0_ITLB WRITEBACK ACCESS:          0  HIT:          0  MISS:          0
cpu0_L1I TOTAL     ACCESS:       8081  HIT:       8081  MISS:          0
cpu0_L1I LOAD      ACCESS:       8081  HIT:       8081  MISS:          0
cpu0_L1I RFO       ACCESS:          0  HIT:          0  MISS:          0
cpu0_L1I PREFETCH  ACCESS:          0  HIT:          0  MISS:          0
cpu0_L1I WRITEBACK ACCESS:          0  HIT:          0  MISS:          0
cpu0_STLB TOTAL     ACCESS:      76185  HIT:       2528  MISS:      73657
cpu0_STLB LOAD      ACCESS:      76158  HIT:       2527  MISS:      73631
cpu0_STLB RFO       ACCESS:         27  HIT:          1  MISS:         26
cpu0_STLB PREFETCH  ACCESS:          0  HIT:          0  MISS:          0
cpu0_STLB WRITEBACK ACCESS:          0  HIT:          0  MISS:          0
cpu0_L1D TOTAL     ACCESS:    7957853  HIT:    4024816  MISS:    3933037
cpu0_L1D LOAD      ACCESS:    7150552  HIT:    3224903  MISS:    3925649
cpu0_L1D RFO       ACCESS:     733675  HIT:     732146  MISS:       1529
cpu0_L1D PREFETCH  ACCESS:          0  HIT:          0  MISS:          0
cpu0_L1D WRITEBACK ACCESS:          0  HIT:          0  MISS:          0
cpu0_L2C TOTAL     ACCESS:    3939291  HIT:      12469  MISS:    3926822
cpu0_L2C LOAD      ACCESS:    3925649  HIT:       1629  MISS:    3924020
cpu0_L2C RFO       ACCESS:       1529  HIT:          0  MISS:       1529
cpu0_L2C PREFETCH  ACCESS:          0  HIT:          0  MISS:          0
cpu0_L2C WRITEBACK ACCESS:       6254  HIT:       6243  MISS:         11
LLC TOTAL     ACCESS:    3933058  HIT:       6878  MISS:    3926180
LLC LOAD      ACCESS:    3924020  HIT:         99  MISS:    3923921
LLC RFO       ACCESS:       1529  HIT:          0  MISS:       1529
LLC PREFETCH  ACCESS:          0  HIT:          0  MISS:          0
LLC WRITEBACK ACCESS:       6247  HIT:       6236  MISS:         11
Heartbeat CPU 0 instructions: 108000002 cycles: 518206453 heartbeat IPC: 0.11558 cumulative IPC: 0.115821 (Simulation time: 4 hr 31 min 28 sec) 

Region of Interest Statistics
cpu0_DTLB TOTAL     ACCESS:    7765261  HIT:    7686581  MISS:      78680
cpu0_DTLB LOAD      ACCESS:    7474864  HIT:    7396211  MISS:      78653
cpu0_DTLB RFO       ACCESS:     290397  HIT:     290370  MISS:         27
cpu0_DTLB PREFETCH  ACCESS:          0  HIT:          0  MISS:          0
cpu0_DTLB WRITEBACK ACCESS:          0  HIT:          0  MISS:          0
cpu0_ITLB TOTAL     ACCESS:    3585697  HIT:    3585697  MISS:          0
cpu0_ITLB LOAD      ACCESS:    3585697  HIT:    3585697  MISS:          0
cpu0_ITLB RFO       ACCESS:          0  HIT:          0  MISS:          0
cpu0_ITLB PREFETCH  ACCESS:          0  HIT:          0  MISS:          0
cpu0_ITLB WRITEBACK ACCESS:          0  HIT:          0  MISS:          0
cpu0_L1I TOTAL     ACCESS:       8081  HIT:       8081  MISS:          0
cpu0_L1I LOAD      ACCESS:       8081  HIT:       8081  MISS:          0
cpu0_L1I RFO       ACCESS:          0  HIT:          0  MISS:          0
cpu0_L1I PREFETCH  ACCESS:          0  HIT:          0  MISS:          0
cpu0_L1I WRITEBACK ACCESS:          0  HIT:          0  MISS:          0
cpu0_STLB TOTAL     ACCESS:      78680  HIT:       2600  MISS:      76080
cpu0_STLB LOAD      ACCESS:      78653  HIT:       2599  MISS:      76054
cpu0_STLB RFO       ACCESS:         27  HIT:          1  MISS:         26
cpu0_STLB PREFETCH  ACCESS:          0  HIT:          0  MISS:          0
cpu0_STLB WRITEBACK ACCESS:          0  HIT:          0  MISS:          0
cpu0_L1D TOTAL     ACCESS:    8242549  HIT:    4168738  MISS:    4073811
cpu0_L1D LOAD      ACCESS:    7407009  HIT:    3340787  MISS:    4066222
cpu0_L1D RFO       ACCESS:     759491  HIT:     757908  MISS:       1583
cpu0_L1D PREFETCH  ACCESS:          0  HIT:          0  MISS:          0
cpu0_L1D WRITEBACK ACCESS:          0  HIT:          0  MISS:          0
cpu0_L2C TOTAL     ACCESS:    4080259  HIT:      12786  MISS:    4067473
cpu0_L2C LOAD      ACCESS:    4066222  HIT:       1634  MISS:    4064588
cpu0_L2C RFO       ACCESS:       1583  HIT:          0  MISS:       1583
cpu0_L2C PREFETCH  ACCESS:          0  HIT:          0  MISS:          0
cpu0_L2C WRITEBACK ACCESS:       6448  HIT:       6436  MISS:         12
LLC TOTAL     ACCESS:    4073911  HIT:       7102  MISS:    4066809
LLC LOAD      ACCESS:    4064588  HIT:        106  MISS:    4064482
LLC RFO       ACCESS:       1583  HIT:          0  MISS:       1583
LLC PREFETCH  ACCESS:          0  HIT:          0  MISS:          0
LLC WRITEBACK ACCESS:       6450  HIT:       6438  MISS:         12
Heartbeat CPU 0 instructions: 110000003 cycles: 535531837 heartbeat IPC: 0.115438 cumulative IPC: 0.115808 (Simulation time: 4 hr 39 min 42 sec) 

Region of Interest Statistics
cpu0_DTLB TOTAL     ACCESS:    8033708  HIT:    7952585  MISS:      81123
cpu0_DTLB LOAD      ACCESS:    7733549  HIT:    7652453  MISS:      81096
cpu0_DTLB RFO       ACCESS:     300159  HIT:     300132  MISS:         27
cpu0_DTLB PREFETCH  ACCESS:          0  HIT:          0  MISS:          0
cpu0_DTLB WRITEBACK ACCESS:          0  HIT:          0  MISS:          0
cpu0_ITLB TOTAL     ACCESS:    3709198  HIT:    3709198  MISS:          0
cpu0_ITLB LOAD      ACCESS:    3709198  HIT:    3709198  MISS:          0
cpu0_ITLB RFO       ACCESS:          0  HIT:          0  MISS:          0
cpu0_ITLB PREFETCH  ACCESS:          0  HIT:          0  MISS:          0
cpu0_ITLB WRITEBACK ACCESS:          0  HIT:          0  MISS:          0
cpu0_L1I TOTAL     ACCESS:       8081  HIT:       8081  MISS:          0
cpu0_L1I LOAD      ACCESS:       8081  HIT:       8081  MISS:          0
cpu0_L1I RFO       ACCESS:          0  HIT:          0  MISS:          0
cpu0_L1I PREFETCH  ACCESS:          0  HIT:          0  MISS:          0
cpu0_L1I WRITEBACK ACCESS:          0  HIT:          0  MISS:          0
cpu0_STLB TOTAL     ACCESS:      81123  HIT:       2625  MISS:      78498
cpu0_STLB LOAD      ACCESS:      81096  HIT:       2624  MISS:      78472
cpu0_STLB RFO       ACCESS:         27  HIT:          1  MISS:         26
cpu0_STLB PREFETCH  ACCESS:          0  HIT:          0  MISS:          0
cpu0_STLB WRITEBACK ACCESS:          0  HIT:          0  MISS:          0
cpu0_L1D TOTAL     ACCESS:    8527307  HIT:    4312611  MISS:    4214696
cpu0_L1D LOAD      ACCESS:    7663579  HIT:    3456644  MISS:    4206935
cpu0_L1D RFO       ACCESS:     785262  HIT:     783657  MISS:       1605
cpu0_L1D PREFETCH  ACCESS:          0  HIT:          0  MISS:          0
[...]
cpu0_DTLB TOTAL     ACCESS:  201066446  HIT:  198997167  MISS:    2069279
cpu0_DTLB LOAD      ACCESS:  192924431  HIT:  190856445  MISS:    2067986
cpu0_DTLB RFO       ACCESS:    8142015  HIT:    8140722  MISS:       1293
cpu0_DTLB PREFETCH  ACCESS:          0  HIT:          0  MISS:          0
cpu0_DTLB WRITEBACK ACCESS:          0  HIT:          0  MISS:          0
cpu0_ITLB TOTAL     ACCESS:   93095743  HIT:   93095737  MISS:          6
cpu0_ITLB LOAD      ACCESS:   93095743  HIT:   93095737  MISS:          6
cpu0_ITLB RFO       ACCESS:          0  HIT:          0  MISS:          0
cpu0_ITLB PREFETCH  ACCESS:          0  HIT:          0  MISS:          0
cpu0_ITLB WRITEBACK ACCESS:          0  HIT:          0  MISS:          0
cpu0_L1I TOTAL     ACCESS:     713785  HIT:     713696  MISS:         89
cpu0_L1I LOAD      ACCESS:     713785  HIT:     713696  MISS:         89
cpu0_L1I RFO       ACCESS:          0  HIT:          0  MISS:          0
cpu0_L1I PREFETCH  ACCESS:          0  HIT:          0  MISS:          0
cpu0_L1I WRITEBACK ACCESS:          0  HIT:          0  MISS:          0
cpu0_STLB TOTAL     ACCESS:    2069285  HIT:      77236  MISS:    1992049
cpu0_STLB LOAD      ACCESS:    2067992  HIT:      76852  MISS:    1991140
cpu0_STLB RFO       ACCESS:       1293  HIT:        384  MISS:        909
cpu0_STLB PREFETCH  ACCESS:          0  HIT:          0  MISS:          0
cpu0_STLB WRITEBACK ACCESS:          0  HIT:          0  MISS:          0
cpu0_L1D TOTAL     ACCESS:  214010219  HIT:  109480779  MISS:  104529440
cpu0_L1D LOAD      ACCESS:  191100093  HIT:   86792758  MISS:  104307335
cpu0_L1D RFO       ACCESS:   20919037  HIT:   20856707  MISS:      62330
cpu0_L1D PREFETCH  ACCESS:          0  HIT:          0  MISS:          0
cpu0_L1D WRITEBACK ACCESS:          0  HIT:          0  MISS:          0
cpu0_L2C TOTAL     ACCESS:  104718939  HIT:     417531  MISS:  104301408
cpu0_L2C LOAD      ACCESS:  104307424  HIT:      91779  MISS:  104215645
cpu0_L2C RFO       ACCESS:      62330  HIT:      11638  MISS:      50692
cpu0_L2C PREFETCH  ACCESS:          0  HIT:          0  MISS:          0
cpu0_L2C WRITEBACK ACCESS:     189410  HIT:     188985  MISS:        425
LLC TOTAL     ACCESS:  104480308  HIT:     251755  MISS:  104228553
LLC LOAD      ACCESS:  104215645  HIT:      57268  MISS:  104158377
LLC RFO       ACCESS:      50692  HIT:       3029  MISS:      47663
LLC PREFETCH  ACCESS:          0  HIT:          0  MISS:          0
LLC WRITEBACK ACCESS:     179325  HIT:     176951  MISS:       2374
Finished CPU 0 instructions: 1500000000 cycles: 12871760867 cumulative IPC: 0.116534 (Simulation time: 31 hr 47 min 22 sec) 

ChampSim completed all CPUs

Region of Interest Statistics

CPU 0 cumulative IPC: 0.116534 instructions: 1500000000 cycles: 12871760867
cpu0_DTLB TOTAL     ACCESS:  201066447  HIT:  198997168  MISS:    2069279
cpu0_DTLB LOAD      ACCESS:  192924432  HIT:  190856446  MISS:    2067986
cpu0_DTLB RFO       ACCESS:    8142015  HIT:    8140722  MISS:       1293
cpu0_DTLB PREFETCH  ACCESS:          0  HIT:          0  MISS:          0
cpu0_DTLB WRITEBACK ACCESS:          0  HIT:          0  MISS:          0
cpu0_DTLB TRANSLATION ACCESS:          0  HIT:          0  MISS:          0
cpu0_DTLB PREFETCH  REQUESTED:          0  ISSUED:          0  USEFUL:          0  USELESS:          0
cpu0_DTLB AVERAGE MISS LATENCY: 20.3736 cycles
cpu0_ITLB TOTAL     ACCESS:   93095743  HIT:   93095737  MISS:          6
cpu0_ITLB LOAD      ACCESS:   93095743  HIT:   93095737  MISS:          6
cpu0_ITLB RFO       ACCESS:          0  HIT:          0  MISS:          0
cpu0_ITLB PREFETCH  ACCESS:          0  HIT:          0  MISS:          0
cpu0_ITLB WRITEBACK ACCESS:          0  HIT:          0  MISS:          0
cpu0_ITLB TRANSLATION ACCESS:          0  HIT:          0  MISS:          0
cpu0_ITLB PREFETCH  REQUESTED:          0  ISSUED:          0  USEFUL:          0  USELESS:          0
cpu0_ITLB AVERAGE MISS LATENCY: 283.167 cycles
cpu0_L1I TOTAL     ACCESS:     713785  HIT:     713696  MISS:         89
cpu0_L1I LOAD      ACCESS:     713785  HIT:     713696  MISS:         89
cpu0_L1I RFO       ACCESS:          0  HIT:          0  MISS:          0
cpu0_L1I PREFETCH  ACCESS:          0  HIT:          0  MISS:          0
cpu0_L1I WRITEBACK ACCESS:          0  HIT:          0  MISS:          0
cpu0_L1I TRANSLATION ACCESS:          0  HIT:          0  MISS:          0
cpu0_L1I PREFETCH  REQUESTED:          0  ISSUED:          0  USEFUL:          0  USELESS:          0
cpu0_L1I AVERAGE MISS LATENCY: 192.09 cycles
cpu0_STLB TOTAL     ACCESS:    2069285  HIT:      77236  MISS:    1992049
cpu0_STLB LOAD      ACCESS:    2067992  HIT:      76852  MISS:    1991140
cpu0_STLB RFO       ACCESS:       1293  HIT:        384  MISS:        909
cpu0_STLB PREFETCH  ACCESS:          0  HIT:          0  MISS:          0
cpu0_STLB WRITEBACK ACCESS:          0  HIT:          0  MISS:          0
cpu0_STLB TRANSLATION ACCESS:          0  HIT:          0  MISS:          0
cpu0_STLB PREFETCH  REQUESTED:          0  ISSUED:          0  USEFUL:          0  USELESS:          0
cpu0_STLB AVERAGE MISS LATENCY: 11.8147 cycles
cpu0_L1D TOTAL     ACCESS:  214010220  HIT:  109480779  MISS:  104529441
cpu0_L1D LOAD      ACCESS:  191100094  HIT:   86792758  MISS:  104307336
cpu0_L1D RFO       ACCESS:   20919037  HIT:   20856707  MISS:      62330
cpu0_L1D PREFETCH  ACCESS:          0  HIT:          0  MISS:          0
cpu0_L1D WRITEBACK ACCESS:          0  HIT:          0  MISS:          0
cpu0_L1D TRANSLATION ACCESS:    1991089  HIT:    1831314  MISS:     159775
cpu0_L1D PREFETCH  REQUESTED:          0  ISSUED:          0  USEFUL:          0  USELESS:          0
cpu0_L1D AVERAGE MISS LATENCY: 113.491 cycles
cpu0_L2C TOTAL     ACCESS:  104718940  HIT:     417531  MISS:  104301409
cpu0_L2C LOAD      ACCESS:  104307425  HIT:      91779  MISS:  104215646
cpu0_L2C RFO       ACCESS:      62330  HIT:      11638  MISS:      50692
cpu0_L2C PREFETCH  ACCESS:          0  HIT:          0  MISS:          0
cpu0_L2C WRITEBACK ACCESS:     189410  HIT:     188985  MISS:        425
cpu0_L2C TRANSLATION ACCESS:     159775  HIT:     125129  MISS:      34646
cpu0_L2C PREFETCH  REQUESTED:          0  ISSUED:          0  USEFUL:          0  USELESS:          0
cpu0_L2C AVERAGE MISS LATENCY: 102.711 cycles
LLC TOTAL     ACCESS:  104480309  HIT:     251755  MISS:  104228554
LLC LOAD      ACCESS:  104215646  HIT:      57268  MISS:  104158378
LLC RFO       ACCESS:      50692  HIT:       3029  MISS:      47663
LLC PREFETCH  ACCESS:          0  HIT:          0  MISS:          0
LLC WRITEBACK ACCESS:     179325  HIT:     176951  MISS:       2374
LLC TRANSLATION ACCESS:      34646  HIT:      14507  MISS:      20139
LLC PREFETCH  REQUESTED:          0  ISSUED:          0  USEFUL:          0  USELESS:          0
LLC AVERAGE MISS LATENCY: 81.768 cycles
~~~~~~~~~~Reuse Distance Profiler output~~~~~~~~~~
0	83931136	66147840
1	4486048	4276480
2	1595152	1458656
3	2453120	2221392
4	1807280	1684224
5	1565392	1523536
6	612032	379040
7	528224	234432
8	377152	110992
9	229232	94048
10	2234672	2148160
11	561184	497136
12	248752	189216
13	388496	349248
14	258160	229216
15	255072	221600
16	1084752	1056960
17	521120	505456
18	227632	211168
19	89008	72032
20	41712	23504
21	22592	14624
22	84752	76752
23	34624	24496
24	57120	51712
25	35744	34032
26	97280	94720
27	51440	47008
28	98208	84272
29	36272	24656
30	34240	29360
31	79264	78688
32	32496	32272
33	168416	168256
34	97792	50784
35	104944	38304
36	76048	19104
37	85088	65248
38	65088	63008
39	70560	69952
40	58912	58496
41	23296	22880
42	8016	7440
43	7440	6992
44	10896	10624
45	9168	8720
46	5264	4800
47	5472	4912
48	5248	4720
49	53680	53264
50	26784	26448
51	20992	20736
52	12480	12272
53	75360	75184
54	62912	62864
55	62432	62368
56	145392	36016
57	89840	21968
58	20880	10928
59	3392	3392
60	111088	111008
61	73536	73424
62	11696	11616
63	2080	1952
64	152272	3312
66	42112	10800
68	68016	59264
70	82880	81392
72	3280	1968
74	3072	1296
76	91104	33136
78	141728	10928
80	61936	56816
82	137728	136720
84	30912	30064
86	29328	28608
88	11408	10912
90	2512	1824
92	2464	1616
94	8368	7472
96	31088	30192
98	72240	71600
100	30112	29536
102	13552	13312
104	7472	7392
106	23904	23888
108	63136	63120
110	13024	13024
112	352	352
114	192	192
116	208	208
118	208	208
120	182768	1840
122	18752	11936
124	201904	201888
126	15952	15952
128	3056	3056
132	178736	2512
136	187648	177824
140	11840	11792
144	1584	1312
148	1984	1456
152	2592	1792
156	3232	1824
160	2704	1328
164	3024	1408
168	2960	1664
172	2848	1568
176	3888	2672
180	71472	70432
184	34864	34144
188	768	288
192	512	224
196	176	128
200	400	384
204	160	160
208	240	240
212	320	320
216	158448	608
220	190208	159744
224	29920	29888
228	704	704
232	50320	672
236	156608	18816
240	169664	169040
244	3504	3456
248	320	320
252	144	144
256	320	272
264	736	624
272	1728	1264
280	2912	1808
288	4032	2432
296	3984	2272
304	3824	2000
312	4304	2304
320	3584	1584
328	1952	688
336	512	112
344	288	240
352	96	80
360	128	128
368	96	96
376	144	144
384	128	128
392	144	144
400	96	96
408	192	192
416	144	128
424	192	192
432	128	128
440	192	192
448	64	64
456	64	64
464	96	80
472	96	96
480	128	128
488	16	16
496	160	160
504	80	80
512	112	112
528	64	64
544	192	192
560	256	256
576	192	192
592	128	128
608	96	96
624	32	32
640	144	144
656	48	48
672	48	48
688	80	80
704	32	32
720	32	32
736	80	80
752	16	16
768	48	48
784	80	80
800	48	48
816	32	32
832	256	256
848	183168	183168
864	175680	175680
880	17440	17440
896	32	32
912	64	64
928	80	80
944	82944	82944
960	248816	248816
976	46304	46304
992	672	672
1008	158912	158912
1024	447600	447600
1056	1110736	1110736
1088	1594080	1594080
1120	2512	2512
1152	7536	7536
1184	11040	11040
1216	7424	7408
1248	10176	10176
1280	20640	20640
1312	28448	28448
1344	37312	37312
1376	18288	18288
1408	1312	1312
1440	96	80
1472	80	80
1504	128	128
1536	272	256
1568	160	160
1600	144	144
1632	80	80
1664	112	112
1696	144	144
1728	128	128
1760	112	112
1792	16	16
1824	144	144
1856	80	80
1888	64	64
1920	160	160
1952	112	112
1984	80	80
2016	112	112
2048	208	208
2112	1584	1584
2176	7216	7200
2240	336	336
2304	48	48
2368	64	64
2432	64	64
2496	96	96
2560	96	96
2624	272	272
2688	224	224
2752	64	64
2816	144	144
2880	112	112
2944	32	32
3008	96	96
3072	112	112
3136	192	192
3200	832	832
3264	3936	3936
3328	368	368
3392	112	112
3456	48	48
3520	48	48
3584	48	48
3648	32	32
3712	64	64
3776	128	128
3840	48	48
3904	128	128
3968	48	48
4032	128	128
4096	192	192
4224	400	400
4352	4128	4128
4480	48	48
4608	64	64
4736	176	176
4864	192	192
4992	64	64
5120	144	144
5248	144	144
5376	752	752
5504	1952	1952
5632	144	144
5760	112	112
5888	160	160
6016	80	80
6144	96	96
6272	144	144
6400	160	160
6528	2256	2256
6656	208	208
6784	208	208
6912	192	192
7040	144	144
7168	112	112
7296	128	128
7424	192	192
7552	112	112
7680	1792	1792
7808	160	160
7936	144	144
8064	144	144
8192	208	208
8448	144	144
8704	1184	1184
8960	192	192
9216	224	224
9472	240	240
9728	1568	1568
9984	304	304
10240	464	464
10496	544	544
10752	368	368
11008	1200	1200
11264	416	416
11520	192	192
11776	304	304
12032	912	912
12288	1136	1136
12544	1072	1024
12800	1136	560
13056	2048	1712
13312	1280	976
13568	1648	1232
13824	1472	1104
14080	1712	1392
14336	2096	1616
14592	1296	992
14848	848	848
15104	3312	3280
15360	4528	4512
15616	528	496
15872	640	576
16128	416	416
16384	1488	1408
16896	688	656
17408	1264	1200
17920	784	784
18432	752	752
18944	752	736
19456	768	768
19968	544	496
20480	832	832
20992	848	848
21504	608	608
22016	528	528
22528	608	608
23040	1104	1072
23552	512	512
24064	752	752
24576	592	592
25088	496	480
25600	96	96
26112	432	400
26624	272	176
27136	240	224
27648	112	96
28160	16	0
28672	816	784
29184	160	80
29696	240	112
30208	128	64
30720	144	112
31232	128	80
31744	240	176
32256	128	64
32768	480	336
33792	384	240
34816	320	176
35840	192	144
36864	208	128
37888	336	272
38912	560	352
39936	320	240
40960	528	400
41984	336	240
43008	288	240
44032	512	320
45056	336	208
46080	304	256
47104	368	304
48128	368	192
49152	384	208
50176	560	240
51200	784	352
52224	592	304
53248	688	256
54272	368	224
55296	384	272
56320	416	192
57344	352	224
58368	464	400
59392	352	256
60416	256	160
61440	400	208
62464	320	256
63488	384	288
64512	384	304
65536	608	448
67584	496	368
69632	608	368
71680	1248	1040
73728	1408	1232
75776	576	400
77824	656	432
79872	624	464
81920	432	288
83968	528	336
86016	400	256
88064	352	192
90112	448	320
92160	416	304
94208	496	368
96256	416	192
98304	160	32
100352	208	160
102400	368	176
104448	304	176
106496	416	240
108544	400	176
110592	336	192
112640	144	64
114688	624	480
116736	624	544
118784	144	32
120832	144	0
122880	112	16
124928	0	0
126976	32	0
129024	64	0
131072	208	16
135168	256	32
139264	80	48
143360	48	16
147456	19632	19440
151552	27616	27536
155648	96	0
159744	64	16
163840	48	48
167936	32	16
172032	48	0
176128	0	0
180224	32	32
184320	80	80
188416	20336	20336
192512	96	96
196608	96	96
200704	128	128
204800	64	64
208896	128	128
212992	96	96
217088	16	16
221184	16	16
225280	80	80
229376	0	0
233472	0	0
237568	0	0
241664	16	16
245760	0	0
249856	0	0
253952	16	16
258048	16	16
262144	32	32
270336	656	656
278528	32	32
286720	48	48
294912	32	32
303104	48	48
311296	80	80
319488	32	32
327680	48	48
335872	32	32
344064	0	0
352256	16	16
360448	0	0
368640	0	0
376832	0	0
385024	0	0
393216	16	16
401408	0	0
409600	0	0
417792	16	16
425984	0	0
434176	32	32
442368	0	0
450560	0	0
458752	32	32
466944	0	0
475136	32	32
483328	0	0
491520	0	0
499712	16	16
507904	0	0
516096	48	48
524288	16	16
540672	0	0
557056	16	0
573440	32	32
589824	0	0
606208	496	496
622592	576	576
638976	16	16
655360	0	0
671744	0	0
688128	32	32
704512	16	16
720896	16	16
737280	0	0
753664	0	0
770048	0	0
786432	0	0
802816	0	0
819200	0	0
835584	32	32
851968	0	0
868352	0	0
884736	0	0
901120	0	0
917504	0	0
933888	0	0
950272	0	0
966656	16	16
983040	0	0
999424	0	0
1015808	0	0
1032192	0	0
1048576	0	0
1081344	0	0
1114112	0	0
1146880	0	0
1179648	0	0
1212416	0	0
1245184	16	16
1277952	16	16
1310720	0	0
1343488	48	48
1376256	0	0
1409024	0	0
1441792	0	0
1474560	32	32
1507328	0	0
1540096	16	16
1572864	16	16
1605632	0	0
1638400	16	16
1671168	16	16
1703936	0	0
1736704	16	16
1769472	0	0
1802240	0	0
1835008	16	16
1867776	16	16
1900544	0	0
1933312	0	0
1966080	0	0
1998848	16	16
2031616	16	16
2064384	0	0
2097152	0	0
2162688	0	0
2228224	32	32
2293760	32	32
2359296	16	16
2424832	0	0
2490368	0	0
2555904	0	0
2621440	0	0
2686976	16	16
2752512	16	16
2818048	0	0
2883584	0	0
2949120	48	48
3014656	32	32
3080192	0	0
3145728	0	0
3211264	16	16
3276800	16	16
3342336	0	0
3407872	32	32
3473408	0	0
3538944	0	0
3604480	16	16
3670016	16	16
3735552	16	16
3801088	16	16
3866624	0	0
3932160	32	32
3997696	16	16
4063232	512	512
4128768	464	464
4194304	256	256
4325376	16	16
4456448	624	624
4587520	128	128
4718592	0	0
4849664	1200	1200
4980736	2528	2528
5111808	74123984	74093392
5242880	7059856	7056464
5373952	9387632	9384048
5505024	3790448	3789040
5636096	7054864	7052288
5767168	855344	855008
5898240	263648	263568
6029312	284176	284064
6160384	283344	283232
6291456	1055392	1054768
6422528	0	0
6553600	656	656
6684672	16	16
6815744	16	16
6946816	0	0
7077888	0	0
7208960	0	0
7340032	0	0
7471104	0	0
7602176	0	0
7733248	0	0
7864320	32	32
7995392	0	0
8126464	0	0
8257536	0	0
8388608	0	0
8650752	0	0
8912896	0	0
9175040	0	0
9437184	0	0
9699328	0	0
9961472	1216	1216
10223616	12544	11344
10485760	224	224
10747904	1696	1696
11010048	448	448
11272192	336	336
11534336	528	528
11796480	0	0
12058624	416	416
12320768	624	624
12582912	0	0
12845056	0	0
13107200	0	0
13369344	0	0
13631488	0	0
13893632	0	0
14155776	640	640
14417920	0	0
14680064	0	0
14942208	544	544
15204352	16	16
15466496	688	688
15728640	256	160
15990784	9440	8512
16252928	135680	135584
16515072	52224	52224
16777216	0	0
17301504	0	0
17825792	0	0
18350080	0	0
18874368	0	0
19398656	576	576
19922944	416	416
20447232	0	0
20971520	432	432
21495808	16	16
22020096	0	0
22544384	0	0
23068672	16	16
23592960	16	16
24117248	0	0
24641536	0	0
25165824	0	0
25690112	187152	187024
26214400	96	96
26738688	0	0
27262976	0	0
27787264	0	0
28311552	0	0
28835840	0	0
29360128	0	0
29884416	32	32
30408704	0	0
30932992	0	0
31457280	64	64
31981568	0	0
32505856	16	16
33030144	0	0
33554432	0	0
34603008	0	0
35651584	336	336
36700160	10032	9120
37748736	229024	228912
38797312	0	0
39845888	0	0
40894464	64	64
41943040	39904	39904
42991616	0	0
44040192	0	0
45088768	0	0
46137344	0	0
47185920	0	0
48234496	0	0
49283072	0	0
50331648	0	0
51380224	0	0
52428800	0	0
53477376	0	0
54525952	0	0
55574528	0	0
56623104	0	0
57671680	0	0
58720256	0	0
59768832	0	0
60817408	0	0
61865984	16	16
62914560	0	0
63963136	0	0
65011712	0	0
66060288	0	0
67108864	0	0
69206016	16	16
71303168	0	0
73400320	0	0
75497472	0	0
77594624	0	0
79691776	0	0
81788928	0	0
83886080	0	0
85983232	0	0
88080384	0	0
90177536	0	0
92274688	0	0
94371840	0	0
96468992	0	0
98566144	0	0
100663296	0	0
102760448	0	0
104857600	0	0
106954752	0	0
109051904	0	0
111149056	0	0
113246208	0	0
115343360	0	0
117440512	0	0
119537664	0	0
121634816	0	0
123731968	0	0
125829120	0	0
127926272	0	0
130023424	0	0
132120576	0	0
134217728	0	0
138412032	0	0
142606336	0	0
146800640	0	0
150994944	0	0
155189248	0	0
159383552	0	0
163577856	0	0
167772160	0	0
171966464	0	0
176160768	0	0
180355072	0	0
184549376	0	0
188743680	0	0
192937984	0	0
197132288	0	0
201326592	0	0
205520896	0	0
209715200	0	0
213909504	0	0
218103808	0	0
222298112	0	0
226492416	0	0
230686720	0	0
234881024	0	0
239075328	0	0
243269632	0	0
247463936	0	0
251658240	0	0
255852544	0	0
260046848	0	0
264241152	0	0
268435456	0	0
276824064	0	0
285212672	0	0
293601280	0	0
301989888	0	0
310378496	0	0
318767104	0	0
327155712	0	0
335544320	0	0
343932928	0	0
352321536	0	0
360710144	0	0
369098752	0	0
377487360	0	0
385875968	0	0
394264576	0	0
402653184	0	0
411041792	0	0
419430400	0	0
427819008	0	0
436207616	0	0
444596224	0	0
452984832	0	0
461373440	0	0
469762048	0	0
478150656	0	0
486539264	0	0
494927872	0	0
503316480	0	0
511705088	0	0
520093696	0	0
528482304	0	0
536870912	0	0
553648128	0	0
570425344	0	0
587202560	0	0
603979776	0	0
620756992	0	0
637534208	0	0
654311424	0	0
671088640	0	0
687865856	0	0
704643072	0	0
721420288	0	0
738197504	0	0
754974720	0	0
771751936	0	0
788529152	0	0
805306368	0	0
822083584	0	0
838860800	0	0
855638016	0	0
872415232	0	0
889192448	0	0
905969664	0	0
922746880	0	0
939524096	0	0
956301312	0	0
973078528	0	0
989855744	0	0
1006632960	0	0
1023410176	0	0
1040187392	0	0
1056964608	0	0
1073741824	0	0
1107296256	0	0
1140850688	0	0
1174405120	0	0
1207959552	0	0
1241513984	0	0
1275068416	0	0
1308622848	0	0
1342177280	0	0
1375731712	0	0
1409286144	0	0
1442840576	0	0
1476395008	0	0
1509949440	0	0
1543503872	0	0
1577058304	0	0
1610612736	0	0
1644167168	0	0
1677721600	0	0
1711276032	0	0
1744830464	0	0
1778384896	0	0
1811939328	0	0
1845493760	0	0
1879048192	0	0
1912602624	0	0
1946157056	0	0
1979711488	0	0
2013265920	0	0
2046820352	0	0
2080374784	0	0
2113929216	0	0
2147483648	0	0
2214592512	0	0
2281701376	0	0
2348810240	0	0
2415919104	0	0
2483027968	0	0
2550136832	0	0
2617245696	0	0
2684354560	0	0
2751463424	0	0
2818572288	0	0
2885681152	0	0
2952790016	0	0
3019898880	0	0
3087007744	0	0
3154116608	0	0
3221225472	0	0
3288334336	0	0
3355443200	0	0
3422552064	0	0
3489660928	0	0
3556769792	0	0
3623878656	0	0
3690987520	0	0
3758096384	0	0
3825205248	0	0
3892314112	0	0
3959422976	0	0
4026531840	0	0
4093640704	0	0
4160749568	0	0
4227858432	0	0
~~~~~~~~~~Reuse Distance Profiler output end~~~~~~~~~~

Sampler size:180048

DRAM Statistics
 CHANNEL 0
 RQ ROW_BUFFER_HIT:   84118516  ROW_BUFFER_MISS:   20107664
 DBUS AVG_CONGESTED_CYCLE:    3.43831
 WQ ROW_BUFFER_HIT:     168004  ROW_BUFFER_MISS:       6216  FULL:          0


CPU 0 Branch Prediction Accuracy: 99.0717% MPKI: 3.29907 Average ROB Occupancy at Mispredict: 120.863
Branch type MPKI
BRANCH_DIRECT_JUMP: 2.46667e-05
BRANCH_INDIRECT: 0
BRANCH_CONDITIONAL: 3.29901
BRANCH_DIRECT_CALL: 1.8e-05
BRANCH_INDIRECT_CALL: 6.66667e-07
BRANCH_RETURN: 1.86667e-05

