
*** ChampSim Multicore Out-of-Order Simulator ***

Warmup Instructions: 50000000
Simulation Instructions: 1500000000
Number of CPUs: 1
Off-chip DRAM Size: 4 GiB Channels: 1 Width: 64-bit Data Rate: 3200 MT/s

VirtualMemory physical capacity: 8588881920 num_ppages: 2096895
VirtualMemory page size: 4096 log2_page_size: 12

CPU 0 runs /s/traces/champsim_traces/603.bwaves_s-891B.champsimtrace.xz
CPU 0 Bimodal branch predictor
Basic BTB sets: 1024 ways: 8 indirect buffer size: 4096 RAS size: 64
Initializing LRU.
Initializing LRU.
Initializing LRU.
Initializing LRU.
Initializing rdLRU.
Initializing LRU.
Heartbeat CPU 0 instructions: 2000003 cycles: 500075 heartbeat IPC: 3.99941 cumulative IPC: 3.99941 (Simulation time: 0 hr 0 min 46 sec) 
Heartbeat CPU 0 instructions: 4000003 cycles: 1000075 heartbeat IPC: 4 cumulative IPC: 3.9997 (Simulation time: 0 hr 1 min 31 sec) 
Heartbeat CPU 0 instructions: 6000003 cycles: 1500075 heartbeat IPC: 4 cumulative IPC: 3.9998 (Simulation time: 0 hr 2 min 16 sec) 
Heartbeat CPU 0 instructions: 8000003 cycles: 2000075 heartbeat IPC: 4 cumulative IPC: 3.99985 (Simulation time: 0 hr 3 min 3 sec) 
Heartbeat CPU 0 instructions: 10000003 cycles: 2500075 heartbeat IPC: 4 cumulative IPC: 3.99988 (Simulation time: 0 hr 3 min 44 sec) 
Heartbeat CPU 0 instructions: 12000003 cycles: 3000075 heartbeat IPC: 4 cumulative IPC: 3.9999 (Simulation time: 0 hr 4 min 27 sec) 
Heartbeat CPU 0 instructions: 14000003 cycles: 3500075 heartbeat IPC: 4 cumulative IPC: 3.99992 (Simulation time: 0 hr 5 min 9 sec) 
Heartbeat CPU 0 instructions: 16000003 cycles: 4000075 heartbeat IPC: 4 cumulative IPC: 3.99993 (Simulation time: 0 hr 5 min 52 sec) 
Heartbeat CPU 0 instructions: 18000003 cycles: 4500075 heartbeat IPC: 4 cumulative IPC: 3.99993 (Simulation time: 0 hr 6 min 35 sec) 
Heartbeat CPU 0 instructions: 20000003 cycles: 5000075 heartbeat IPC: 4 cumulative IPC: 3.99994 (Simulation time: 0 hr 7 min 19 sec) 
Heartbeat CPU 0 instructions: 22000003 cycles: 5500075 heartbeat IPC: 4 cumulative IPC: 3.99995 (Simulation time: 0 hr 8 min 2 sec) 
Heartbeat CPU 0 instructions: 24000003 cycles: 6000075 heartbeat IPC: 4 cumulative IPC: 3.99995 (Simulation time: 0 hr 8 min 45 sec) 
Heartbeat CPU 0 instructions: 26000003 cycles: 6500075 heartbeat IPC: 4 cumulative IPC: 3.99995 (Simulation time: 0 hr 9 min 30 sec) 
Heartbeat CPU 0 instructions: 28000003 cycles: 7000075 heartbeat IPC: 4 cumulative IPC: 3.99996 (Simulation time: 0 hr 10 min 17 sec) 
Heartbeat CPU 0 instructions: 30000003 cycles: 7500075 heartbeat IPC: 4 cumulative IPC: 3.99996 (Simulation time: 0 hr 11 min 3 sec) 
Heartbeat CPU 0 instructions: 32000003 cycles: 8000075 heartbeat IPC: 4 cumulative IPC: 3.99996 (Simulation time: 0 hr 11 min 47 sec) 
Heartbeat CPU 0 instructions: 34000003 cycles: 8500075 heartbeat IPC: 4 cumulative IPC: 3.99996 (Simulation time: 0 hr 12 min 32 sec) 
Heartbeat CPU 0 instructions: 36000003 cycles: 9000075 heartbeat IPC: 4 cumulative IPC: 3.99997 (Simulation time: 0 hr 13 min 14 sec) 
Heartbeat CPU 0 instructions: 38000003 cycles: 9500075 heartbeat IPC: 4 cumulative IPC: 3.99997 (Simulation time: 0 hr 13 min 57 sec) 
Heartbeat CPU 0 instructions: 40000003 cycles: 10000075 heartbeat IPC: 4 cumulative IPC: 3.99997 (Simulation time: 0 hr 14 min 38 sec) 
Heartbeat CPU 0 instructions: 42000003 cycles: 10500075 heartbeat IPC: 4 cumulative IPC: 3.99997 (Simulation time: 0 hr 15 min 25 sec) 
Heartbeat CPU 0 instructions: 44000003 cycles: 11000075 heartbeat IPC: 4 cumulative IPC: 3.99997 (Simulation time: 0 hr 16 min 7 sec) 
Heartbeat CPU 0 instructions: 46000003 cycles: 11500075 heartbeat IPC: 4 cumulative IPC: 3.99997 (Simulation time: 0 hr 16 min 50 sec) 
Heartbeat CPU 0 instructions: 48000003 cycles: 12000075 heartbeat IPC: 4 cumulative IPC: 3.99998 (Simulation time: 0 hr 17 min 31 sec) 
Heartbeat CPU 0 instructions: 50000003 cycles: 12500075 heartbeat IPC: 4 cumulative IPC: 3.99998 (Simulation time: 0 hr 18 min 13 sec) 

Warmup complete CPU 0 instructions: 50000003 cycles: 12500075 (Simulation time: 0 hr 18 min 13 sec) 

Heartbeat CPU 0 instructions: 52000003 cycles: 14104211 heartbeat IPC: 1.24678 cumulative IPC: 1.24678 (Simulation time: 0 hr 19 min 39 sec) 

Region of Interest Statistics
cpu0_DTLB TOTAL     ACCESS:     246750  HIT:     246260  MISS:        490
cpu0_DTLB LOAD      ACCESS:     198403  HIT:     197913  MISS:        490
cpu0_DTLB RFO       ACCESS:      48347  HIT:      48347  MISS:          0
cpu0_DTLB PREFETCH  ACCESS:          0  HIT:          0  MISS:          0
cpu0_DTLB WRITEBACK ACCESS:          0  HIT:          0  MISS:          0
cpu0_ITLB TOTAL     ACCESS:     199923  HIT:     199923  MISS:          0
cpu0_ITLB LOAD      ACCESS:     199923  HIT:     199923  MISS:          0
cpu0_ITLB RFO       ACCESS:          0  HIT:          0  MISS:          0
cpu0_ITLB PREFETCH  ACCESS:          0  HIT:          0  MISS:          0
cpu0_ITLB WRITEBACK ACCESS:          0  HIT:          0  MISS:          0
cpu0_STLB TOTAL     ACCESS:        490  HIT:          3  MISS:        487
cpu0_STLB LOAD      ACCESS:        490  HIT:          3  MISS:        487
cpu0_STLB RFO       ACCESS:          0  HIT:          0  MISS:          0
cpu0_STLB PREFETCH  ACCESS:          0  HIT:          0  MISS:          0
cpu0_STLB WRITEBACK ACCESS:          0  HIT:          0  MISS:          0
cpu0_L1D TOTAL     ACCESS:     133324  HIT:     102153  MISS:      31171
cpu0_L1D LOAD      ACCESS:      82966  HIT:      51795  MISS:      31171
cpu0_L1D RFO       ACCESS:      49871  HIT:      49871  MISS:          0
cpu0_L1D PREFETCH  ACCESS:          0  HIT:          0  MISS:          0
cpu0_L1D WRITEBACK ACCESS:          0  HIT:          0  MISS:          0
cpu0_L2C TOTAL     ACCESS:      31171  HIT:          2  MISS:      31169
cpu0_L2C LOAD      ACCESS:      31171  HIT:          2  MISS:      31169
cpu0_L2C RFO       ACCESS:          0  HIT:          0  MISS:          0
cpu0_L2C PREFETCH  ACCESS:          0  HIT:          0  MISS:          0
cpu0_L2C WRITEBACK ACCESS:          0  HIT:          0  MISS:          0
LLC TOTAL     ACCESS:      31169  HIT:          4  MISS:      31165
LLC LOAD      ACCESS:      31169  HIT:          4  MISS:      31165
LLC RFO       ACCESS:          0  HIT:          0  MISS:          0
LLC PREFETCH  ACCESS:          0  HIT:          0  MISS:          0
LLC WRITEBACK ACCESS:          0  HIT:          0  MISS:          0
Heartbeat CPU 0 instructions: 54000000 cycles: 15699284 heartbeat IPC: 1.25386 cumulative IPC: 1.25031 (Simulation time: 0 hr 20 min 55 sec) 

Region of Interest Statistics
cpu0_DTLB TOTAL     ACCESS:     493695  HIT:     492714  MISS:        981
cpu0_DTLB LOAD      ACCESS:     397036  HIT:     396055  MISS:        981
cpu0_DTLB RFO       ACCESS:      96659  HIT:      96659  MISS:          0
cpu0_DTLB PREFETCH  ACCESS:          0  HIT:          0  MISS:          0
cpu0_DTLB WRITEBACK ACCESS:          0  HIT:          0  MISS:          0
cpu0_ITLB TOTAL     ACCESS:     399887  HIT:     399887  MISS:          0
cpu0_ITLB LOAD      ACCESS:     399887  HIT:     399887  MISS:          0
cpu0_ITLB RFO       ACCESS:          0  HIT:          0  MISS:          0
cpu0_ITLB PREFETCH  ACCESS:          0  HIT:          0  MISS:          0
cpu0_ITLB WRITEBACK ACCESS:          0  HIT:          0  MISS:          0
cpu0_STLB TOTAL     ACCESS:        981  HIT:          7  MISS:        974
cpu0_STLB LOAD      ACCESS:        981  HIT:          7  MISS:        974
cpu0_STLB RFO       ACCESS:          0  HIT:          0  MISS:          0
cpu0_STLB PREFETCH  ACCESS:          0  HIT:          0  MISS:          0
cpu0_STLB WRITEBACK ACCESS:          0  HIT:          0  MISS:          0
cpu0_L1D TOTAL     ACCESS:     266672  HIT:     204322  MISS:      62350
cpu0_L1D LOAD      ACCESS:     165954  HIT:     103604  MISS:      62350
cpu0_L1D RFO       ACCESS:      99744  HIT:      99744  MISS:          0
cpu0_L1D PREFETCH  ACCESS:          0  HIT:          0  MISS:          0
cpu0_L1D WRITEBACK ACCESS:          0  HIT:          0  MISS:          0
cpu0_L2C TOTAL     ACCESS:      62350  HIT:          5  MISS:      62345
cpu0_L2C LOAD      ACCESS:      62350  HIT:          5  MISS:      62345
cpu0_L2C RFO       ACCESS:          0  HIT:          0  MISS:          0
cpu0_L2C PREFETCH  ACCESS:          0  HIT:          0  MISS:          0
cpu0_L2C WRITEBACK ACCESS:          0  HIT:          0  MISS:          0
LLC TOTAL     ACCESS:      62345  HIT:          9  MISS:      62336
LLC LOAD      ACCESS:      62345  HIT:          9  MISS:      62336
LLC RFO       ACCESS:          0  HIT:          0  MISS:          0
LLC PREFETCH  ACCESS:          0  HIT:          0  MISS:          0
LLC WRITEBACK ACCESS:          0  HIT:          0  MISS:          0
Heartbeat CPU 0 instructions: 56000000 cycles: 17273683 heartbeat IPC: 1.27033 cumulative IPC: 1.25691 (Simulation time: 0 hr 22 min 16 sec) 

Region of Interest Statistics
cpu0_DTLB TOTAL     ACCESS:     740551  HIT:     739080  MISS:       1471
cpu0_DTLB LOAD      ACCESS:     595710  HIT:     594239  MISS:       1471
cpu0_DTLB RFO       ACCESS:     144841  HIT:     144841  MISS:          0
cpu0_DTLB PREFETCH  ACCESS:          0  HIT:          0  MISS:          0
cpu0_DTLB WRITEBACK ACCESS:          0  HIT:          0  MISS:          0
cpu0_ITLB TOTAL     ACCESS:     599849  HIT:     599849  MISS:          0
cpu0_ITLB LOAD      ACCESS:     599849  HIT:     599849  MISS:          0
cpu0_ITLB RFO       ACCESS:          0  HIT:          0  MISS:          0
cpu0_ITLB PREFETCH  ACCESS:          0  HIT:          0  MISS:          0
cpu0_ITLB WRITEBACK ACCESS:          0  HIT:          0  MISS:          0
cpu0_STLB TOTAL     ACCESS:       1471  HIT:         10  MISS:       1461
cpu0_STLB LOAD      ACCESS:       1471  HIT:         10  MISS:       1461
cpu0_STLB RFO       ACCESS:          0  HIT:          0  MISS:          0
cpu0_STLB PREFETCH  ACCESS:          0  HIT:          0  MISS:          0
cpu0_STLB WRITEBACK ACCESS:          0  HIT:          0  MISS:          0
cpu0_L1D TOTAL     ACCESS:     399939  HIT:     306412  MISS:      93527
cpu0_L1D LOAD      ACCESS:     248862  HIT:     155336  MISS:      93526
cpu0_L1D RFO       ACCESS:     149616  HIT:     149616  MISS:          0
cpu0_L1D PREFETCH  ACCESS:          0  HIT:          0  MISS:          0
cpu0_L1D WRITEBACK ACCESS:          0  HIT:          0  MISS:          0
cpu0_L2C TOTAL     ACCESS:      93527  HIT:          8  MISS:      93519
cpu0_L2C LOAD      ACCESS:      93526  HIT:          8  MISS:      93518
cpu0_L2C RFO       ACCESS:          0  HIT:          0  MISS:          0
cpu0_L2C PREFETCH  ACCESS:          0  HIT:          0  MISS:          0
cpu0_L2C WRITEBACK ACCESS:          0  HIT:          0  MISS:          0
LLC TOTAL     ACCESS:      93519  HIT:         12  MISS:      93507
LLC LOAD      ACCESS:      93518  HIT:         12  MISS:      93506
LLC RFO       ACCESS:          0  HIT:          0  MISS:          0
LLC PREFETCH  ACCESS:          0  HIT:          0  MISS:          0
LLC WRITEBACK ACCESS:          0  HIT:          0  MISS:          0
Heartbeat CPU 0 instructions: 58000000 cycles: 18823261 heartbeat IPC: 1.29067 cumulative IPC: 1.26518 (Simulation time: 0 hr 23 min 33 sec) 

Region of Interest Statistics
cpu0_DTLB TOTAL     ACCESS:     987018  HIT:     985056  MISS:       1962
cpu0_DTLB LOAD      ACCESS:     793876  HIT:     791914  MISS:       1962
cpu0_DTLB RFO       ACCESS:     193142  HIT:     193142  MISS:          0
cpu0_DTLB PREFETCH  ACCESS:          0  HIT:          0  MISS:          0
cpu0_DTLB WRITEBACK ACCESS:          0  HIT:          0  MISS:          0
cpu0_ITLB TOTAL     ACCESS:     799811  HIT:     799811  MISS:          0
cpu0_ITLB LOAD      ACCESS:     799811  HIT:     799811  MISS:          0
cpu0_ITLB RFO       ACCESS:          0  HIT:          0  MISS:          0
cpu0_ITLB PREFETCH  ACCESS:          0  HIT:          0  MISS:          0
cpu0_ITLB WRITEBACK ACCESS:          0  HIT:          0  MISS:          0
cpu0_STLB TOTAL     ACCESS:       1962  HIT:         14  MISS:       1948
cpu0_STLB LOAD      ACCESS:       1962  HIT:         14  MISS:       1948
cpu0_STLB RFO       ACCESS:          0  HIT:          0  MISS:          0
cpu0_STLB PREFETCH  ACCESS:          0  HIT:          0  MISS:          0
cpu0_STLB WRITEBACK ACCESS:          0  HIT:          0  MISS:          0
cpu0_L1D TOTAL     ACCESS:     533175  HIT:     408470  MISS:     124705
cpu0_L1D LOAD      ACCESS:     331739  HIT:     207035  MISS:     124704
cpu0_L1D RFO       ACCESS:     199488  HIT:     199488  MISS:          0
cpu0_L1D PREFETCH  ACCESS:          0  HIT:          0  MISS:          0
cpu0_L1D WRITEBACK ACCESS:          0  HIT:          0  MISS:          0
cpu0_L2C TOTAL     ACCESS:     124705  HIT:         11  MISS:     124694
cpu0_L2C LOAD      ACCESS:     124704  HIT:         11  MISS:     124693
cpu0_L2C RFO       ACCESS:          0  HIT:          0  MISS:          0
cpu0_L2C PREFETCH  ACCESS:          0  HIT:          0  MISS:          0
cpu0_L2C WRITEBACK ACCESS:          0  HIT:          0  MISS:          0
LLC TOTAL     ACCESS:     124694  HIT:         17  MISS:     124677
LLC LOAD      ACCESS:     124693  HIT:         17  MISS:     124676
LLC RFO       ACCESS:          0  HIT:          0  MISS:          0
LLC PREFETCH  ACCESS:          0  HIT:          0  MISS:          0
LLC WRITEBACK ACCESS:          0  HIT:          0  MISS:          0
Heartbeat CPU 0 instructions: 60000000 cycles: 20287774 heartbeat IPC: 1.36564 cumulative IPC: 1.28408 (Simulation time: 0 hr 24 min 49 sec) 

Region of Interest Statistics
cpu0_DTLB TOTAL     ACCESS:    1232952  HIT:    1230499  MISS:       2453
cpu0_DTLB LOAD      ACCESS:     991614  HIT:     989161  MISS:       2453
cpu0_DTLB RFO       ACCESS:     241338  HIT:     241338  MISS:          0
cpu0_DTLB PREFETCH  ACCESS:          0  HIT:          0  MISS:          0
cpu0_DTLB WRITEBACK ACCESS:          0  HIT:          0  MISS:          0
cpu0_ITLB TOTAL     ACCESS:     999767  HIT:     999767  MISS:          0
cpu0_ITLB LOAD      ACCESS:     999767  HIT:     999767  MISS:          0
cpu0_ITLB RFO       ACCESS:          0  HIT:          0  MISS:          0
cpu0_ITLB PREFETCH  ACCESS:          0  HIT:          0  MISS:          0
cpu0_ITLB WRITEBACK ACCESS:          0  HIT:          0  MISS:          0
cpu0_STLB TOTAL     ACCESS:       2453  HIT:         18  MISS:       2435
cpu0_STLB LOAD      ACCESS:       2453  HIT:         18  MISS:       2435
cpu0_STLB RFO       ACCESS:          0  HIT:          0  MISS:          0
cpu0_STLB PREFETCH  ACCESS:          0  HIT:          0  MISS:          0
cpu0_STLB WRITEBACK ACCESS:          0  HIT:          0  MISS:          0
cpu0_L1D TOTAL     ACCESS:     666310  HIT:     510428  MISS:     155882
cpu0_L1D LOAD      ACCESS:     414516  HIT:     258635  MISS:     155881
cpu0_L1D RFO       ACCESS:     249359  HIT:     249359  MISS:          0
cpu0_L1D PREFETCH  ACCESS:          0  HIT:          0  MISS:          0
cpu0_L1D WRITEBACK ACCESS:          0  HIT:          0  MISS:          0
cpu0_L2C TOTAL     ACCESS:     155882  HIT:         15  MISS:     155867
cpu0_L2C LOAD      ACCESS:     155881  HIT:         15  MISS:     155866
cpu0_L2C RFO       ACCESS:          0  HIT:          0  MISS:          0
cpu0_L2C PREFETCH  ACCESS:          0  HIT:          0  MISS:          0
cpu0_L2C WRITEBACK ACCESS:          0  HIT:          0  MISS:          0
LLC TOTAL     ACCESS:     155867  HIT:         21  MISS:     155846
LLC LOAD      ACCESS:     155866  HIT:         21  MISS:     155845
LLC RFO       ACCESS:          0  HIT:          0  MISS:          0
LLC PREFETCH  ACCESS:          0  HIT:          0  MISS:          0
LLC WRITEBACK ACCESS:          0  HIT:          0  MISS:          0
Heartbeat CPU 0 instructions: 62000000 cycles: 21764505 heartbeat IPC: 1.35434 cumulative IPC: 1.29528 (Simulation time: 0 hr 26 min 5 sec) 

Region of Interest Statistics
cpu0_DTLB TOTAL     ACCESS:    1478995  HIT:    1476052  MISS:       2943
cpu0_DTLB LOAD      ACCESS:    1189437  HIT:    1186494  MISS:       2943
cpu0_DTLB RFO       ACCESS:     289558  HIT:     289558  MISS:          0
cpu0_DTLB PREFETCH  ACCESS:          0  HIT:          0  MISS:          0
cpu0_DTLB WRITEBACK ACCESS:          0  HIT:          0  MISS:          0
cpu0_ITLB TOTAL     ACCESS:    1199726  HIT:    1199726  MISS:          0
cpu0_ITLB LOAD      ACCESS:    1199726  HIT:    1199726  MISS:          0
cpu0_ITLB RFO       ACCESS:          0  HIT:          0  MISS:          0
cpu0_ITLB PREFETCH  ACCESS:          0  HIT:          0  MISS:          0
cpu0_ITLB WRITEBACK ACCESS:          0  HIT:          0  MISS:          0
cpu0_STLB TOTAL     ACCESS:       2943  HIT:         21  MISS:       2922
cpu0_STLB LOAD      ACCESS:       2943  HIT:         21  MISS:       2922
cpu0_STLB RFO       ACCESS:          0  HIT:          0  MISS:          0
cpu0_STLB PREFETCH  ACCESS:          0  HIT:          0  MISS:          0
cpu0_STLB WRITEBACK ACCESS:          0  HIT:          0  MISS:          0
cpu0_L1D TOTAL     ACCESS:     799404  HIT:     612346  MISS:     187058
cpu0_L1D LOAD      ACCESS:     497251  HIT:     310194  MISS:     187057
cpu0_L1D RFO       ACCESS:     299231  HIT:     299231  MISS:          0
cpu0_L1D PREFETCH  ACCESS:          0  HIT:          0  MISS:          0
cpu0_L1D WRITEBACK ACCESS:          0  HIT:          0  MISS:          0
cpu0_L2C TOTAL     ACCESS:     187058  HIT:         16  MISS:     187042
cpu0_L2C LOAD      ACCESS:     187057  HIT:         16  MISS:     187041
cpu0_L2C RFO       ACCESS:          0  HIT:          0  MISS:          0
cpu0_L2C PREFETCH  ACCESS:          0  HIT:          0  MISS:          0
cpu0_L2C WRITEBACK ACCESS:          0  HIT:          0  MISS:          0
LLC TOTAL     ACCESS:     187042  HIT:         26  MISS:     187016
LLC LOAD      ACCESS:     187041  HIT:         26  MISS:     187015
LLC RFO       ACCESS:          0  HIT:          0  MISS:          0
LLC PREFETCH  ACCESS:          0  HIT:          0  MISS:          0
LLC WRITEBACK ACCESS:          0  HIT:          0  MISS:          0
Heartbeat CPU 0 instructions: 64000002 cycles: 23175148 heartbeat IPC: 1.41779 cumulative IPC: 1.31147 (Simulation time: 0 hr 27 min 18 sec) 

Region of Interest Statistics
cpu0_DTLB TOTAL     ACCESS:    1724657  HIT:    1721223  MISS:       3434
cpu0_DTLB LOAD      ACCESS:    1386929  HIT:    1383495  MISS:       3434
cpu0_DTLB RFO       ACCESS:     337728  HIT:     337728  MISS:          0
cpu0_DTLB PREFETCH  ACCESS:          0  HIT:          0  MISS:          0
cpu0_DTLB WRITEBACK ACCESS:          0  HIT:          0  MISS:          0
cpu0_ITLB TOTAL     ACCESS:    1399693  HIT:    1399693  MISS:          0
cpu0_ITLB LOAD      ACCESS:    1399693  HIT:    1399693  MISS:          0
cpu0_ITLB RFO       ACCESS:          0  HIT:          0  MISS:          0
cpu0_ITLB PREFETCH  ACCESS:          0  HIT:          0  MISS:          0
cpu0_ITLB WRITEBACK ACCESS:          0  HIT:          0  MISS:          0
cpu0_STLB TOTAL     ACCESS:       3434  HIT:         25  MISS:       3409
cpu0_STLB LOAD      ACCESS:       3434  HIT:         25  MISS:       3409
cpu0_STLB RFO       ACCESS:          0  HIT:          0  MISS:          0
cpu0_STLB PREFETCH  ACCESS:          0  HIT:          0  MISS:          0
cpu0_STLB WRITEBACK ACCESS:          0  HIT:          0  MISS:          0
cpu0_L1D TOTAL     ACCESS:     932462  HIT:     714225  MISS:     218237
cpu0_L1D LOAD      ACCESS:     579949  HIT:     361713  MISS:     218236
cpu0_L1D RFO       ACCESS:     349104  HIT:     349104  MISS:          0
cpu0_L1D PREFETCH  ACCESS:          0  HIT:          0  MISS:          0
cpu0_L1D WRITEBACK ACCESS:          0  HIT:          0  MISS:          0
cpu0_L2C TOTAL     ACCESS:     218237  HIT:         19  MISS:     218218
cpu0_L2C LOAD      ACCESS:     218236  HIT:         19  MISS:     218217
cpu0_L2C RFO       ACCESS:          0  HIT:          0  MISS:          0
cpu0_L2C PREFETCH  ACCESS:          0  HIT:          0  MISS:          0
cpu0_L2C WRITEBACK ACCESS:          0  HIT:          0  MISS:          0
LLC TOTAL     ACCESS:     218218  HIT:         31  MISS:     218187
LLC LOAD      ACCESS:     218217  HIT:         31  MISS:     218186
LLC RFO       ACCESS:          0  HIT:          0  MISS:          0
LLC PREFETCH  ACCESS:          0  HIT:          0  MISS:          0
LLC WRITEBACK ACCESS:          0  HIT:          0  MISS:          0
Heartbeat CPU 0 instructions: 66000002 cycles: 24554651 heartbeat IPC: 1.4498 cumulative IPC: 1.3273 (Simulation time: 0 hr 28 min 24 sec) 

Region of Interest Statistics
cpu0_DTLB TOTAL     ACCESS:    1970064  HIT:    1966140  MISS:       3924
cpu0_DTLB LOAD      ACCESS:    1584337  HIT:    1580413  MISS:       3924
cpu0_DTLB RFO       ACCESS:     385727  HIT:     385727  MISS:          0
cpu0_DTLB PREFETCH  ACCESS:          0  HIT:          0  MISS:          0
cpu0_DTLB WRITEBACK ACCESS:          0  HIT:          0  MISS:          0
cpu0_ITLB TOTAL     ACCESS:    1599652  HIT:    1599652  MISS:          0
cpu0_ITLB LOAD      ACCESS:    1599652  HIT:    1599652  MISS:          0
cpu0_ITLB RFO       ACCESS:          0  HIT:          0  MISS:          0
cpu0_ITLB PREFETCH  ACCESS:          0  HIT:          0  MISS:          0
cpu0_ITLB WRITEBACK ACCESS:          0  HIT:          0  MISS:          0
cpu0_STLB TOTAL     ACCESS:       3924  HIT:         28  MISS:       3896
cpu0_STLB LOAD      ACCESS:       3924  HIT:         28  MISS:       3896
cpu0_STLB RFO       ACCESS:          0  HIT:          0  MISS:          0
cpu0_STLB PREFETCH  ACCESS:          0  HIT:          0  MISS:          0
cpu0_STLB WRITEBACK ACCESS:          0  HIT:          0  MISS:          0
cpu0_L1D TOTAL     ACCESS:    1065458  HIT:     816045  MISS:     249413
cpu0_L1D LOAD      ACCESS:     662586  HIT:     413174  MISS:     249412
cpu0_L1D RFO       ACCESS:     398976  HIT:     398976  MISS:          0
cpu0_L1D PREFETCH  ACCESS:          0  HIT:          0  MISS:          0
cpu0_L1D WRITEBACK ACCESS:          0  HIT:          0  MISS:          0
cpu0_L2C TOTAL     ACCESS:     249413  HIT:         22  MISS:     249391
cpu0_L2C LOAD      ACCESS:     249412  HIT:         22  MISS:     249390
cpu0_L2C RFO       ACCESS:          0  HIT:          0  MISS:          0
cpu0_L2C PREFETCH  ACCESS:          0  HIT:          0  MISS:          0
cpu0_L2C WRITEBACK ACCESS:          0  HIT:          0  MISS:          0
LLC TOTAL     ACCESS:     249391  HIT:         34  MISS:     249357
LLC LOAD      ACCESS:     249390  HIT:         34  MISS:     249356
LLC RFO       ACCESS:          0  HIT:          0  MISS:          0
LLC PREFETCH  ACCESS:          0  HIT:          0  MISS:          0
LLC WRITEBACK ACCESS:          0  HIT:          0  MISS:          0
Heartbeat CPU 0 instructions: 68000003 cycles: 25917993 heartbeat IPC: 1.46698 cumulative IPC: 1.34149 (Simulation time: 0 hr 29 min 31 sec) 

Region of Interest Statistics
cpu0_DTLB TOTAL     ACCESS:    2215402  HIT:    2210987  MISS:       4415
cpu0_DTLB LOAD      ACCESS:    1781774  HIT:    1777359  MISS:       4415
cpu0_DTLB RFO       ACCESS:     433628  HIT:     433628  MISS:          0
cpu0_DTLB PREFETCH  ACCESS:          0  HIT:          0  MISS:          0
cpu0_DTLB WRITEBACK ACCESS:          0  HIT:          0  MISS:          0
cpu0_ITLB TOTAL     ACCESS:    1799614  HIT:    1799614  MISS:          0
cpu0_ITLB LOAD      ACCESS:    1799614  HIT:    1799614  MISS:          0
cpu0_ITLB RFO       ACCESS:          0  HIT:          0  MISS:          0
cpu0_ITLB PREFETCH  ACCESS:          0  HIT:          0  MISS:          0
cpu0_ITLB WRITEBACK ACCESS:          0  HIT:          0  MISS:          0
cpu0_STLB TOTAL     ACCESS:       4415  HIT:         32  MISS:       4383
cpu0_STLB LOAD      ACCESS:       4415  HIT:         32  MISS:       4383
cpu0_STLB RFO       ACCESS:          0  HIT:          0  MISS:          0
cpu0_STLB PREFETCH  ACCESS:          0  HIT:          0  MISS:          0
cpu0_STLB WRITEBACK ACCESS:          0  HIT:          0  MISS:          0
cpu0_L1D TOTAL     ACCESS:    1198418  HIT:     917827  MISS:     280591
cpu0_L1D LOAD      ACCESS:     745187  HIT:     464597  MISS:     280590
cpu0_L1D RFO       ACCESS:     448848  HIT:     448848  MISS:          0
cpu0_L1D PREFETCH  ACCESS:          0  HIT:          0  MISS:          0
cpu0_L1D WRITEBACK ACCESS:          0  HIT:          0  MISS:          0
cpu0_L2C TOTAL     ACCESS:     280591  HIT:         26  MISS:     280565
cpu0_L2C LOAD      ACCESS:     280590  HIT:         26  MISS:     280564
cpu0_L2C RFO       ACCESS:          0  HIT:          0  MISS:          0
cpu0_L2C PREFETCH  ACCESS:          0  HIT:          0  MISS:          0
cpu0_L2C WRITEBACK ACCESS:          0  HIT:          0  MISS:          0
LLC TOTAL     ACCESS:     280565  HIT:         38  MISS:     280527
LLC LOAD      ACCESS:     280564  HIT:         38  MISS:     280526
LLC RFO       ACCESS:          0  HIT:          0  MISS:          0
LLC PREFETCH  ACCESS:          0  HIT:          0  MISS:          0
LLC WRITEBACK ACCESS:          0  HIT:          0  MISS:          0
Heartbeat CPU 0 instructions: 70000003 cycles: 27278879 heartbeat IPC: 1.46963 cumulative IPC: 1.35329 (Simulation time: 0 hr 30 min 37 sec) 

Region of Interest Statistics
cpu0_DTLB TOTAL     ACCESS:    2460457  HIT:    2455552  MISS:       4905
cpu0_DTLB LOAD      ACCESS:    1978910  HIT:    1974005  MISS:       4905
cpu0_DTLB RFO       ACCESS:     481547  HIT:     481547  MISS:          0
cpu0_DTLB PREFETCH  ACCESS:          0  HIT:          0  MISS:          0
cpu0_DTLB WRITEBACK ACCESS:          0  HIT:          0  MISS:          0
cpu0_ITLB TOTAL     ACCESS:    1999575  HIT:    1999575  MISS:          0
cpu0_ITLB LOAD      ACCESS:    1999575  HIT:    1999575  MISS:          0
cpu0_ITLB RFO       ACCESS:          0  HIT:          0  MISS:          0
cpu0_ITLB PREFETCH  ACCESS:          0  HIT:          0  MISS:          0
cpu0_ITLB WRITEBACK ACCESS:          0  HIT:          0  MISS:          0
cpu0_STLB TOTAL     ACCESS:       4905  HIT:         35  MISS:       4870
cpu0_STLB LOAD      ACCESS:       4905  HIT:         35  MISS:       4870
cpu0_STLB RFO       ACCESS:          0  HIT:          0  MISS:          0
cpu0_STLB PREFETCH  ACCESS:          0  HIT:          0  MISS:          0
cpu0_STLB WRITEBACK ACCESS:          0  HIT:          0  MISS:          0
cpu0_L1D TOTAL     ACCESS:    1331380  HIT:    1019613  MISS:     311767
cpu0_L1D LOAD      ACCESS:     827790  HIT:     516024  MISS:     311766
cpu0_L1D RFO       ACCESS:     498720  HIT:     498720  MISS:          0
cpu0_L1D PREFETCH  ACCESS:          0  HIT:          0  MISS:          0
cpu0_L1D WRITEBACK ACCESS:          0  HIT:          0  MISS:          0
cpu0_L2C TOTAL     ACCESS:     311767  HIT:         29  MISS:     311738
cpu0_L2C LOAD      ACCESS:     311766  HIT:         29  MISS:     311737
cpu0_L2C RFO       ACCESS:          0  HIT:          0  MISS:          0
cpu0_L2C PREFETCH  ACCESS:          0  HIT:          0  MISS:          0
cpu0_L2C WRITEBACK ACCESS:          0  HIT:          0  MISS:          0
LLC TOTAL     ACCESS:     311738  HIT:         41  MISS:     311697
LLC LOAD      ACCESS:     311737  HIT:         41  MISS:     311696
LLC RFO       ACCESS:          0  HIT:          0  MISS:          0
LLC PREFETCH  ACCESS:          0  HIT:          0  MISS:          0
LLC WRITEBACK ACCESS:          0  HIT:          0  MISS:          0
Heartbeat CPU 0 instructions: 72000003 cycles: 28639587 heartbeat IPC: 1.46982 cumulative IPC: 1.36311 (Simulation time: 0 hr 31 min 45 sec) 

Region of Interest Statistics
cpu0_DTLB TOTAL     ACCESS:    2705488  HIT:    2700092  MISS:       5396
cpu0_DTLB LOAD      ACCESS:    2175996  HIT:    2170600  MISS:       5396
cpu0_DTLB RFO       ACCESS:     529492  HIT:     529492  MISS:          0
cpu0_DTLB PREFETCH  ACCESS:          0  HIT:          0  MISS:          0
cpu0_DTLB WRITEBACK ACCESS:          0  HIT:          0  MISS:          0
cpu0_ITLB TOTAL     ACCESS:    2199531  HIT:    2199531  MISS:          0
cpu0_ITLB LOAD      ACCESS:    2199531  HIT:    2199531  MISS:          0
cpu0_ITLB RFO       ACCESS:          0  HIT:          0  MISS:          0
cpu0_ITLB PREFETCH  ACCESS:          0  HIT:          0  MISS:          0
cpu0_ITLB WRITEBACK ACCESS:          0  HIT:          0  MISS:          0
cpu0_STLB TOTAL     ACCESS:       5396  HIT:         39  MISS:       5357
cpu0_STLB LOAD      ACCESS:       5396  HIT:         39  MISS:       5357
cpu0_STLB RFO       ACCESS:          0  HIT:          0  MISS:          0
cpu0_STLB PREFETCH  ACCESS:          0  HIT:          0  MISS:          0
cpu0_STLB WRITEBACK ACCESS:          0  HIT:          0  MISS:          0
cpu0_L1D TOTAL     ACCESS:    1464336  HIT:    1121391  MISS:     342945
cpu0_L1D LOAD      ACCESS:     910387  HIT:     567443  MISS:     342944
cpu0_L1D RFO       ACCESS:     548592  HIT:     548592  MISS:          0
cpu0_L1D PREFETCH  ACCESS:          0  HIT:          0  MISS:          0
cpu0_L1D WRITEBACK ACCESS:          0  HIT:          0  MISS:          0
cpu0_L2C TOTAL     ACCESS:     342945  HIT:         29  MISS:     342916
cpu0_L2C LOAD      ACCESS:     342944  HIT:         29  MISS:     342915
cpu0_L2C RFO       ACCESS:          0  HIT:          0  MISS:          0
cpu0_L2C PREFETCH  ACCESS:          0  HIT:          0  MISS:          0
cpu0_L2C WRITEBACK ACCESS:          0  HIT:          0  MISS:          0
LLC TOTAL     ACCESS:     342916  HIT:         49  MISS:     342867
LLC LOAD      ACCESS:     342915  HIT:         49  MISS:     342866
LLC RFO       ACCESS:          0  HIT:          0  MISS:          0
LLC PREFETCH  ACCESS:          0  HIT:          0  MISS:          0
LLC WRITEBACK ACCESS:          0  HIT:          0  MISS:          0
Heartbeat CPU 0 instructions: 74000003 cycles: 29998091 heartbeat IPC: 1.47221 cumulative IPC: 1.37158 (Simulation time: 0 hr 32 min 54 sec) 

Region of Interest Statistics
cpu0_DTLB TOTAL     ACCESS:    2950595  HIT:    2944709  MISS:       5886
cpu0_DTLB LOAD      ACCESS:    2373209  HIT:    2367323  MISS:       5886
cpu0_DTLB RFO       ACCESS:     577386  HIT:     577386  MISS:          0
cpu0_DTLB PREFETCH  ACCESS:          0  HIT:          0  MISS:          0
cpu0_DTLB WRITEBACK ACCESS:          0  HIT:          0  MISS:          0
cpu0_ITLB TOTAL     ACCESS:    2399493  HIT:    2399493  MISS:          0
cpu0_ITLB LOAD      ACCESS:    2399493  HIT:    2399493  MISS:          0
cpu0_ITLB RFO       ACCESS:          0  HIT:          0  MISS:          0
cpu0_ITLB PREFETCH  ACCESS:          0  HIT:          0  MISS:          0
cpu0_ITLB WRITEBACK ACCESS:          0  HIT:          0  MISS:          0
cpu0_STLB TOTAL     ACCESS:       5886  HIT:         42  MISS:       5844
cpu0_STLB LOAD      ACCESS:       5886  HIT:         42  MISS:       5844
cpu0_STLB RFO       ACCESS:          0  HIT:          0  MISS:          0
cpu0_STLB PREFETCH  ACCESS:          0  HIT:          0  MISS:          0
cpu0_STLB WRITEBACK ACCESS:          0  HIT:          0  MISS:          0
cpu0_L1D TOTAL     ACCESS:    1597288  HIT:    1223166  MISS:     374122
cpu0_L1D LOAD      ACCESS:     992980  HIT:     618860  MISS:     374120
cpu0_L1D RFO       ACCESS:     598464  HIT:     598464  MISS:          0
cpu0_L1D PREFETCH  ACCESS:          0  HIT:          0  MISS:          0
cpu0_L1D WRITEBACK ACCESS:          0  HIT:          0  MISS:          0
cpu0_L2C TOTAL     ACCESS:     374122  HIT:         32  MISS:     374090
cpu0_L2C LOAD      ACCESS:     374120  HIT:         32  MISS:     374088
cpu0_L2C RFO       ACCESS:          0  HIT:          0  MISS:          0
cpu0_L2C PREFETCH  ACCESS:          0  HIT:          0  MISS:          0
cpu0_L2C WRITEBACK ACCESS:          0  HIT:          0  MISS:          0
LLC TOTAL     ACCESS:     374090  HIT:         52  MISS:     374038
LLC LOAD      ACCESS:     374088  HIT:         52  MISS:     374036
LLC RFO       ACCESS:          0  HIT:          0  MISS:          0
LLC PREFETCH  ACCESS:          0  HIT:          0  MISS:          0
LLC WRITEBACK ACCESS:          0  HIT:          0  MISS:          0
Heartbeat CPU 0 instructions: 76000004 cycles: 31356852 heartbeat IPC: 1.47193 cumulative IPC: 1.37881 (Simulation time: 0 hr 33 min 59 sec) 

Region of Interest Statistics
cpu0_DTLB TOTAL     ACCESS:    3195619  HIT:    3189242  MISS:       6377
cpu0_DTLB LOAD      ACCESS:    2570338  HIT:    2563961  MISS:       6377
cpu0_DTLB RFO       ACCESS:     625281  HIT:     625281  MISS:          0
cpu0_DTLB PREFETCH  ACCESS:          0  HIT:          0  MISS:          0
cpu0_DTLB WRITEBACK ACCESS:          0  HIT:          0  MISS:          0
cpu0_ITLB TOTAL     ACCESS:    2599455  HIT:    2599455  MISS:          0
cpu0_ITLB LOAD      ACCESS:    2599455  HIT:    2599455  MISS:          0
cpu0_ITLB RFO       ACCESS:          0  HIT:          0  MISS:          0
cpu0_ITLB PREFETCH  ACCESS:          0  HIT:          0  MISS:          0
cpu0_ITLB WRITEBACK ACCESS:          0  HIT:          0  MISS:          0
cpu0_STLB TOTAL     ACCESS:       6377  HIT:         46  MISS:       6331
cpu0_STLB LOAD      ACCESS:       6377  HIT:         46  MISS:       6331
cpu0_STLB RFO       ACCESS:          0  HIT:          0  MISS:          0
cpu0_STLB PREFETCH  ACCESS:          0  HIT:          0  MISS:          0
cpu0_STLB WRITEBACK ACCESS:          0  HIT:          0  MISS:          0
cpu0_L1D TOTAL     ACCESS:    1730255  HIT:    1324955  MISS:     405300
cpu0_L1D LOAD      ACCESS:    1075588  HIT:     670290  MISS:     405298
cpu0_L1D RFO       ACCESS:     648336  HIT:     648336  MISS:          0
cpu0_L1D PREFETCH  ACCESS:          0  HIT:          0  MISS:          0
cpu0_L1D WRITEBACK ACCESS:          0  HIT:          0  MISS:          0
cpu0_L2C TOTAL     ACCESS:     405300  HIT:         35  MISS:     405265
cpu0_L2C LOAD      ACCESS:     405298  HIT:         35  MISS:     405263
cpu0_L2C RFO       ACCESS:          0  HIT:          0  MISS:          0
cpu0_L2C PREFETCH  ACCESS:          0  HIT:          0  MISS:          0
cpu0_L2C WRITEBACK ACCESS:          0  HIT:          0  MISS:          0
LLC TOTAL     ACCESS:     405265  HIT:         57  MISS:     405208
LLC LOAD      ACCESS:     405263  HIT:         57  MISS:     405206
LLC RFO       ACCESS:          0  HIT:          0  MISS:          0
LLC PREFETCH  ACCESS:          0  HIT:          0  MISS:          0
LLC WRITEBACK ACCESS:          0  HIT:          0  MISS:          0
Heartbeat CPU 0 instructions: 78000004 cycles: 32713698 heartbeat IPC: 1.47401 cumulative IPC: 1.3852 (Simulation time: 0 hr 35 min 2 sec) 

Region of Interest Statistics
cpu0_DTLB TOTAL     ACCESS:    3440793  HIT:    3433926  MISS:       6867
cpu0_DTLB LOAD      ACCESS:    2767674  HIT:    2760807  MISS:       6867
cpu0_DTLB RFO       ACCESS:     673119  HIT:     673119  MISS:          0
cpu0_DTLB PREFETCH  ACCESS:          0  HIT:          0  MISS:          0
cpu0_DTLB WRITEBACK ACCESS:          0  HIT:          0  MISS:          0
cpu0_ITLB TOTAL     ACCESS:    2799414  HIT:    2799414  MISS:          0
cpu0_ITLB LOAD      ACCESS:    2799414  HIT:    2799414  MISS:          0
cpu0_ITLB RFO       ACCESS:          0  HIT:          0  MISS:          0
cpu0_ITLB PREFETCH  ACCESS:          0  HIT:          0  MISS:          0
cpu0_ITLB WRITEBACK ACCESS:          0  HIT:          0  MISS:          0
cpu0_STLB TOTAL     ACCESS:       6867  HIT:         49  MISS:       6818
cpu0_STLB LOAD      ACCESS:       6867  HIT:         49  MISS:       6818
cpu0_STLB RFO       ACCESS:          0  HIT:          0  MISS:          0
cpu0_STLB PREFETCH  ACCESS:          0  HIT:          0  MISS:          0
cpu0_STLB WRITEBACK ACCESS:          0  HIT:          0  MISS:          0
cpu0_L1D TOTAL     ACCESS:    1863206  HIT:    1426730  MISS:     436476
cpu0_L1D LOAD      ACCESS:    1158180  HIT:     721706  MISS:     436474
cpu0_L1D RFO       ACCESS:     698208  HIT:     698208  MISS:          0
cpu0_L1D PREFETCH  ACCESS:          0  HIT:          0  MISS:          0
cpu0_L1D WRITEBACK ACCESS:          0  HIT:          0  MISS:          0
cpu0_L2C TOTAL     ACCESS:     436476  HIT:         36  MISS:     436440
cpu0_L2C LOAD      ACCESS:     436474  HIT:         36  MISS:     436438
cpu0_L2C RFO       ACCESS:          0  HIT:          0  MISS:          0
cpu0_L2C PREFETCH  ACCESS:          0  HIT:          0  MISS:          0
cpu0_L2C WRITEBACK ACCESS:          0  HIT:          0  MISS:          0
LLC TOTAL     ACCESS:     436440  HIT:         62  MISS:     436378
LLC LOAD      ACCESS:     436438  HIT:         62  MISS:     436376
LLC RFO       ACCESS:          0  HIT:          0  MISS:          0
LLC PREFETCH  ACCESS:          0  HIT:          0  MISS:          0
LLC WRITEBACK ACCESS:          0  HIT:          0  MISS:          0
Heartbeat CPU 0 instructions: 80000000 cycles: 34071088 heartbeat IPC: 1.47341 cumulative IPC: 1.39076 (Simulation time: 0 hr 36 min 4 sec) 

Region of Interest Statistics
cpu0_DTLB TOTAL     ACCESS:    3686014  HIT:    3678656  MISS:       7358
cpu0_DTLB LOAD      ACCESS:    2965064  HIT:    2957706  MISS:       7358
cpu0_DTLB RFO       ACCESS:     720950  HIT:     720950  MISS:          0
cpu0_DTLB PREFETCH  ACCESS:          0  HIT:          0  MISS:          0
cpu0_DTLB WRITEBACK ACCESS:          0  HIT:          0  MISS:          0
cpu0_ITLB TOTAL     ACCESS:    2999376  HIT:    2999376  MISS:          0
cpu0_ITLB LOAD      ACCESS:    2999376  HIT:    2999376  MISS:          0
cpu0_ITLB RFO       ACCESS:          0  HIT:          0  MISS:          0
cpu0_ITLB PREFETCH  ACCESS:          0  HIT:          0  MISS:          0
cpu0_ITLB WRITEBACK ACCESS:          0  HIT:          0  MISS:          0
cpu0_STLB TOTAL     ACCESS:       7358  HIT:         53  MISS:       7305
cpu0_STLB LOAD      ACCESS:       7358  HIT:         53  MISS:       7305
cpu0_STLB RFO       ACCESS:          0  HIT:          0  MISS:          0
cpu0_STLB PREFETCH  ACCESS:          0  HIT:          0  MISS:          0
cpu0_STLB WRITEBACK ACCESS:          0  HIT:          0  MISS:          0
cpu0_L1D TOTAL     ACCESS:    1996164  HIT:    1528510  MISS:     467654
cpu0_L1D LOAD      ACCESS:    1240779  HIT:     773127  MISS:     467652
cpu0_L1D RFO       ACCESS:     748080  HIT:     748080  MISS:          0
cpu0_L1D PREFETCH  ACCESS:          0  HIT:          0  MISS:          0
cpu0_L1D WRITEBACK ACCESS:          0  HIT:          0  MISS:          0
cpu0_L2C TOTAL     ACCESS:     467654  HIT:         39  MISS:     467615
cpu0_L2C LOAD      ACCESS:     467652  HIT:         39  MISS:     467613
cpu0_L2C RFO       ACCESS:          0  HIT:          0  MISS:          0
cpu0_L2C PREFETCH  ACCESS:          0  HIT:          0  MISS:          0
cpu0_L2C WRITEBACK ACCESS:          0  HIT:          0  MISS:          0
LLC TOTAL     ACCESS:     467615  HIT:         67  MISS:     467548
LLC LOAD      ACCESS:     467613  HIT:         67  MISS:     467546
LLC RFO       ACCESS:          0  HIT:          0  MISS:          0
LLC PREFETCH  ACCESS:          0  HIT:          0  MISS:          0
LLC WRITEBACK ACCESS:          0  HIT:          0  MISS:          0
Heartbeat CPU 0 instructions: 82000002 cycles: 35428898 heartbeat IPC: 1.47296 cumulative IPC: 1.39562 (Simulation time: 0 hr 37 min 10 sec) 

Region of Interest Statistics
cpu0_DTLB TOTAL     ACCESS:    3931075  HIT:    3923227  MISS:       7848
cpu0_DTLB LOAD      ACCESS:    3162264  HIT:    3154416  MISS:       7848
cpu0_DTLB RFO       ACCESS:     768811  HIT:     768811  MISS:          0
cpu0_DTLB PREFETCH  ACCESS:          0  HIT:          0  MISS:          0
cpu0_DTLB WRITEBACK ACCESS:          0  HIT:          0  MISS:          0
cpu0_ITLB TOTAL     ACCESS:    3199336  HIT:    3199336  MISS:          0
cpu0_ITLB LOAD      ACCESS:    3199336  HIT:    3199336  MISS:          0
cpu0_ITLB RFO       ACCESS:          0  HIT:          0  MISS:          0
cpu0_ITLB PREFETCH  ACCESS:          0  HIT:          0  MISS:          0
cpu0_ITLB WRITEBACK ACCESS:          0  HIT:          0  MISS:          0
cpu0_STLB TOTAL     ACCESS:       7848  HIT:         56  MISS:       7792
cpu0_STLB LOAD      ACCESS:       7848  HIT:         56  MISS:       7792
cpu0_STLB RFO       ACCESS:          0  HIT:          0  MISS:          0
cpu0_STLB PREFETCH  ACCESS:          0  HIT:          0  MISS:          0
cpu0_STLB WRITEBACK ACCESS:          0  HIT:          0  MISS:          0
cpu0_L1D TOTAL     ACCESS:    2129117  HIT:    1630287  MISS:     498830
cpu0_L1D LOAD      ACCESS:    1323373  HIT:     824545  MISS:     498828
cpu0_L1D RFO       ACCESS:     797952  HIT:     797952  MISS:          0
cpu0_L1D PREFETCH  ACCESS:          0  HIT:          0  MISS:          0
cpu0_L1D WRITEBACK ACCESS:          0  HIT:          0  MISS:          0
cpu0_L2C TOTAL     ACCESS:     498830  HIT:         39  MISS:     498791
cpu0_L2C LOAD      ACCESS:     498828  HIT:         39  MISS:     498789
cpu0_L2C RFO       ACCESS:          0  HIT:          0  MISS:          0
cpu0_L2C PREFETCH  ACCESS:          0  HIT:          0  MISS:          0
cpu0_L2C WRITEBACK ACCESS:          0  HIT:          0  MISS:          0
LLC TOTAL     ACCESS:     498791  HIT:         73  MISS:     498718
LLC LOAD      ACCESS:     498789  HIT:         73  MISS:     498716
LLC RFO       ACCESS:          0  HIT:          0  MISS:          0
LLC PREFETCH  ACCESS:          0  HIT:          0  MISS:          0
LLC WRITEBACK ACCESS:          0  HIT:          0  MISS:          0
Heartbeat CPU 0 instructions: 84000000 cycles: 36786623 heartbeat IPC: 1.47305 cumulative IPC: 1.39995 (Simulation time: 0 hr 38 min 15 sec) 

Region of Interest Statistics
cpu0_DTLB TOTAL     ACCESS:    4176148  HIT:    4167809  MISS:       8339
cpu0_DTLB LOAD      ACCESS:    3359479  HIT:    3351140  MISS:       8339
cpu0_DTLB RFO       ACCESS:     816669  HIT:     816669  MISS:          0
cpu0_DTLB PREFETCH  ACCESS:          0  HIT:          0  MISS:          0
cpu0_DTLB WRITEBACK ACCESS:          0  HIT:          0  MISS:          0
cpu0_ITLB TOTAL     ACCESS:    3399296  HIT:    3399296  MISS:          0
cpu0_ITLB LOAD      ACCESS:    3399296  HIT:    3399296  MISS:          0
cpu0_ITLB RFO       ACCESS:          0  HIT:          0  MISS:          0
cpu0_ITLB PREFETCH  ACCESS:          0  HIT:          0  MISS:          0
cpu0_ITLB WRITEBACK ACCESS:          0  HIT:          0  MISS:          0
cpu0_STLB TOTAL     ACCESS:       8339  HIT:         60  MISS:       8279
cpu0_STLB LOAD      ACCESS:       8339  HIT:         60  MISS:       8279
cpu0_STLB RFO       ACCESS:          0  HIT:          0  MISS:          0
cpu0_STLB PREFETCH  ACCESS:          0  HIT:          0  MISS:          0
cpu0_STLB WRITEBACK ACCESS:          0  HIT:          0  MISS:          0
cpu0_L1D TOTAL     ACCESS:    2262072  HIT:    1732064  MISS:     530008
cpu0_L1D LOAD      ACCESS:    1405969  HIT:     875963  MISS:     530006
cpu0_L1D RFO       ACCESS:     847824  HIT:     847824  MISS:          0
cpu0_L1D PREFETCH  ACCESS:          0  HIT:          0  MISS:          0
cpu0_L1D WRITEBACK ACCESS:          0  HIT:          0  MISS:          0
cpu0_L2C TOTAL     ACCESS:     530008  HIT:         44  MISS:     529964
cpu0_L2C LOAD      ACCESS:     530006  HIT:         44  MISS:     529962
cpu0_L2C RFO       ACCESS:          0  HIT:          0  MISS:          0
cpu0_L2C PREFETCH  ACCESS:          0  HIT:          0  MISS:          0
cpu0_L2C WRITEBACK ACCESS:          0  HIT:          0  MISS:          0
LLC TOTAL     ACCESS:     529964  HIT:         76  MISS:     529888
LLC LOAD      ACCESS:     529962  HIT:         76  MISS:     529886
LLC RFO       ACCESS:          0  HIT:          0  MISS:          0
LLC PREFETCH  ACCESS:          0  HIT:          0  MISS:          0
LLC WRITEBACK ACCESS:          0  HIT:          0  MISS:          0
Heartbeat CPU 0 instructions: 86000000 cycles: 38145599 heartbeat IPC: 1.4717 cumulative IPC: 1.40375 (Simulation time: 0 hr 39 min 16 sec) 

Region of Interest Statistics
cpu0_DTLB TOTAL     ACCESS:    4421082  HIT:    4412253  MISS:       8829
cpu0_DTLB LOAD      ACCESS:    3556515  HIT:    3547686  MISS:       8829
cpu0_DTLB RFO       ACCESS:     864567  HIT:     864567  MISS:          0
cpu0_DTLB PREFETCH  ACCESS:          0  HIT:          0  MISS:          0
cpu0_DTLB WRITEBACK ACCESS:          0  HIT:          0  MISS:          0
cpu0_ITLB TOTAL     ACCESS:    3599256  HIT:    3599256  MISS:          0
cpu0_ITLB LOAD      ACCESS:    3599256  HIT:    3599256  MISS:          0
cpu0_ITLB RFO       ACCESS:          0  HIT:          0  MISS:          0
cpu0_ITLB PREFETCH  ACCESS:          0  HIT:          0  MISS:          0
cpu0_ITLB WRITEBACK ACCESS:          0  HIT:          0  MISS:          0
cpu0_STLB TOTAL     ACCESS:       8829  HIT:         63  MISS:       8766
cpu0_STLB LOAD      ACCESS:       8829  HIT:         63  MISS:       8766
cpu0_STLB RFO       ACCESS:          0  HIT:          0  MISS:          0
cpu0_STLB PREFETCH  ACCESS:          0  HIT:          0  MISS:          0
cpu0_STLB WRITEBACK ACCESS:          0  HIT:          0  MISS:          0
cpu0_L1D TOTAL     ACCESS:    2395032  HIT:    1833848  MISS:     561184
cpu0_L1D LOAD      ACCESS:    1488570  HIT:     927388  MISS:     561182
cpu0_L1D RFO       ACCESS:     897696  HIT:     897696  MISS:          0
cpu0_L1D PREFETCH  ACCESS:          0  HIT:          0  MISS:          0
cpu0_L1D WRITEBACK ACCESS:          0  HIT:          0  MISS:          0
cpu0_L2C TOTAL     ACCESS:     561184  HIT:         45  MISS:     561139
cpu0_L2C LOAD      ACCESS:     561182  HIT:         45  MISS:     561137
cpu0_L2C RFO       ACCESS:          0  HIT:          0  MISS:          0
cpu0_L2C PREFETCH  ACCESS:          0  HIT:          0  MISS:          0
cpu0_L2C WRITEBACK ACCESS:          0  HIT:          0  MISS:          0
LLC TOTAL     ACCESS:     561139  HIT:         81  MISS:     561058
LLC LOAD      ACCESS:     561137  HIT:         81  MISS:     561056
LLC RFO       ACCESS:          0  HIT:          0  MISS:          0
LLC PREFETCH  ACCESS:          0  HIT:          0  MISS:          0
LLC WRITEBACK ACCESS:          0  HIT:          0  MISS:          0
Heartbeat CPU 0 instructions: 88000001 cycles: 39502763 heartbeat IPC: 1.47366 cumulative IPC: 1.40727 (Simulation time: 0 hr 40 min 24 sec) 

Region of Interest Statistics
cpu0_DTLB TOTAL     ACCESS:    4666220  HIT:    4656900  MISS:       9320
cpu0_DTLB LOAD      ACCESS:    3753805  HIT:    3744485  MISS:       9320
cpu0_DTLB RFO       ACCESS:     912415  HIT:     912415  MISS:          0
cpu0_DTLB PREFETCH  ACCESS:          0  HIT:          0  MISS:          0
cpu0_DTLB WRITEBACK ACCESS:          0  HIT:          0  MISS:          0
cpu0_ITLB TOTAL     ACCESS:    3799217  HIT:    3799217  MISS:          0
cpu0_ITLB LOAD      ACCESS:    3799217  HIT:    3799217  MISS:          0
cpu0_ITLB RFO       ACCESS:          0  HIT:          0  MISS:          0
cpu0_ITLB PREFETCH  ACCESS:          0  HIT:          0  MISS:          0
cpu0_ITLB WRITEBACK ACCESS:          0  HIT:          0  MISS:          0
cpu0_STLB TOTAL     ACCESS:       9320  HIT:         67  MISS:       9253
cpu0_STLB LOAD      ACCESS:       9320  HIT:         67  MISS:       9253
cpu0_STLB RFO       ACCESS:          0  HIT:          0  MISS:          0
cpu0_STLB PREFETCH  ACCESS:          0  HIT:          0  MISS:          0
cpu0_STLB WRITEBACK ACCESS:          0  HIT:          0  MISS:          0
cpu0_L1D TOTAL     ACCESS:    2527993  HIT:    1935631  MISS:     592362
cpu0_L1D LOAD      ACCESS:    1571171  HIT:     978811  MISS:     592360
cpu0_L1D RFO       ACCESS:     947568  HIT:     947568  MISS:          0
cpu0_L1D PREFETCH  ACCESS:          0  HIT:          0  MISS:          0
cpu0_L1D WRITEBACK ACCESS:          0  HIT:          0  MISS:          0
cpu0_L2C TOTAL     ACCESS:     592362  HIT:         46  MISS:     592316
cpu0_L2C LOAD      ACCESS:     592360  HIT:         46  MISS:     592314
cpu0_L2C RFO       ACCESS:          0  HIT:          0  MISS:          0
cpu0_L2C PREFETCH  ACCESS:          0  HIT:          0  MISS:          0
cpu0_L2C WRITEBACK ACCESS:          0  HIT:          0  MISS:          0
LLC TOTAL     ACCESS:     592316  HIT:         88  MISS:     592228
LLC LOAD      ACCESS:     592314  HIT:         88  MISS:     592226
LLC RFO       ACCESS:          0  HIT:          0  MISS:          0
LLC PREFETCH  ACCESS:          0  HIT:          0  MISS:          0
LLC WRITEBACK ACCESS:          0  HIT:          0  MISS:          0
Heartbeat CPU 0 instructions: 90000003 cycles: 40861525 heartbeat IPC: 1.47193 cumulative IPC: 1.41037 (Simulation time: 0 hr 41 min 31 sec) 

Region of Interest Statistics
cpu0_DTLB TOTAL     ACCESS:    4911225  HIT:    4901414  MISS:       9811
cpu0_DTLB LOAD      ACCESS:    3950931  HIT:    3941120  MISS:       9811
cpu0_DTLB RFO       ACCESS:     960294  HIT:     960294  MISS:          0
cpu0_DTLB PREFETCH  ACCESS:          0  HIT:          0  MISS:          0
cpu0_DTLB WRITEBACK ACCESS:          0  HIT:          0  MISS:          0
cpu0_ITLB TOTAL     ACCESS:    3999193  HIT:    3999193  MISS:          0
cpu0_ITLB LOAD      ACCESS:    3999193  HIT:    3999193  MISS:          0
cpu0_ITLB RFO       ACCESS:          0  HIT:          0  MISS:          0
cpu0_ITLB PREFETCH  ACCESS:          0  HIT:          0  MISS:          0
cpu0_ITLB WRITEBACK ACCESS:          0  HIT:          0  MISS:          0
cpu0_STLB TOTAL     ACCESS:       9811  HIT:         70  MISS:       9741
cpu0_STLB LOAD      ACCESS:       9811  HIT:         70  MISS:       9741
cpu0_STLB RFO       ACCESS:          0  HIT:          0  MISS:          0
cpu0_STLB PREFETCH  ACCESS:          0  HIT:          0  MISS:          0
cpu0_STLB WRITEBACK ACCESS:          0  HIT:          0  MISS:          0
cpu0_L1D TOTAL     ACCESS:    2660953  HIT:    2037413  MISS:     623540
cpu0_L1D LOAD      ACCESS:    1653772  HIT:    1030235  MISS:     623537
cpu0_L1D RFO       ACCESS:     997440  HIT:     997440  MISS:          0
cpu0_L1D PREFETCH  ACCESS:          0  HIT:          0  MISS:          0
cpu0_L1D WRITEBACK ACCESS:          0  HIT:          0  MISS:          0
cpu0_L2C TOTAL     ACCESS:     623540  HIT:         49  MISS:     623491
cpu0_L2C LOAD      ACCESS:     623537  HIT:         49  MISS:     623488
cpu0_L2C RFO       ACCESS:          0  HIT:          0  MISS:          0
cpu0_L2C PREFETCH  ACCESS:          0  HIT:          0  MISS:          0
cpu0_L2C WRITEBACK ACCESS:          0  HIT:          0  MISS:          0
LLC TOTAL     ACCESS:     623491  HIT:         91  MISS:     623400
LLC LOAD      ACCESS:     623488  HIT:         91  MISS:     623397
LLC RFO       ACCESS:          0  HIT:          0  MISS:          0
LLC PREFETCH  ACCESS:          0  HIT:          0  MISS:          0
LLC WRITEBACK ACCESS:          0  HIT:          0  MISS:          0
Heartbeat CPU 0 instructions: 92000004 cycles: 42219351 heartbeat IPC: 1.47294 cumulative IPC: 1.41322 (Simulation time: 0 hr 42 min 37 sec) 

Region of Interest Statistics
cpu0_DTLB TOTAL     ACCESS:    5156298  HIT:    5145996  MISS:      10302
cpu0_DTLB LOAD      ACCESS:    4148142  HIT:    4137840  MISS:      10302
cpu0_DTLB RFO       ACCESS:    1008156  HIT:    1008156  MISS:          0
cpu0_DTLB PREFETCH  ACCESS:          0  HIT:          0  MISS:          0
cpu0_DTLB WRITEBACK ACCESS:          0  HIT:          0  MISS:          0
cpu0_ITLB TOTAL     ACCESS:    4199144  HIT:    4199144  MISS:          0
cpu0_ITLB LOAD      ACCESS:    4199144  HIT:    4199144  MISS:          0
cpu0_ITLB RFO       ACCESS:          0  HIT:          0  MISS:          0
cpu0_ITLB PREFETCH  ACCESS:          0  HIT:          0  MISS:          0
cpu0_ITLB WRITEBACK ACCESS:          0  HIT:          0  MISS:          0
cpu0_STLB TOTAL     ACCESS:      10302  HIT:         74  MISS:      10228
cpu0_STLB LOAD      ACCESS:      10302  HIT:         74  MISS:      10228
cpu0_STLB RFO       ACCESS:          0  HIT:          0  MISS:          0
cpu0_STLB PREFETCH  ACCESS:          0  HIT:          0  MISS:          0
cpu0_STLB WRITEBACK ACCESS:          0  HIT:          0  MISS:          0
cpu0_L1D TOTAL     ACCESS:    2793907  HIT:    2139187  MISS:     654720
cpu0_L1D LOAD      ACCESS:    1736367  HIT:    1081650  MISS:     654717
cpu0_L1D RFO       ACCESS:    1047312  HIT:    1047312  MISS:          0
cpu0_L1D PREFETCH  ACCESS:          0  HIT:          0  MISS:          0
cpu0_L1D WRITEBACK ACCESS:          0  HIT:          0  MISS:          0
cpu0_L2C TOTAL     ACCESS:     654720  HIT:         51  MISS:     654669
cpu0_L2C LOAD      ACCESS:     654717  HIT:         51  MISS:     654666
cpu0_L2C RFO       ACCESS:          0  HIT:          0  MISS:          0
cpu0_L2C PREFETCH  ACCESS:          0  HIT:          0  MISS:          0
cpu0_L2C WRITEBACK ACCESS:          0  HIT:          0  MISS:          0
LLC TOTAL     ACCESS:     654669  HIT:         97  MISS:     654572
LLC LOAD      ACCESS:     654666  HIT:         97  MISS:     654569
LLC RFO       ACCESS:          0  HIT:          0  MISS:          0
LLC PREFETCH  ACCESS:          0  HIT:          0  MISS:          0
LLC WRITEBACK ACCESS:          0  HIT:          0  MISS:          0
Heartbeat CPU 0 instructions: 94000004 cycles: 43576827 heartbeat IPC: 1.47332 cumulative IPC: 1.41585 (Simulation time: 0 hr 43 min 48 sec) 

Region of Interest Statistics
cpu0_DTLB TOTAL     ACCESS:    5401383  HIT:    5390591  MISS:      10792
cpu0_DTLB LOAD      ACCESS:    4345367  HIT:    4334575  MISS:      10792
cpu0_DTLB RFO       ACCESS:    1056016  HIT:    1056016  MISS:          0
cpu0_DTLB PREFETCH  ACCESS:          0  HIT:          0  MISS:          0
cpu0_DTLB WRITEBACK ACCESS:          0  HIT:          0  MISS:          0
cpu0_ITLB TOTAL     ACCESS:    4399096  HIT:    4399096  MISS:          0
cpu0_ITLB LOAD      ACCESS:    4399096  HIT:    4399096  MISS:          0
cpu0_ITLB RFO       ACCESS:          0  HIT:          0  MISS:          0
cpu0_ITLB PREFETCH  ACCESS:          0  HIT:          0  MISS:          0
cpu0_ITLB WRITEBACK ACCESS:          0  HIT:          0  MISS:          0
cpu0_STLB TOTAL     ACCESS:      10792  HIT:         77  MISS:      10715
cpu0_STLB LOAD      ACCESS:      10792  HIT:         77  MISS:      10715
cpu0_STLB RFO       ACCESS:          0  HIT:          0  MISS:          0
cpu0_STLB PREFETCH  ACCESS:          0  HIT:          0  MISS:          0
cpu0_STLB WRITEBACK ACCESS:          0  HIT:          0  MISS:          0
cpu0_L1D TOTAL     ACCESS:    2926858  HIT:    2240964  MISS:     685894
cpu0_L1D LOAD      ACCESS:    1818959  HIT:    1133068  MISS:     685891
cpu0_L1D RFO       ACCESS:    1097184  HIT:    1097184  MISS:          0
cpu0_L1D PREFETCH  ACCESS:          0  HIT:          0  MISS:          0
cpu0_L1D WRITEBACK ACCESS:          0  HIT:          0  MISS:          0
cpu0_L2C TOTAL     ACCESS:     685894  HIT:         52  MISS:     685842
cpu0_L2C LOAD      ACCESS:     685891  HIT:         52  MISS:     685839
cpu0_L2C RFO       ACCESS:          0  HIT:          0  MISS:          0
cpu0_L2C PREFETCH  ACCESS:          0  HIT:          0  MISS:          0
cpu0_L2C WRITEBACK ACCESS:          0  HIT:          0  MISS:          0
LLC TOTAL     ACCESS:     685842  HIT:        102  MISS:     685740
LLC LOAD      ACCESS:     685839  HIT:        102  MISS:     685737
LLC RFO       ACCESS:          0  HIT:          0  MISS:          0
LLC PREFETCH  ACCESS:          0  HIT:          0  MISS:          0
LLC WRITEBACK ACCESS:          0  HIT:          0  MISS:          0
Heartbeat CPU 0 instructions: 96000000 cycles: 44935400 heartbeat IPC: 1.47213 cumulative IPC: 1.41821 (Simulation time: 0 hr 44 min 57 sec) 

Region of Interest Statistics
cpu0_DTLB TOTAL     ACCESS:    5646409  HIT:    5635126  MISS:      11283
cpu0_DTLB LOAD      ACCESS:    4542511  HIT:    4531228  MISS:      11283
cpu0_DTLB RFO       ACCESS:    1103898  HIT:    1103898  MISS:          0
cpu0_DTLB PREFETCH  ACCESS:          0  HIT:          0  MISS:          0
cpu0_DTLB WRITEBACK ACCESS:          0  HIT:          0  MISS:          0
cpu0_ITLB TOTAL     ACCESS:    4599076  HIT:    4599076  MISS:          0
cpu0_ITLB LOAD      ACCESS:    4599076  HIT:    4599076  MISS:          0
cpu0_ITLB RFO       ACCESS:          0  HIT:          0  MISS:          0
cpu0_ITLB PREFETCH  ACCESS:          0  HIT:          0  MISS:          0
cpu0_ITLB WRITEBACK ACCESS:          0  HIT:          0  MISS:          0
cpu0_STLB TOTAL     ACCESS:      11283  HIT:         81  MISS:      11202
cpu0_STLB LOAD      ACCESS:      11283  HIT:         81  MISS:      11202
cpu0_STLB RFO       ACCESS:          0  HIT:          0  MISS:          0
cpu0_STLB PREFETCH  ACCESS:          0  HIT:          0  MISS:          0
cpu0_STLB WRITEBACK ACCESS:          0  HIT:          0  MISS:          0
cpu0_L1D TOTAL     ACCESS:    3059822  HIT:    2342749  MISS:     717073
cpu0_L1D LOAD      ACCESS:    1901564  HIT:    1184494  MISS:     717070
cpu0_L1D RFO       ACCESS:    1147056  HIT:    1147056  MISS:          0
cpu0_L1D PREFETCH  ACCESS:          0  HIT:          0  MISS:          0
cpu0_L1D WRITEBACK ACCESS:          0  HIT:          0  MISS:          0
cpu0_L2C TOTAL     ACCESS:     717073  HIT:         54  MISS:     717019
cpu0_L2C LOAD      ACCESS:     717070  HIT:         54  MISS:     717016
cpu0_L2C RFO       ACCESS:          0  HIT:          0  MISS:          0
cpu0_L2C PREFETCH  ACCESS:          0  HIT:          0  MISS:          0
cpu0_L2C WRITEBACK ACCESS:          0  HIT:          0  MISS:          0
LLC TOTAL     ACCESS:     717019  HIT:        108  MISS:     716911
LLC LOAD      ACCESS:     717016  HIT:        108  MISS:     716908
LLC RFO       ACCESS:          0  HIT:          0  MISS:          0
LLC PREFETCH  ACCESS:          0  HIT:          0  MISS:          0
LLC WRITEBACK ACCESS:          0  HIT:          0  MISS:          0
Heartbeat CPU 0 instructions: 98000000 cycles: 46292752 heartbeat IPC: 1.47346 cumulative IPC: 1.42043 (Simulation time: 0 hr 46 min 8 sec) 

Region of Interest Statistics
cpu0_DTLB TOTAL     ACCESS:    5891533  HIT:    5879760  MISS:      11773
cpu0_DTLB LOAD      ACCESS:    4739783  HIT:    4728010  MISS:      11773
cpu0_DTLB RFO       ACCESS:    1151750  HIT:    1151750  MISS:          0
cpu0_DTLB PREFETCH  ACCESS:          0  HIT:          0  MISS:          0
cpu0_DTLB WRITEBACK ACCESS:          0  HIT:          0  MISS:          0
cpu0_ITLB TOTAL     ACCESS:    4799030  HIT:    4799030  MISS:          0
cpu0_ITLB LOAD      ACCESS:    4799030  HIT:    4799030  MISS:          0
cpu0_ITLB RFO       ACCESS:          0  HIT:          0  MISS:          0
cpu0_ITLB PREFETCH  ACCESS:          0  HIT:          0  MISS:          0
cpu0_ITLB WRITEBACK ACCESS:          0  HIT:          0  MISS:          0
cpu0_STLB TOTAL     ACCESS:      11773  HIT:         84  MISS:      11689
cpu0_STLB LOAD      ACCESS:      11773  HIT:         84  MISS:      11689
cpu0_STLB RFO       ACCESS:          0  HIT:          0  MISS:          0
cpu0_STLB PREFETCH  ACCESS:          0  HIT:          0  MISS:          0
cpu0_STLB WRITEBACK ACCESS:          0  HIT:          0  MISS:          0
cpu0_L1D TOTAL     ACCESS:    3192779  HIT:    2444530  MISS:     748249
cpu0_L1D LOAD      ACCESS:    1984162  HIT:    1235916  MISS:     748246
cpu0_L1D RFO       ACCESS:    1196928  HIT:    1196928  MISS:          0
cpu0_L1D PREFETCH  ACCESS:          0  HIT:          0  MISS:          0
cpu0_L1D WRITEBACK ACCESS:          0  HIT:          0  MISS:          0
cpu0_L2C TOTAL     ACCESS:     748249  HIT:         56  MISS:     748193
cpu0_L2C LOAD      ACCESS:     748246  HIT:         56  MISS:     748190
cpu0_L2C RFO       ACCESS:          0  HIT:          0  MISS:          0
cpu0_L2C PREFETCH  ACCESS:          0  HIT:          0  MISS:          0
cpu0_L2C WRITEBACK ACCESS:          0  HIT:          0  MISS:          0
LLC TOTAL     ACCESS:     748193  HIT:        112  MISS:     748081
LLC LOAD      ACCESS:     748190  HIT:        112  MISS:     748078
LLC RFO       ACCESS:          0  HIT:          0  MISS:          0
LLC PREFETCH  ACCESS:          0  HIT:          0  MISS:          0
LLC WRITEBACK ACCESS:          0  HIT:          0  MISS:          0
Heartbeat CPU 0 instructions: 100000000 cycles: 47650550 heartbeat IPC: 1.47297 cumulative IPC: 1.42246 (Simulation time: 0 hr 47 min 15 sec) 

Region of Interest Statistics
cpu0_DTLB TOTAL     ACCESS:    6136584  HIT:    6124320  MISS:      12264
cpu0_DTLB LOAD      ACCESS:    4936962  HIT:    4924698  MISS:      12264
cpu0_DTLB RFO       ACCESS:    1199622  HIT:    1199622  MISS:          0
cpu0_DTLB PREFETCH  ACCESS:          0  HIT:          0  MISS:          0
cpu0_DTLB WRITEBACK ACCESS:          0  HIT:          0  MISS:          0
cpu0_ITLB TOTAL     ACCESS:    4998982  HIT:    4998982  MISS:          0
cpu0_ITLB LOAD      ACCESS:    4998982  HIT:    4998982  MISS:          0
cpu0_ITLB RFO       ACCESS:          0  HIT:          0  MISS:          0
cpu0_ITLB PREFETCH  ACCESS:          0  HIT:          0  MISS:          0
cpu0_ITLB WRITEBACK ACCESS:          0  HIT:          0  MISS:          0
cpu0_STLB TOTAL     ACCESS:      12264  HIT:         88  MISS:      12176
cpu0_STLB LOAD      ACCESS:      12264  HIT:         88  MISS:      12176
cpu0_STLB RFO       ACCESS:          0  HIT:          0  MISS:          0
cpu0_STLB PREFETCH  ACCESS:          0  HIT:          0  MISS:          0
cpu0_STLB WRITEBACK ACCESS:          0  HIT:          0  MISS:          0
cpu0_L1D TOTAL     ACCESS:    3325731  HIT:    2546305  MISS:     779426
cpu0_L1D LOAD      ACCESS:    2066755  HIT:    1287332  MISS:     779423
cpu0_L1D RFO       ACCESS:    1246800  HIT:    1246800  MISS:          0
cpu0_L1D PREFETCH  ACCESS:          0  HIT:          0  MISS:          0
cpu0_L1D WRITEBACK ACCESS:          0  HIT:          0  MISS:          0
cpu0_L2C TOTAL     ACCESS:     779426  HIT:         57  MISS:     779369
cpu0_L2C LOAD      ACCESS:     779423  HIT:         57  MISS:     779366
cpu0_L2C RFO       ACCESS:          0  HIT:          0  MISS:          0
cpu0_L2C PREFETCH  ACCESS:          0  HIT:          0  MISS:          0
cpu0_L2C WRITEBACK ACCESS:          0  HIT:          0  MISS:          0
LLC TOTAL     ACCESS:     779369  HIT:        119  MISS:     779250
LLC LOAD      ACCESS:     779366  HIT:        119  MISS:     779247
LLC RFO       ACCESS:          0  HIT:          0  MISS:          0
LLC PREFETCH  ACCESS:          0  HIT:          0  MISS:          0
LLC WRITEBACK ACCESS:          0  HIT:          0  MISS:          0
Heartbeat CPU 0 instructions: 102000001 cycles: 49008568 heartbeat IPC: 1.47274 cumulative IPC: 1.42433 (Simulation time: 0 hr 48 min 21 sec) 

Region of Interest Statistics
cpu0_DTLB TOTAL     ACCESS:    6381627  HIT:    6368872  MISS:      12755
cpu0_DTLB LOAD      ACCESS:    5134128  HIT:    5121373  MISS:      12755
cpu0_DTLB RFO       ACCESS:    1247499  HIT:    1247499  MISS:          0
cpu0_DTLB PREFETCH  ACCESS:          0  HIT:          0  MISS:          0
cpu0_DTLB WRITEBACK ACCESS:          0  HIT:          0  MISS:          0
cpu0_ITLB TOTAL     ACCESS:    5198940  HIT:    5198940  MISS:          0
cpu0_ITLB LOAD      ACCESS:    5198940  HIT:    5198940  MISS:          0
cpu0_ITLB RFO       ACCESS:          0  HIT:          0  MISS:          0
cpu0_ITLB PREFETCH  ACCESS:          0  HIT:          0  MISS:          0
cpu0_ITLB WRITEBACK ACCESS:          0  HIT:          0  MISS:          0
cpu0_STLB TOTAL     ACCESS:      12755  HIT:         92  MISS:      12663
cpu0_STLB LOAD      ACCESS:      12755  HIT:         92  MISS:      12663
cpu0_STLB RFO       ACCESS:          0  HIT:          0  MISS:          0
cpu0_STLB PREFETCH  ACCESS:          0  HIT:          0  MISS:          0
cpu0_STLB WRITEBACK ACCESS:          0  HIT:          0  MISS:          0
cpu0_L1D TOTAL     ACCESS:    3458688  HIT:    2648085  MISS:     810603
cpu0_L1D LOAD      ACCESS:    2149353  HIT:    1338753  MISS:     810600
cpu0_L1D RFO       ACCESS:    1296672  HIT:    1296672  MISS:          0
cpu0_L1D PREFETCH  ACCESS:          0  HIT:          0  MISS:          0
cpu0_L1D WRITEBACK ACCESS:          0  HIT:          0  MISS:          0
cpu0_L2C TOTAL     ACCESS:     810603  HIT:         61  MISS:     810542
cpu0_L2C LOAD      ACCESS:     810600  HIT:         61  MISS:     810539
cpu0_L2C RFO       ACCESS:          0  HIT:          0  MISS:          0
cpu0_L2C PREFETCH  ACCESS:          0  HIT:          0  MISS:          0
cpu0_L2C WRITEBACK ACCESS:          0  HIT:          0  MISS:          0
LLC TOTAL     ACCESS:     810542  HIT:        123  MISS:     810419
LLC LOAD      ACCESS:     810539  HIT:        123  MISS:     810416
LLC RFO       ACCESS:          0  HIT:          0  MISS:          0
LLC PREFETCH  ACCESS:          0  HIT:          0  MISS:          0
LLC WRITEBACK ACCESS:          0  HIT:          0  MISS:          0
Heartbeat CPU 0 instructions: 104000001 cycles: 50365754 heartbeat IPC: 1.47364 cumulative IPC: 1.42609 (Simulation time: 0 hr 49 min 31 sec) 

Region of Interest Statistics
cpu0_DTLB TOTAL     ACCESS:    6626762  HIT:    6613517  MISS:      13245
cpu0_DTLB LOAD      ACCESS:    5331408  HIT:    5318163  MISS:      13245
cpu0_DTLB RFO       ACCESS:    1295354  HIT:    1295354  MISS:          0
cpu0_DTLB PREFETCH  ACCESS:          0  HIT:          0  MISS:          0
cpu0_DTLB WRITEBACK ACCESS:          0  HIT:          0  MISS:          0
cpu0_ITLB TOTAL     ACCESS:    5398901  HIT:    5398901  MISS:          0
cpu0_ITLB LOAD      ACCESS:    5398901  HIT:    5398901  MISS:          0
cpu0_ITLB RFO       ACCESS:          0  HIT:          0  MISS:          0
cpu0_ITLB PREFETCH  ACCESS:          0  HIT:          0  MISS:          0
cpu0_ITLB WRITEBACK ACCESS:          0  HIT:          0  MISS:          0
cpu0_STLB TOTAL     ACCESS:      13245  HIT:         95  MISS:      13150
cpu0_STLB LOAD      ACCESS:      13245  HIT:         95  MISS:      13150
cpu0_STLB RFO       ACCESS:          0  HIT:          0  MISS:          0
cpu0_STLB PREFETCH  ACCESS:          0  HIT:          0  MISS:          0
cpu0_STLB WRITEBACK ACCESS:          0  HIT:          0  MISS:          0
cpu0_L1D TOTAL     ACCESS:    3591641  HIT:    2749862  MISS:     841779
cpu0_L1D LOAD      ACCESS:    2231947  HIT:    1390171  MISS:     841776
cpu0_L1D RFO       ACCESS:    1346544  HIT:    1346544  MISS:          0
cpu0_L1D PREFETCH  ACCESS:          0  HIT:          0  MISS:          0
cpu0_L1D WRITEBACK ACCESS:          0  HIT:          0  MISS:          0
cpu0_L2C TOTAL     ACCESS:     841779  HIT:         62  MISS:     841717
cpu0_L2C LOAD      ACCESS:     841776  HIT:         62  MISS:     841714
cpu0_L2C RFO       ACCESS:          0  HIT:          0  MISS:          0
cpu0_L2C PREFETCH  ACCESS:          0  HIT:          0  MISS:          0
cpu0_L2C WRITEBACK ACCESS:          0  HIT:          0  MISS:          0
LLC TOTAL     ACCESS:     841717  HIT:        128  MISS:     841589
LLC LOAD      ACCESS:     841714  HIT:        128  MISS:     841586
LLC RFO       ACCESS:          0  HIT:          0  MISS:          0
LLC PREFETCH  ACCESS:          0  HIT:          0  MISS:          0
LLC WRITEBACK ACCESS:          0  HIT:          0  MISS:          0
Heartbeat CPU 0 instructions: 106000002 cycles: 51724063 heartbeat IPC: 1.47242 cumulative IPC: 1.4277 (Simulation time: 0 hr 50 min 41 sec) 

Region of Interest Statistics
cpu0_DTLB TOTAL     ACCESS:    6871819  HIT:    6858083  MISS:      13736
cpu0_DTLB LOAD      ACCESS:    5528601  HIT:    5514865  MISS:      13736
cpu0_DTLB RFO       ACCESS:    1343218  HIT:    1343218  MISS:          0
cpu0_DTLB PREFETCH  ACCESS:          0  HIT:          0  MISS:          0
cpu0_DTLB WRITEBACK ACCESS:          0  HIT:          0  MISS:          0
cpu0_ITLB TOTAL     ACCESS:    5598863  HIT:    5598863  MISS:          0
cpu0_ITLB LOAD      ACCESS:    5598863  HIT:    5598863  MISS:          0
cpu0_ITLB RFO       ACCESS:          0  HIT:          0  MISS:          0
cpu0_ITLB PREFETCH  ACCESS:          0  HIT:          0  MISS:          0
cpu0_ITLB WRITEBACK ACCESS:          0  HIT:          0  MISS:          0
cpu0_STLB TOTAL     ACCESS:      13736  HIT:         99  MISS:      13637
cpu0_STLB LOAD      ACCESS:      13736  HIT:         99  MISS:      13637
cpu0_STLB RFO       ACCESS:          0  HIT:          0  MISS:          0
cpu0_STLB PREFETCH  ACCESS:          0  HIT:          0  MISS:          0
cpu0_STLB WRITEBACK ACCESS:          0  HIT:          0  MISS:          0
cpu0_L1D TOTAL     ACCESS:    3724600  HIT:    2851642  MISS:     872958
cpu0_L1D LOAD      ACCESS:    2314547  HIT:    1441593  MISS:     872954
cpu0_L1D RFO       ACCESS:    1396416  HIT:    1396416  MISS:          0
cpu0_L1D PREFETCH  ACCESS:          0  HIT:          0  MISS:          0
cpu0_L1D WRITEBACK ACCESS:          0  HIT:          0  MISS:          0
cpu0_L2C TOTAL     ACCESS:     872958  HIT:         64  MISS:     872894
cpu0_L2C LOAD      ACCESS:     872954  HIT:         64  MISS:     872890
cpu0_L2C RFO       ACCESS:          0  HIT:          0  MISS:          0
cpu0_L2C PREFETCH  ACCESS:          0  HIT:          0  MISS:          0
cpu0_L2C WRITEBACK ACCESS:          0  HIT:          0  MISS:          0
LLC TOTAL     ACCESS:     872894  HIT:        134  MISS:     872760
LLC LOAD      ACCESS:     872890  HIT:        134  MISS:     872756
LLC RFO       ACCESS:          0  HIT:          0  MISS:          0
LLC PREFETCH  ACCESS:          0  HIT:          0  MISS:          0
LLC WRITEBACK ACCESS:          0  HIT:          0  MISS:          0
Heartbeat CPU 0 instructions: 108000001 cycles: 53081584 heartbeat IPC: 1.47327 cumulative IPC: 1.42922 (Simulation time: 0 hr 51 min 46 sec) 

Region of Interest Statistics
cpu0_DTLB TOTAL     ACCESS:    7116916  HIT:    7102690  MISS:      14226
cpu0_DTLB LOAD      ACCESS:    5725847  HIT:    5711621  MISS:      14226
cpu0_DTLB RFO       ACCESS:    1391069  HIT:    1391069  MISS:          0
cpu0_DTLB PREFETCH  ACCESS:          0  HIT:          0  MISS:          0
cpu0_DTLB WRITEBACK ACCESS:          0  HIT:          0  MISS:          0
cpu0_ITLB TOTAL     ACCESS:    5798816  HIT:    5798816  MISS:          0
cpu0_ITLB LOAD      ACCESS:    5798816  HIT:    5798816  MISS:          0
cpu0_ITLB RFO       ACCESS:          0  HIT:          0  MISS:          0
cpu0_ITLB PREFETCH  ACCESS:          0  HIT:          0  MISS:          0
cpu0_ITLB WRITEBACK ACCESS:          0  HIT:          0  MISS:          0
cpu0_STLB TOTAL     ACCESS:      14226  HIT:        102  MISS:      14124
cpu0_STLB LOAD      ACCESS:      14226  HIT:        102  MISS:      14124
cpu0_STLB RFO       ACCESS:          0  HIT:          0  MISS:          0
cpu0_STLB PREFETCH  ACCESS:          0  HIT:          0  MISS:          0
cpu0_STLB WRITEBACK ACCESS:          0  HIT:          0  MISS:          0
cpu0_L1D TOTAL     ACCESS:    3857559  HIT:    2953425  MISS:     904134
cpu0_L1D LOAD      ACCESS:    2397147  HIT:    1493017  MISS:     904130
cpu0_L1D RFO       ACCESS:    1446288  HIT:    1446288  MISS:          0
cpu0_L1D PREFETCH  ACCESS:          0  HIT:          0  MISS:          0
cpu0_L1D WRITEBACK ACCESS:          0  HIT:          0  MISS:          0
cpu0_L2C TOTAL     ACCESS:     904134  HIT:         66  MISS:     904068
cpu0_L2C LOAD      ACCESS:     904130  HIT:         66  MISS:     904064
cpu0_L2C RFO       ACCESS:          0  HIT:          0  MISS:          0
cpu0_L2C PREFETCH  ACCESS:          0  HIT:          0  MISS:          0
cpu0_L2C WRITEBACK ACCESS:          0  HIT:          0  MISS:          0
LLC TOTAL     ACCESS:     904068  HIT:        138  MISS:     903930
LLC LOAD      ACCESS:     904064  HIT:        138  MISS:     903926
LLC RFO       ACCESS:          0  HIT:          0  MISS:          0
LLC PREFETCH  ACCESS:          0  HIT:          0  MISS:          0
LLC WRITEBACK ACCESS:          0  HIT:          0  MISS:          0
Heartbeat CPU 0 instructions: 110000002 cycles: 54440005 heartbeat IPC: 1.4723 cumulative IPC: 1.43062 (Simulation time: 0 hr 52 min 55 sec) 

Region of Interest Statistics
cpu0_DTLB TOTAL     ACCESS:    7361922  HIT:    7347205  MISS:      14717
cpu0_DTLB LOAD      ACCESS:    5922968  HIT:    5908251  MISS:      14717
cpu0_DTLB RFO       ACCESS:    1438954  HIT:    1438954  MISS:          0
cpu0_DTLB PREFETCH  ACCESS:          0  HIT:          0  MISS:          0
cpu0_DTLB WRITEBACK ACCESS:          0  HIT:          0  MISS:          0
cpu0_ITLB TOTAL     ACCESS:    5998783  HIT:    5998783  MISS:          0
cpu0_ITLB LOAD      ACCESS:    5998783  HIT:    5998783  MISS:          0
cpu0_ITLB RFO       ACCESS:          0  HIT:          0  MISS:          0
cpu0_ITLB PREFETCH  ACCESS:          0  HIT:          0  MISS:          0
cpu0_ITLB WRITEBACK ACCESS:          0  HIT:          0  MISS:          0
cpu0_STLB TOTAL     ACCESS:      14717  HIT:        106  MISS:      14611
cpu0_STLB LOAD      ACCESS:      14717  HIT:        106  MISS:      14611
cpu0_STLB RFO       ACCESS:          0  HIT:          0  MISS:          0
cpu0_STLB PREFETCH  ACCESS:          0  HIT:          0  MISS:          0
cpu0_STLB WRITEBACK ACCESS:          0  HIT:          0  MISS:          0
cpu0_L1D TOTAL     ACCESS:    3990515  HIT:    3055203  MISS:     935312
cpu0_L1D LOAD      ACCESS:    2479744  HIT:    1544436  MISS:     935308
cpu0_L1D RFO       ACCESS:    1496160  HIT:    1496160  MISS:          0
cpu0_L1D PREFETCH  ACCESS:          0  HIT:          0  MISS:          0
cpu0_L1D WRITEBACK ACCESS:          0  HIT:          0  MISS:          0
cpu0_L2C TOTAL     ACCESS:     935312  HIT:         68  MISS:     935244
cpu0_L2C LOAD      ACCESS:     935308  HIT:         68  MISS:     935240
cpu0_L2C RFO       ACCESS:          0  HIT:          0  MISS:          0
cpu0_L2C PREFETCH  ACCESS:          0  HIT:          0  MISS:          0
cpu0_L2C WRITEBACK ACCESS:          0  HIT:          0  MISS:          0
LLC TOTAL     ACCESS:     935244  HIT:        144  MISS:     935100
LLC LOAD      ACCESS:     935240  HIT:        144  MISS:     935096
LLC RFO       ACCESS:          0  HIT:          0  MISS:          0
LLC PREFETCH  ACCESS:          0  HIT:          0  MISS:          0
LLC WRITEBACK ACCESS:          0  HIT:          0  MISS:          0
Heartbeat CPU 0 instructions: 112000002 cycles: 55798116 heartbeat IPC: 1.47263 cumulative IPC: 1.43194 (Simulation time: 0 hr 54 min 3 sec) 

Region of Interest Statistics
cpu0_DTLB TOTAL     ACCESS:    7606977  HIT:    7591770  MISS:      15207
cpu0_DTLB LOAD      ACCESS:    6120146  HIT:    6104939  MISS:      15207
cpu0_DTLB RFO       ACCESS:    1486831  HIT:    1486831  MISS:          0
cpu0_DTLB PREFETCH  ACCESS:          0  HIT:          0  MISS:          0
cpu0_DTLB WRITEBACK ACCESS:          0  HIT:          0  MISS:          0
cpu0_ITLB TOTAL     ACCESS:    6198742  HIT:    6198742  MISS:          0
cpu0_ITLB LOAD      ACCESS:    6198742  HIT:    6198742  MISS:          0
cpu0_ITLB RFO       ACCESS:          0  HIT:          0  MISS:          0
cpu0_ITLB PREFETCH  ACCESS:          0  HIT:          0  MISS:          0
cpu0_ITLB WRITEBACK ACCESS:          0  HIT:          0  MISS:          0
cpu0_STLB TOTAL     ACCESS:      15207  HIT:        109  MISS:      15098
cpu0_STLB LOAD      ACCESS:      15207  HIT:        109  MISS:      15098
cpu0_STLB RFO       ACCESS:          0  HIT:          0  MISS:          0
cpu0_STLB PREFETCH  ACCESS:          0  HIT:          0  MISS:          0
cpu0_STLB WRITEBACK ACCESS:          0  HIT:          0  MISS:          0
cpu0_L1D TOTAL     ACCESS:    4123474  HIT:    3156986  MISS:     966488
cpu0_L1D LOAD      ACCESS:    2562344  HIT:    1595860  MISS:     966484
cpu0_L1D RFO       ACCESS:    1546032  HIT:    1546032  MISS:          0
cpu0_L1D PREFETCH  ACCESS:          0  HIT:          0  MISS:          0
cpu0_L1D WRITEBACK ACCESS:          0  HIT:          0  MISS:          0
cpu0_L2C TOTAL     ACCESS:     966488  HIT:         69  MISS:     966419
cpu0_L2C LOAD      ACCESS:     966484  HIT:         69  MISS:     966415
cpu0_L2C RFO       ACCESS:          0  HIT:          0  MISS:          0
cpu0_L2C PREFETCH  ACCESS:          0  HIT:          0  MISS:          0
cpu0_L2C WRITEBACK ACCESS:          0  HIT:          0  MISS:          0
LLC TOTAL     ACCESS:     966419  HIT:        149  MISS:     966270
LLC LOAD      ACCESS:     966415  HIT:        149  MISS:     966266
LLC RFO       ACCESS:          0  HIT:          0  MISS:          0
LLC PREFETCH  ACCESS:          0  HIT:          0  MISS:          0
LLC WRITEBACK ACCESS:          0  HIT:          0  MISS:          0
Heartbeat CPU 0 instructions: 114000003 cycles: 57156055 heartbeat IPC: 1.47282 cumulative IPC: 1.43318 (Simulation time: 0 hr 55 min 15 sec) 

Region of Interest Statistics
cpu0_DTLB TOTAL     ACCESS:    7852003  HIT:    7836305  MISS:      15698
cpu0_DTLB LOAD      ACCESS:    6317286  HIT:    6301588  MISS:      15698
cpu0_DTLB RFO       ACCESS:    1534717  HIT:    1534717  MISS:          0
cpu0_DTLB PREFETCH  ACCESS:          0  HIT:          0  MISS:          0
cpu0_DTLB WRITEBACK ACCESS:          0  HIT:          0  MISS:          0
cpu0_ITLB TOTAL     ACCESS:    6398705  HIT:    6398705  MISS:          0
cpu0_ITLB LOAD      ACCESS:    6398705  HIT:    6398705  MISS:          0
cpu0_ITLB RFO       ACCESS:          0  HIT:          0  MISS:          0
cpu0_ITLB PREFETCH  ACCESS:          0  HIT:          0  MISS:          0
cpu0_ITLB WRITEBACK ACCESS:          0  HIT:          0  MISS:          0
cpu0_STLB TOTAL     ACCESS:      15698  HIT:        113  MISS:      15585
cpu0_STLB LOAD      ACCESS:      15698  HIT:        113  MISS:      15585
cpu0_STLB RFO       ACCESS:          0  HIT:          0  MISS:          0
cpu0_STLB PREFETCH  ACCESS:          0  HIT:          0  MISS:          0
cpu0_STLB WRITEBACK ACCESS:          0  HIT:          0  MISS:          0
cpu0_L1D TOTAL     ACCESS:    4256430  HIT:    3258764  MISS:     997666
cpu0_L1D LOAD      ACCESS:    2644941  HIT:    1647279  MISS:     997662
cpu0_L1D RFO       ACCESS:    1595904  HIT:    1595904  MISS:          0
cpu0_L1D PREFETCH  ACCESS:          0  HIT:          0  MISS:          0
cpu0_L1D WRITEBACK ACCESS:          0  HIT:          0  MISS:          0
cpu0_L2C TOTAL     ACCESS:     997666  HIT:         75  MISS:     997591
cpu0_L2C LOAD      ACCESS:     997662  HIT:         75  MISS:     997587
cpu0_L2C RFO       ACCESS:          0  HIT:          0  MISS:          0
cpu0_L2C PREFETCH  ACCESS:          0  HIT:          0  MISS:          0
cpu0_L2C WRITEBACK ACCESS:          0  HIT:          0  MISS:          0
LLC TOTAL     ACCESS:     997591  HIT:        151  MISS:     997440
LLC LOAD      ACCESS:     997587  HIT:        151  MISS:     997436
LLC RFO       ACCESS:          0  HIT:          0  MISS:          0
LLC PREFETCH  ACCESS:          0  HIT:          0  MISS:          0
LLC WRITEBACK ACCESS:          0  HIT:          0  MISS:          0
Heartbeat CPU 0 instructions: 116000003 cycles: 58514112 heartbeat IPC: 1.47269 cumulative IPC: 1.43434 (Simulation time: 0 hr 56 min 23 sec) 

Region of Interest Statistics
cpu0_DTLB TOTAL     ACCESS:    8097064  HIT:    8080876  MISS:      16188
cpu0_DTLB LOAD      ACCESS:    6514483  HIT:    6498295  MISS:      16188
cpu0_DTLB RFO       ACCESS:    1582581  HIT:    1582581  MISS:          0
cpu0_DTLB PREFETCH  ACCESS:          0  HIT:          0  MISS:          0
cpu0_DTLB WRITEBACK ACCESS:          0  HIT:          0  MISS:          0
cpu0_ITLB TOTAL     ACCESS:    6598663  HIT:    6598663  MISS:          0
[...]
cpu0_ITLB TOTAL     ACCESS:  137704320  HIT:  137704317  MISS:          3
cpu0_ITLB LOAD      ACCESS:  137704320  HIT:  137704317  MISS:          3
cpu0_ITLB RFO       ACCESS:          0  HIT:          0  MISS:          0
cpu0_ITLB PREFETCH  ACCESS:          0  HIT:          0  MISS:          0
cpu0_ITLB WRITEBACK ACCESS:          0  HIT:          0  MISS:          0
cpu0_L1I TOTAL     ACCESS:   12406001  HIT:   12405941  MISS:         60
cpu0_L1I LOAD      ACCESS:   12406001  HIT:   12405941  MISS:         60
cpu0_L1I RFO       ACCESS:          0  HIT:          0  MISS:          0
cpu0_L1I PREFETCH  ACCESS:          0  HIT:          0  MISS:          0
cpu0_L1I WRITEBACK ACCESS:          0  HIT:          0  MISS:          0
cpu0_STLB TOTAL     ACCESS:    1258696  HIT:     760202  MISS:     498494
cpu0_STLB LOAD      ACCESS:    1081906  HIT:     591171  MISS:     490735
cpu0_STLB RFO       ACCESS:     176790  HIT:     169031  MISS:       7759
cpu0_STLB PREFETCH  ACCESS:          0  HIT:          0  MISS:          0
cpu0_STLB WRITEBACK ACCESS:          0  HIT:          0  MISS:          0
cpu0_L1D TOTAL     ACCESS:  338652114  HIT:  305724846  MISS:   32927268
cpu0_L1D LOAD      ACCESS:  269511111  HIT:  237110711  MISS:   32400400
cpu0_L1D RFO       ACCESS:   68642507  HIT:   68146016  MISS:     496491
cpu0_L1D PREFETCH  ACCESS:          0  HIT:          0  MISS:          0
cpu0_L1D WRITEBACK ACCESS:          0  HIT:          0  MISS:          0
cpu0_L2C TOTAL     ACCESS:   35657563  HIT:    3734534  MISS:   31923029
cpu0_L2C LOAD      ACCESS:   32400460  HIT:     974387  MISS:   31426073
cpu0_L2C RFO       ACCESS:     496491  HIT:          0  MISS:     496491
cpu0_L2C PREFETCH  ACCESS:          0  HIT:          0  MISS:          0
cpu0_L2C WRITEBACK ACCESS:    2730235  HIT:    2730229  MISS:          6
LLC TOTAL     ACCESS:   34638980  HIT:    2743132  MISS:   31895848
LLC LOAD      ACCESS:   31426073  HIT:      27263  MISS:   31398810
LLC RFO       ACCESS:     496491  HIT:          2  MISS:     496489
LLC PREFETCH  ACCESS:          0  HIT:          0  MISS:          0
LLC WRITEBACK ACCESS:    2715957  HIT:    2715710  MISS:        247
Finished CPU 0 instructions: 1500000001 cycles: 3928073675 cumulative IPC: 0.381867 (Simulation time: 20 hr 36 min 47 sec) 

ChampSim completed all CPUs

Region of Interest Statistics

CPU 0 cumulative IPC: 0.381867 instructions: 1500000001 cycles: 3928073675
cpu0_DTLB TOTAL     ACCESS:  390783368  HIT:  389524675  MISS:    1258693
cpu0_DTLB LOAD      ACCESS:  360021032  HIT:  358939129  MISS:    1081903
cpu0_DTLB RFO       ACCESS:   30762336  HIT:   30585546  MISS:     176790
cpu0_DTLB PREFETCH  ACCESS:          0  HIT:          0  MISS:          0
cpu0_DTLB WRITEBACK ACCESS:          0  HIT:          0  MISS:          0
cpu0_DTLB TRANSLATION ACCESS:          0  HIT:          0  MISS:          0
cpu0_DTLB PREFETCH  REQUESTED:          0  ISSUED:          0  USEFUL:          0  USELESS:          0
cpu0_DTLB AVERAGE MISS LATENCY: 87.2676 cycles
cpu0_ITLB TOTAL     ACCESS:  137704320  HIT:  137704317  MISS:          3
cpu0_ITLB LOAD      ACCESS:  137704320  HIT:  137704317  MISS:          3
cpu0_ITLB RFO       ACCESS:          0  HIT:          0  MISS:          0
cpu0_ITLB PREFETCH  ACCESS:          0  HIT:          0  MISS:          0
cpu0_ITLB WRITEBACK ACCESS:          0  HIT:          0  MISS:          0
cpu0_ITLB TRANSLATION ACCESS:          0  HIT:          0  MISS:          0
cpu0_ITLB PREFETCH  REQUESTED:          0  ISSUED:          0  USEFUL:          0  USELESS:          0
cpu0_ITLB AVERAGE MISS LATENCY: 413 cycles
cpu0_L1I TOTAL     ACCESS:   12406001  HIT:   12405941  MISS:         60
cpu0_L1I LOAD      ACCESS:   12406001  HIT:   12405941  MISS:         60
cpu0_L1I RFO       ACCESS:          0  HIT:          0  MISS:          0
cpu0_L1I PREFETCH  ACCESS:          0  HIT:          0  MISS:          0
cpu0_L1I WRITEBACK ACCESS:          0  HIT:          0  MISS:          0
cpu0_L1I TRANSLATION ACCESS:          0  HIT:          0  MISS:          0
cpu0_L1I PREFETCH  REQUESTED:          0  ISSUED:          0  USEFUL:          0  USELESS:          0
cpu0_L1I AVERAGE MISS LATENCY: 382.6 cycles
cpu0_STLB TOTAL     ACCESS:    1258696  HIT:     760202  MISS:     498494
cpu0_STLB LOAD      ACCESS:    1081906  HIT:     591171  MISS:     490735
cpu0_STLB RFO       ACCESS:     176790  HIT:     169031  MISS:       7759
cpu0_STLB PREFETCH  ACCESS:          0  HIT:          0  MISS:          0
cpu0_STLB WRITEBACK ACCESS:          0  HIT:          0  MISS:          0
cpu0_STLB TRANSLATION ACCESS:          0  HIT:          0  MISS:          0
cpu0_STLB PREFETCH  REQUESTED:          0  ISSUED:          0  USEFUL:          0  USELESS:          0
cpu0_STLB AVERAGE MISS LATENCY: 197.032 cycles
cpu0_L1D TOTAL     ACCESS:  338652114  HIT:  305724846  MISS:   32927268
cpu0_L1D LOAD      ACCESS:  269511111  HIT:  237110711  MISS:   32400400
cpu0_L1D RFO       ACCESS:   68642507  HIT:   68146016  MISS:     496491
cpu0_L1D PREFETCH  ACCESS:          0  HIT:          0  MISS:          0
cpu0_L1D WRITEBACK ACCESS:          0  HIT:          0  MISS:          0
cpu0_L1D TRANSLATION ACCESS:     498496  HIT:     468119  MISS:      30377
cpu0_L1D PREFETCH  REQUESTED:          0  ISSUED:          0  USEFUL:          0  USELESS:          0
cpu0_L1D AVERAGE MISS LATENCY: 977.092 cycles
cpu0_L2C TOTAL     ACCESS:   35657563  HIT:    3734534  MISS:   31923029
cpu0_L2C LOAD      ACCESS:   32400460  HIT:     974387  MISS:   31426073
cpu0_L2C RFO       ACCESS:     496491  HIT:          0  MISS:     496491
cpu0_L2C PREFETCH  ACCESS:          0  HIT:          0  MISS:          0
cpu0_L2C WRITEBACK ACCESS:    2730235  HIT:    2730229  MISS:          6
cpu0_L2C TRANSLATION ACCESS:      30377  HIT:      29918  MISS:        459
cpu0_L2C PREFETCH  REQUESTED:          0  ISSUED:          0  USEFUL:          0  USELESS:          0
cpu0_L2C AVERAGE MISS LATENCY: 996.097 cycles
LLC TOTAL     ACCESS:   34638980  HIT:    2743132  MISS:   31895848
LLC LOAD      ACCESS:   31426073  HIT:      27263  MISS:   31398810
LLC RFO       ACCESS:     496491  HIT:          2  MISS:     496489
LLC PREFETCH  ACCESS:          0  HIT:          0  MISS:          0
LLC WRITEBACK ACCESS:    2715957  HIT:    2715710  MISS:        247
LLC TRANSLATION ACCESS:        459  HIT:        157  MISS:        302
LLC PREFETCH  REQUESTED:          0  ISSUED:          0  USEFUL:          0  USELESS:          0
LLC AVERAGE MISS LATENCY: 975.928 cycles
~~~~~~~~~~Reuse Distance Profiler output~~~~~~~~~~
0	35826976	6183440
1	18768944	8367984
2	11049200	6761024
3	10857488	7051888
4	8800800	7994192
5	11250128	10342384
6	12847056	11466848
7	11059280	9391504
8	7814880	6819296
9	7346128	5949264
10	9940608	7749152
11	9541568	8698880
12	6673824	6087744
13	7317616	5622640
14	4750464	4507648
15	6197584	5837312
16	5249104	4742096
17	3591312	3216160
18	3364784	2516416
19	1866944	1715552
20	1658656	1627024
21	2949808	2631520
22	2287328	2085760
23	1962736	1598128
24	2007840	1900576
25	1648416	1445520
26	2180112	1884560
27	1748832	1653376
28	1378464	1184416
29	1965152	1861120
30	1328768	1232720
31	1155408	1151664
32	963136	951376
33	1548896	1284096
34	782016	768624
35	925488	830816
36	716176	616592
37	2402848	1690464
38	1821840	1617216
39	1211168	919120
40	726560	712032
41	452128	431536
42	1016496	651680
43	661328	501472
44	1524928	1280064
45	1968624	1807168
46	1318800	1202192
47	766720	751152
48	929488	790592
49	421632	414432
50	491904	422768
51	617296	512464
52	613856	557952
53	1074336	1029696
54	865952	859968
55	1279632	1173536
56	1087312	983824
57	2107696	2101696
58	1483648	1472496
59	1773424	1593344
60	2355296	2264192
61	1862416	1851376
62	2045264	2037920
63	2499760	2316800
64	5831104	5538128
66	4638144	4532912
68	5744720	5585872
70	4878544	4772880
72	4359856	4207168
74	4400416	4209792
76	5207728	5101536
78	4653376	4563456
80	4500160	4489440
82	2823664	2735936
84	2414528	2069936
86	1757216	1656272
88	1365600	1347600
90	722944	632976
92	610080	433872
94	523296	513776
96	744864	657600
98	135296	133280
100	23232	22384
102	93104	93088
104	84960	84928
106	94896	94864
108	3680	576
110	1696	1568
112	4544	4544
114	288	288
116	192	192
118	3088	3088
120	192	192
122	1712	1712
124	1008	1008
126	64	64
128	64	64
132	176	176
136	432	432
140	3072	3072
144	64	64
148	0	0
152	304	304
156	96	96
160	3344	3344
164	176	176
168	0	0
172	0	0
176	0	0
180	0	0
184	0	0
188	0	0
192	0	0
196	0	0
200	0	0
204	0	0
208	0	0
212	0	0
216	0	0
220	0	0
224	0	0
228	0	0
232	0	0
236	0	0
240	4016	4016
244	10624	10624
248	17296	17296
252	18400	18400
256	31520	31520
264	14448	14448
272	6144	6144
280	79616	79616
288	12016	12016
296	320	320
304	0	0
312	160	160
320	2768	2768
328	95024	95024
336	111920	111920
344	282352	282352
352	330400	330400
360	250480	250480
368	273200	273200
376	175312	175312
384	928	928
392	32	32
400	16	16
408	0	0
416	0	0
424	0	0
432	0	0
440	0	0
448	0	0
456	16	16
464	0	0
472	0	0
480	0	0
488	0	0
496	2352	2352
504	0	0
512	2064	2064
528	304	304
544	0	0
560	0	0
576	0	0
592	0	0
608	0	0
624	0	0
640	48	48
656	2304	2304
672	61536	61536
688	55616	55616
704	11120	11120
720	528	528
736	0	0
752	0	0
768	0	0
784	0	0
800	0	0
816	0	0
832	0	0
848	0	0
864	0	0
880	0	0
896	0	0
912	0	0
928	0	0
944	0	0
960	0	0
976	0	0
992	0	0
1008	0	0
1024	0	0
1056	0	0
1088	0	0
1120	0	0
1152	0	0
1184	0	0
1216	0	0
1248	0	0
1280	0	0
1312	0	0
1344	0	0
1376	0	0
1408	0	0
1440	0	0
1472	0	0
1504	0	0
1536	0	0
1568	0	0
1600	0	0
1632	0	0
1664	0	0
1696	0	0
1728	0	0
1760	0	0
1792	0	0
1824	0	0
1856	0	0
1888	0	0
1920	0	0
1952	0	0
1984	0	0
2016	0	0
2048	6144	6144
2112	8816	8816
2176	0	0
2240	1696	1696
2304	0	0
2368	0	0
2432	0	0
2496	0	0
2560	0	0
2624	0	0
2688	0	0
2752	0	0
2816	0	0
2880	0	0
2944	0	0
3008	0	0
3072	0	0
3136	0	0
3200	0	0
3264	0	0
3328	0	0
3392	0	0
3456	0	0
3520	0	0
3584	0	0
3648	0	0
3712	0	0
3776	0	0
3840	0	0
3904	0	0
3968	0	0
4032	0	0
4096	0	0
4224	0	0
4352	0	0
4480	0	0
4608	0	0
4736	0	0
4864	0	0
4992	0	0
5120	0	0
5248	0	0
5376	0	0
5504	0	0
5632	0	0
5760	0	0
5888	0	0
6016	0	0
6144	0	0
6272	0	0
6400	0	0
6528	0	0
6656	0	0
6784	0	0
6912	0	0
7040	0	0
7168	0	0
7296	0	0
7424	0	0
7552	0	0
7680	0	0
7808	0	0
7936	0	0
8064	0	0
8192	0	0
8448	0	0
8704	0	0
8960	0	0
9216	0	0
9472	0	0
9728	0	0
9984	0	0
10240	0	0
10496	0	0
10752	0	0
11008	0	0
11264	0	0
11520	0	0
11776	0	0
12032	0	0
12288	0	0
12544	0	0
12800	0	0
13056	0	0
13312	0	0
13568	0	0
13824	0	0
14080	0	0
14336	0	0
14592	0	0
14848	0	0
15104	0	0
15360	0	0
15616	0	0
15872	0	0
16128	0	0
16384	0	0
16896	0	0
17408	0	0
17920	0	0
18432	0	0
18944	0	0
19456	0	0
19968	0	0
20480	0	0
20992	16	16
21504	0	0
22016	0	0
22528	0	0
23040	16	16
23552	0	0
24064	16	16
24576	0	0
25088	0	0
25600	0	0
26112	0	0
26624	0	0
27136	0	0
27648	0	0
28160	0	0
28672	0	0
29184	0	0
29696	0	0
30208	0	0
30720	0	0
31232	0	0
31744	0	0
32256	16	16
32768	768	768
33792	16	16
34816	0	0
35840	0	0
36864	480	480
37888	16	16
38912	16	16
39936	659904	659904
40960	305264	305264
41984	8720	8720
43008	0	0
44032	0	0
45056	16	16
46080	32	32
47104	0	0
48128	0	0
49152	16	16
50176	0	0
51200	0	0
52224	0	0
53248	0	0
54272	0	0
55296	0	0
56320	16	16
57344	0	0
58368	0	0
59392	0	0
60416	0	0
61440	0	0
62464	16	16
63488	16	16
64512	176	176
65536	304	304
67584	320	320
69632	240	240
71680	240	240
73728	320	320
75776	320	320
77824	320	320
79872	240	240
81920	320	320
83968	288	288
86016	160	160
88064	272	272
90112	1168	1168
92160	240	240
94208	240	240
96256	240	240
98304	336	336
100352	224	224
102400	336	336
104448	304	304
106496	320	320
108544	240	240
110592	272	272
112640	272	272
114688	192	192
116736	208	208
118784	304	304
120832	288	288
122880	288	288
124928	288	288
126976	304	304
129024	288	288
131072	640	640
135168	144	144
139264	16	16
143360	0	0
147456	0	0
151552	0	0
155648	16	16
159744	16	16
163840	0	0
167936	16	16
172032	0	0
176128	0	0
180224	16	16
184320	0	0
188416	32	32
192512	0	0
196608	0	0
200704	0	0
204800	48	48
208896	48	48
212992	16	16
217088	0	0
221184	0	0
225280	16	16
229376	16	16
233472	32	32
237568	16	16
241664	16	16
245760	16	16
249856	16	16
253952	16	16
258048	32	32
262144	48	48
270336	16	16
278528	32	32
286720	64	64
294912	0	0
303104	32	32
311296	32	32
319488	16	16
327680	16	16
335872	0	0
344064	32	32
352256	80	80
360448	0	0
368640	48	48
376832	64	64
385024	16	16
393216	32	32
401408	80	80
409600	48	48
417792	16	16
425984	48	48
434176	64	64
442368	64	64
450560	0	0
458752	32	32
466944	16	16
475136	0	0
483328	32	32
491520	0	0
499712	32	32
507904	32	32
516096	32	32
524288	48	48
540672	32	32
557056	32	32
573440	64	64
589824	48	48
606208	64	64
622592	32	32
638976	96	96
655360	32	32
671744	48	48
688128	80	80
704512	96	96
720896	16	16
737280	112	112
753664	64	64
770048	32	32
786432	32	32
802816	48	48
819200	16	16
835584	32	32
851968	32	32
868352	80	80
884736	96	96
901120	48	48
917504	80	80
933888	48	48
950272	32	32
966656	16	16
983040	0	0
999424	48	48
1015808	32	32
1032192	48	48
1048576	96	96
1081344	80	80
1114112	144	144
1146880	112	112
1179648	112	112
1212416	80	80
1245184	96	96
1277952	192	192
1310720	112	112
1343488	80	80
1376256	112	112
1409024	80	80
1441792	112	112
1474560	128	128
1507328	144	144
1540096	128	128
1572864	96	96
1605632	64	64
1638400	32	32
1671168	128	128
1703936	112	112
1736704	176	176
1769472	80	80
1802240	128	128
1835008	32	32
1867776	112	112
1900544	80	80
1933312	144	144
1966080	96	96
1998848	96	96
2031616	96	96
2064384	64	64
2097152	256	256
2162688	192	192
2228224	192	192
2293760	240	240
2359296	160	160
2424832	304	304
2490368	240	240
2555904	160	160
2621440	208	208
2686976	112	112
2752512	304	304
2818048	224	224
2883584	208	208
2949120	304	304
3014656	208	208
3080192	192	192
3145728	160	160
3211264	288	288
3276800	128	128
3342336	144	144
3407872	224	224
3473408	256	256
3538944	176	176
3604480	224	224
3670016	192	192
3735552	224	224
3801088	192	192
3866624	256	256
3932160	160	160
3997696	192	192
4063232	208	208
4128768	144	144
4194304	464	464
4325376	400	400
4456448	336	336
4587520	496	496
4718592	400	400
4849664	448	448
4980736	464	464
5111808	384	384
5242880	528	528
5373952	938624	938624
5505024	64	64
5636096	0	0
5767168	0	0
5898240	0	0
6029312	0	0
6160384	0	0
6291456	0	0
6422528	0	0
6553600	0	0
6684672	0	0
6815744	0	0
6946816	0	0
7077888	0	0
7208960	0	0
7340032	0	0
7471104	0	0
7602176	0	0
7733248	0	0
7864320	0	0
7995392	0	0
8126464	0	0
8257536	0	0
8388608	492512	492512
8650752	639360	639360
8912896	633328	633328
9175040	526640	526640
9437184	109952	109952
9699328	71984	71984
9961472	50432	50432
10223616	50224	50224
10485760	48672	48672
10747904	48416	48416
11010048	49344	49344
11272192	49760	49760
11534336	50896	50896
11796480	50176	50176
12058624	50560	50560
12320768	50576	50576
12582912	51232	51232
12845056	49408	49408
13107200	50480	50480
13369344	50256	50256
13631488	51328	51328
13893632	49600	49600
14155776	49296	49296
14417920	52432	52432
14680064	49744	49744
14942208	49600	49600
15204352	50096	50096
15466496	52080	52080
15728640	50976	50976
15990784	50000	50000
16252928	50256	50256
16515072	48528	48528
16777216	101168	101168
17301504	101680	101680
17825792	85232	85232
18350080	80816	80816
18874368	81536	81536
19398656	82160	82160
19922944	81472	81472
20447232	81776	81776
20971520	81232	81232
21495808	82096	82096
22020096	80736	80736
22544384	34320	33776
23068672	1792	912
23592960	1648	832
24117248	1648	848
24641536	1712	912
25165824	1664	848
25690112	1648	816
26214400	1664	848
26738688	1824	992
27262976	1616	832
27787264	1728	880
28311552	1792	880
28835840	1728	848
29360128	1696	848
29884416	1664	848
30408704	1664	928
30932992	1696	848
31457280	1712	880
31981568	1712	880
32505856	1728	848
33030144	1760	832
33554432	3488	1744
34603008	3312	1680
35651584	3360	1744
36700160	3456	1808
37748736	3456	1712
38797312	3408	1792
39845888	3408	1744
40894464	48000	46368
41943040	49440	47792
42991616	52016	50368
44040192	51472	49728
45088768	52160	50592
46137344	48176	46496
47185920	10592	8928
48234496	3360	1728
49283072	3376	1632
50331648	3296	1648
51380224	3408	1616
52428800	3536	1744
53477376	3344	1600
54525952	3584	1776
55574528	3328	1616
56623104	3328	1536
57671680	3408	1632
58720256	3376	1664
59768832	3344	1664
60817408	3424	1664
61865984	3536	1728
62914560	3552	1808
63963136	3488	1712
65011712	3376	1584
66060288	3488	1728
67108864	6688	3216
69206016	7424	3920
71303168	6496	3440
73400320	6752	3456
75497472	6656	3232
77594624	7184	3632
79691776	6640	3264
81788928	7248	3472
83886080	6528	3312
85983232	6512	3248
88080384	6704	3344
90177536	7040	3536
92274688	6896	3456
94371840	6848	3584
96468992	7136	3488
98566144	6992	3280
100663296	6480	3312
102760448	6464	3200
104857600	7104	3424
106954752	6880	3328
109051904	7024	3440
111149056	6608	3296
113246208	7056	3568
115343360	6800	3280
117440512	6768	3568
119537664	6768	3360
121634816	6784	3424
123731968	6864	3568
125829120	6912	3264
127926272	6592	3088
130023424	7120	3616
132120576	6992	3296
134217728	13488	6624
138412032	13408	6400
142606336	14192	7008
146800640	14048	7152
150994944	13520	6944
155189248	13728	6656
159383552	13120	6544
163577856	13872	6688
167772160	13552	6672
171966464	13952	6896
176160768	13792	7072
180355072	13408	6800
184549376	13216	6832
188743680	13648	7088
192937984	13568	6672
197132288	14048	7120
201326592	13648	6592
205520896	13776	6944
209715200	14032	6912
213909504	14048	6736
218103808	13984	6784
222298112	13600	6944
226492416	13600	7008
230686720	13984	6752
234881024	13600	6720
239075328	13376	6736
243269632	13280	6832
247463936	13344	6816
251658240	13424	6720
255852544	13040	6672
260046848	14400	7008
264241152	13600	6704
268435456	27184	13568
276824064	28080	14560
285212672	27376	13424
293601280	27344	13632
301989888	27408	14000
310378496	17040	8576
318767104	0	0
327155712	0	0
335544320	0	0
343932928	0	0
352321536	0	0
360710144	0	0
369098752	0	0
377487360	0	0
385875968	0	0
394264576	0	0
402653184	0	0
411041792	0	0
419430400	0	0
427819008	0	0
436207616	0	0
444596224	0	0
452984832	0	0
461373440	0	0
469762048	0	0
478150656	0	0
486539264	0	0
494927872	0	0
503316480	0	0
511705088	0	0
520093696	0	0
528482304	0	0
536870912	0	0
553648128	0	0
570425344	0	0
587202560	0	0
603979776	0	0
620756992	0	0
637534208	0	0
654311424	0	0
671088640	0	0
687865856	0	0
704643072	0	0
721420288	0	0
738197504	0	0
754974720	0	0
771751936	0	0
788529152	0	0
805306368	0	0
822083584	0	0
838860800	0	0
855638016	0	0
872415232	0	0
889192448	0	0
905969664	0	0
922746880	0	0
939524096	0	0
956301312	0	0
973078528	0	0
989855744	0	0
1006632960	0	0
1023410176	0	0
1040187392	0	0
1056964608	0	0
1073741824	0	0
1107296256	0	0
1140850688	0	0
1174405120	0	0
1207959552	0	0
1241513984	0	0
1275068416	0	0
1308622848	0	0
1342177280	0	0
1375731712	0	0
1409286144	0	0
1442840576	0	0
1476395008	0	0
1509949440	0	0
1543503872	0	0
1577058304	0	0
1610612736	0	0
1644167168	0	0
1677721600	0	0
1711276032	0	0
1744830464	0	0
1778384896	0	0
1811939328	0	0
1845493760	0	0
1879048192	0	0
1912602624	0	0
1946157056	0	0
1979711488	0	0
2013265920	0	0
2046820352	0	0
2080374784	0	0
2113929216	0	0
2147483648	0	0
2214592512	0	0
2281701376	0	0
2348810240	0	0
2415919104	0	0
2483027968	0	0
2550136832	0	0
2617245696	0	0
2684354560	0	0
2751463424	0	0
2818572288	0	0
2885681152	0	0
2952790016	0	0
3019898880	0	0
3087007744	0	0
3154116608	0	0
3221225472	0	0
3288334336	0	0
3355443200	0	0
3422552064	0	0
3489660928	0	0
3556769792	0	0
3623878656	0	0
3690987520	0	0
3758096384	0	0
3825205248	0	0
3892314112	0	0
3959422976	0	0
4026531840	0	0
4093640704	0	0
4160749568	0	0
4227858432	0	0
~~~~~~~~~~Reuse Distance Profiler output end~~~~~~~~~~

Sampler size:1639091

DRAM Statistics
 CHANNEL 0
 RQ ROW_BUFFER_HIT:    1980191  ROW_BUFFER_MISS:   29915410
 DBUS AVG_CONGESTED_CYCLE:    3.96132
 WQ ROW_BUFFER_HIT:     348755  ROW_BUFFER_MISS:    2406519  FULL:          0


CPU 0 Branch Prediction Accuracy: 71.6819% MPKI: 17.8691 Average ROB Occupancy at Mispredict: 269.143
Branch type MPKI
BRANCH_DIRECT_JUMP: 1.33333e-06
BRANCH_INDIRECT: 0
BRANCH_CONDITIONAL: 17.8691
BRANCH_DIRECT_CALL: 1.33333e-06
BRANCH_INDIRECT_CALL: 0
BRANCH_RETURN: 6.66667e-07

