
*** ChampSim Multicore Out-of-Order Simulator ***

Warmup Instructions: 50000000
Simulation Instructions: 1500000000
Number of CPUs: 1
Off-chip DRAM Size: 4 GiB Channels: 1 Width: 64-bit Data Rate: 3200 MT/s

VirtualMemory physical capacity: 8588881920 num_ppages: 2096895
VirtualMemory page size: 4096 log2_page_size: 12

CPU 0 runs /s/traces/champsim_traces/603.bwaves_s-5359B.champsimtrace.xz
CPU 0 Bimodal branch predictor
Basic BTB sets: 1024 ways: 8 indirect buffer size: 4096 RAS size: 64
Initializing LRU.
Initializing LRU.
Initializing LRU.
Initializing LRU.
Initializing rdLRU.
Initializing LRU.
Heartbeat CPU 0 instructions: 2000003 cycles: 535036 heartbeat IPC: 3.73807 cumulative IPC: 3.73807 (Simulation time: 0 hr 1 min 1 sec) 
Heartbeat CPU 0 instructions: 4000002 cycles: 1073571 heartbeat IPC: 3.71378 cumulative IPC: 3.72588 (Simulation time: 0 hr 2 min 5 sec) 
Heartbeat CPU 0 instructions: 6000001 cycles: 1610020 heartbeat IPC: 3.72822 cumulative IPC: 3.72666 (Simulation time: 0 hr 3 min 9 sec) 
Heartbeat CPU 0 instructions: 8000003 cycles: 2146620 heartbeat IPC: 3.72717 cumulative IPC: 3.72679 (Simulation time: 0 hr 4 min 16 sec) 
Heartbeat CPU 0 instructions: 10000001 cycles: 2684455 heartbeat IPC: 3.71861 cumulative IPC: 3.72515 (Simulation time: 0 hr 5 min 19 sec) 
Heartbeat CPU 0 instructions: 12000003 cycles: 3223633 heartbeat IPC: 3.70935 cumulative IPC: 3.72251 (Simulation time: 0 hr 6 min 23 sec) 
Heartbeat CPU 0 instructions: 14000003 cycles: 3760474 heartbeat IPC: 3.7255 cumulative IPC: 3.72294 (Simulation time: 0 hr 7 min 28 sec) 
Heartbeat CPU 0 instructions: 16000000 cycles: 4264383 heartbeat IPC: 3.96896 cumulative IPC: 3.75201 (Simulation time: 0 hr 8 min 32 sec) 
Heartbeat CPU 0 instructions: 18000003 cycles: 4765972 heartbeat IPC: 3.98733 cumulative IPC: 3.77677 (Simulation time: 0 hr 9 min 33 sec) 
Heartbeat CPU 0 instructions: 20000002 cycles: 5305305 heartbeat IPC: 3.70828 cumulative IPC: 3.76981 (Simulation time: 0 hr 10 min 38 sec) 
Heartbeat CPU 0 instructions: 22000004 cycles: 5842279 heartbeat IPC: 3.72458 cumulative IPC: 3.76565 (Simulation time: 0 hr 11 min 43 sec) 
Heartbeat CPU 0 instructions: 24000000 cycles: 6378043 heartbeat IPC: 3.73298 cumulative IPC: 3.76291 (Simulation time: 0 hr 12 min 50 sec) 
Heartbeat CPU 0 instructions: 26000002 cycles: 6916019 heartbeat IPC: 3.71764 cumulative IPC: 3.75939 (Simulation time: 0 hr 13 min 56 sec) 
Heartbeat CPU 0 instructions: 28000002 cycles: 7452454 heartbeat IPC: 3.72832 cumulative IPC: 3.75715 (Simulation time: 0 hr 15 min 1 sec) 
Heartbeat CPU 0 instructions: 30000002 cycles: 7987706 heartbeat IPC: 3.73656 cumulative IPC: 3.75577 (Simulation time: 0 hr 16 min 6 sec) 
Heartbeat CPU 0 instructions: 32000002 cycles: 8524959 heartbeat IPC: 3.72264 cumulative IPC: 3.75368 (Simulation time: 0 hr 17 min 12 sec) 
Heartbeat CPU 0 instructions: 34000000 cycles: 9064136 heartbeat IPC: 3.70935 cumulative IPC: 3.75105 (Simulation time: 0 hr 18 min 21 sec) 
Heartbeat CPU 0 instructions: 36000003 cycles: 9601672 heartbeat IPC: 3.72069 cumulative IPC: 3.74935 (Simulation time: 0 hr 19 min 30 sec) 
Heartbeat CPU 0 instructions: 38000001 cycles: 10139281 heartbeat IPC: 3.72017 cumulative IPC: 3.7478 (Simulation time: 0 hr 20 min 38 sec) 
Heartbeat CPU 0 instructions: 40000001 cycles: 10675844 heartbeat IPC: 3.72743 cumulative IPC: 3.74678 (Simulation time: 0 hr 21 min 43 sec) 
Heartbeat CPU 0 instructions: 42000000 cycles: 11213556 heartbeat IPC: 3.71946 cumulative IPC: 3.74547 (Simulation time: 0 hr 22 min 48 sec) 
Heartbeat CPU 0 instructions: 44000000 cycles: 11751091 heartbeat IPC: 3.72069 cumulative IPC: 3.74433 (Simulation time: 0 hr 23 min 54 sec) 
Heartbeat CPU 0 instructions: 46000003 cycles: 12288903 heartbeat IPC: 3.71878 cumulative IPC: 3.74321 (Simulation time: 0 hr 25 min 1 sec) 
Heartbeat CPU 0 instructions: 48000002 cycles: 12826714 heartbeat IPC: 3.71878 cumulative IPC: 3.74219 (Simulation time: 0 hr 26 min 5 sec) 
Heartbeat CPU 0 instructions: 50000000 cycles: 13363855 heartbeat IPC: 3.72341 cumulative IPC: 3.74144 (Simulation time: 0 hr 27 min 10 sec) 

Warmup complete CPU 0 instructions: 50000004 cycles: 13363856 (Simulation time: 0 hr 27 min 10 sec) 

Heartbeat CPU 0 instructions: 52000003 cycles: 14537660 heartbeat IPC: 1.70386 cumulative IPC: 1.70386 (Simulation time: 0 hr 28 min 1 sec) 

Region of Interest Statistics
cpu0_DTLB TOTAL     ACCESS:     288314  HIT:     288314  MISS:          0
cpu0_DTLB LOAD      ACCESS:     249983  HIT:     249983  MISS:          0
cpu0_DTLB RFO       ACCESS:      38331  HIT:      38331  MISS:          0
cpu0_DTLB PREFETCH  ACCESS:          0  HIT:          0  MISS:          0
cpu0_DTLB WRITEBACK ACCESS:          0  HIT:          0  MISS:          0
cpu0_ITLB TOTAL     ACCESS:     243302  HIT:     243302  MISS:          0
cpu0_ITLB LOAD      ACCESS:     243302  HIT:     243302  MISS:          0
cpu0_ITLB RFO       ACCESS:          0  HIT:          0  MISS:          0
cpu0_ITLB PREFETCH  ACCESS:          0  HIT:          0  MISS:          0
cpu0_ITLB WRITEBACK ACCESS:          0  HIT:          0  MISS:          0
cpu0_L1I TOTAL     ACCESS:       4850  HIT:       4850  MISS:          0
cpu0_L1I LOAD      ACCESS:       4850  HIT:       4850  MISS:          0
cpu0_L1I RFO       ACCESS:          0  HIT:          0  MISS:          0
cpu0_L1I PREFETCH  ACCESS:          0  HIT:          0  MISS:          0
cpu0_L1I WRITEBACK ACCESS:          0  HIT:          0  MISS:          0
cpu0_L1D TOTAL     ACCESS:     326607  HIT:     326601  MISS:          6
cpu0_L1D LOAD      ACCESS:     261670  HIT:     261670  MISS:          0
cpu0_L1D RFO       ACCESS:      64937  HIT:      64931  MISS:          6
cpu0_L1D PREFETCH  ACCESS:          0  HIT:          0  MISS:          0
cpu0_L1D WRITEBACK ACCESS:          0  HIT:          0  MISS:          0
cpu0_L2C TOTAL     ACCESS:          8  HIT:          2  MISS:          6
cpu0_L2C LOAD      ACCESS:          0  HIT:          0  MISS:          0
cpu0_L2C RFO       ACCESS:          6  HIT:          0  MISS:          6
cpu0_L2C PREFETCH  ACCESS:          0  HIT:          0  MISS:          0
cpu0_L2C WRITEBACK ACCESS:          2  HIT:          2  MISS:          0
LLC TOTAL     ACCESS:         12  HIT:          6  MISS:          6
LLC LOAD      ACCESS:          0  HIT:          0  MISS:          0
LLC RFO       ACCESS:          6  HIT:          0  MISS:          6
LLC PREFETCH  ACCESS:          0  HIT:          0  MISS:          0
LLC WRITEBACK ACCESS:          6  HIT:          6  MISS:          0
Heartbeat CPU 0 instructions: 54000003 cycles: 15723778 heartbeat IPC: 1.68617 cumulative IPC: 1.69497 (Simulation time: 0 hr 28 min 51 sec) 

Region of Interest Statistics
cpu0_DTLB TOTAL     ACCESS:     576657  HIT:     576657  MISS:          0
cpu0_DTLB LOAD      ACCESS:     498954  HIT:     498954  MISS:          0
cpu0_DTLB RFO       ACCESS:      77703  HIT:      77703  MISS:          0
cpu0_DTLB PREFETCH  ACCESS:          0  HIT:          0  MISS:          0
cpu0_DTLB WRITEBACK ACCESS:          0  HIT:          0  MISS:          0
cpu0_ITLB TOTAL     ACCESS:     486663  HIT:     486663  MISS:          0
cpu0_ITLB LOAD      ACCESS:     486663  HIT:     486663  MISS:          0
cpu0_ITLB RFO       ACCESS:          0  HIT:          0  MISS:          0
cpu0_ITLB PREFETCH  ACCESS:          0  HIT:          0  MISS:          0
cpu0_ITLB WRITEBACK ACCESS:          0  HIT:          0  MISS:          0
cpu0_L1I TOTAL     ACCESS:      10396  HIT:      10396  MISS:          0
cpu0_L1I LOAD      ACCESS:      10396  HIT:      10396  MISS:          0
cpu0_L1I RFO       ACCESS:          0  HIT:          0  MISS:          0
cpu0_L1I PREFETCH  ACCESS:          0  HIT:          0  MISS:          0
cpu0_L1I WRITEBACK ACCESS:          0  HIT:          0  MISS:          0
cpu0_L1D TOTAL     ACCESS:     654106  HIT:     654090  MISS:         16
cpu0_L1D LOAD      ACCESS:     521833  HIT:     521832  MISS:          1
cpu0_L1D RFO       ACCESS:     132273  HIT:     132258  MISS:         15
cpu0_L1D PREFETCH  ACCESS:          0  HIT:          0  MISS:          0
cpu0_L1D WRITEBACK ACCESS:          0  HIT:          0  MISS:          0
cpu0_L2C TOTAL     ACCESS:         27  HIT:         11  MISS:         16
cpu0_L2C LOAD      ACCESS:          1  HIT:          0  MISS:          1
cpu0_L2C RFO       ACCESS:         15  HIT:          0  MISS:         15
cpu0_L2C PREFETCH  ACCESS:          0  HIT:          0  MISS:          0
cpu0_L2C WRITEBACK ACCESS:         11  HIT:         11  MISS:          0
LLC TOTAL     ACCESS:         32  HIT:         15  MISS:         17
LLC LOAD      ACCESS:          1  HIT:          0  MISS:          1
LLC RFO       ACCESS:         15  HIT:          0  MISS:         15
LLC PREFETCH  ACCESS:          0  HIT:          0  MISS:          0
LLC WRITEBACK ACCESS:         16  HIT:         15  MISS:          1
Heartbeat CPU 0 instructions: 56000004 cycles: 16905725 heartbeat IPC: 1.69212 cumulative IPC: 1.69402 (Simulation time: 0 hr 29 min 44 sec) 

Region of Interest Statistics
cpu0_DTLB TOTAL     ACCESS:     864789  HIT:     864789  MISS:          0
cpu0_DTLB LOAD      ACCESS:     747698  HIT:     747698  MISS:          0
cpu0_DTLB RFO       ACCESS:     117091  HIT:     117091  MISS:          0
cpu0_DTLB PREFETCH  ACCESS:          0  HIT:          0  MISS:          0
cpu0_DTLB WRITEBACK ACCESS:          0  HIT:          0  MISS:          0
cpu0_ITLB TOTAL     ACCESS:     729352  HIT:     729352  MISS:          0
cpu0_ITLB LOAD      ACCESS:     729352  HIT:     729352  MISS:          0
cpu0_ITLB RFO       ACCESS:          0  HIT:          0  MISS:          0
cpu0_ITLB PREFETCH  ACCESS:          0  HIT:          0  MISS:          0
cpu0_ITLB WRITEBACK ACCESS:          0  HIT:          0  MISS:          0
cpu0_L1I TOTAL     ACCESS:      16026  HIT:      16026  MISS:          0
cpu0_L1I LOAD      ACCESS:      16026  HIT:      16026  MISS:          0
cpu0_L1I RFO       ACCESS:          0  HIT:          0  MISS:          0
cpu0_L1I PREFETCH  ACCESS:          0  HIT:          0  MISS:          0
cpu0_L1I WRITEBACK ACCESS:          0  HIT:          0  MISS:          0
cpu0_L1D TOTAL     ACCESS:     983022  HIT:     982994  MISS:         28
cpu0_L1D LOAD      ACCESS:     783048  HIT:     783046  MISS:          2
cpu0_L1D RFO       ACCESS:     199974  HIT:     199948  MISS:         26
cpu0_L1D PREFETCH  ACCESS:          0  HIT:          0  MISS:          0
cpu0_L1D WRITEBACK ACCESS:          0  HIT:          0  MISS:          0
cpu0_L2C TOTAL     ACCESS:         49  HIT:         21  MISS:         28
cpu0_L2C LOAD      ACCESS:          2  HIT:          0  MISS:          2
cpu0_L2C RFO       ACCESS:         26  HIT:          0  MISS:         26
cpu0_L2C PREFETCH  ACCESS:          0  HIT:          0  MISS:          0
cpu0_L2C WRITEBACK ACCESS:         21  HIT:         21  MISS:          0
LLC TOTAL     ACCESS:         56  HIT:         26  MISS:         30
LLC LOAD      ACCESS:          2  HIT:          0  MISS:          2
LLC RFO       ACCESS:         26  HIT:          0  MISS:         26
LLC PREFETCH  ACCESS:          0  HIT:          0  MISS:          0
LLC WRITEBACK ACCESS:         28  HIT:         26  MISS:          2
Heartbeat CPU 0 instructions: 58000000 cycles: 18087995 heartbeat IPC: 1.69166 cumulative IPC: 1.69343 (Simulation time: 0 hr 30 min 38 sec) 

Region of Interest Statistics
cpu0_DTLB TOTAL     ACCESS:    1152985  HIT:    1152985  MISS:          0
cpu0_DTLB LOAD      ACCESS:     996432  HIT:     996432  MISS:          0
cpu0_DTLB RFO       ACCESS:     156553  HIT:     156553  MISS:          0
cpu0_DTLB PREFETCH  ACCESS:          0  HIT:          0  MISS:          0
cpu0_DTLB WRITEBACK ACCESS:          0  HIT:          0  MISS:          0
cpu0_ITLB TOTAL     ACCESS:     971797  HIT:     971797  MISS:          0
cpu0_ITLB LOAD      ACCESS:     971797  HIT:     971797  MISS:          0
cpu0_ITLB RFO       ACCESS:          0  HIT:          0  MISS:          0
cpu0_ITLB PREFETCH  ACCESS:          0  HIT:          0  MISS:          0
cpu0_ITLB WRITEBACK ACCESS:          0  HIT:          0  MISS:          0
cpu0_L1I TOTAL     ACCESS:      21685  HIT:      21685  MISS:          0
cpu0_L1I LOAD      ACCESS:      21685  HIT:      21685  MISS:          0
cpu0_L1I RFO       ACCESS:          0  HIT:          0  MISS:          0
cpu0_L1I PREFETCH  ACCESS:          0  HIT:          0  MISS:          0
cpu0_L1I WRITEBACK ACCESS:          0  HIT:          0  MISS:          0
cpu0_L1D TOTAL     ACCESS:    1312767  HIT:    1312729  MISS:         38
cpu0_L1D LOAD      ACCESS:    1044785  HIT:    1044782  MISS:          3
cpu0_L1D RFO       ACCESS:     267982  HIT:     267947  MISS:         35
cpu0_L1D PREFETCH  ACCESS:          0  HIT:          0  MISS:          0
cpu0_L1D WRITEBACK ACCESS:          0  HIT:          0  MISS:          0
cpu0_L2C TOTAL     ACCESS:         69  HIT:         31  MISS:         38
cpu0_L2C LOAD      ACCESS:          3  HIT:          0  MISS:          3
cpu0_L2C RFO       ACCESS:         35  HIT:          0  MISS:         35
cpu0_L2C PREFETCH  ACCESS:          0  HIT:          0  MISS:          0
cpu0_L2C WRITEBACK ACCESS:         31  HIT:         31  MISS:          0
LLC TOTAL     ACCESS:         76  HIT:         35  MISS:         41
LLC LOAD      ACCESS:          3  HIT:          0  MISS:          3
LLC RFO       ACCESS:         35  HIT:          0  MISS:         35
LLC PREFETCH  ACCESS:          0  HIT:          0  MISS:          0
LLC WRITEBACK ACCESS:         38  HIT:         35  MISS:          3
Heartbeat CPU 0 instructions: 60000001 cycles: 19261524 heartbeat IPC: 1.70426 cumulative IPC: 1.69558 (Simulation time: 0 hr 31 min 32 sec) 

Region of Interest Statistics
cpu0_DTLB TOTAL     ACCESS:    1441205  HIT:    1441205  MISS:          0
cpu0_DTLB LOAD      ACCESS:    1246180  HIT:    1246180  MISS:          0
cpu0_DTLB RFO       ACCESS:     195025  HIT:     195025  MISS:          0
cpu0_DTLB PREFETCH  ACCESS:          0  HIT:          0  MISS:          0
cpu0_DTLB WRITEBACK ACCESS:          0  HIT:          0  MISS:          0
cpu0_ITLB TOTAL     ACCESS:    1214791  HIT:    1214791  MISS:          0
cpu0_ITLB LOAD      ACCESS:    1214791  HIT:    1214791  MISS:          0
cpu0_ITLB RFO       ACCESS:          0  HIT:          0  MISS:          0
cpu0_ITLB PREFETCH  ACCESS:          0  HIT:          0  MISS:          0
cpu0_ITLB WRITEBACK ACCESS:          0  HIT:          0  MISS:          0
cpu0_L1I TOTAL     ACCESS:      26641  HIT:      26641  MISS:          0
cpu0_L1I LOAD      ACCESS:      26641  HIT:      26641  MISS:          0
cpu0_L1I RFO       ACCESS:          0  HIT:          0  MISS:          0
cpu0_L1I PREFETCH  ACCESS:          0  HIT:          0  MISS:          0
cpu0_L1I WRITEBACK ACCESS:          0  HIT:          0  MISS:          0
cpu0_L1D TOTAL     ACCESS:    1640270  HIT:    1640225  MISS:         45
cpu0_L1D LOAD      ACCESS:    1306806  HIT:    1306802  MISS:          4
cpu0_L1D RFO       ACCESS:     333464  HIT:     333423  MISS:         41
cpu0_L1D PREFETCH  ACCESS:          0  HIT:          0  MISS:          0
cpu0_L1D WRITEBACK ACCESS:          0  HIT:          0  MISS:          0
cpu0_L2C TOTAL     ACCESS:         82  HIT:         37  MISS:         45
cpu0_L2C LOAD      ACCESS:          4  HIT:          0  MISS:          4
cpu0_L2C RFO       ACCESS:         41  HIT:          0  MISS:         41
cpu0_L2C PREFETCH  ACCESS:          0  HIT:          0  MISS:          0
cpu0_L2C WRITEBACK ACCESS:         37  HIT:         37  MISS:          0
LLC TOTAL     ACCESS:         90  HIT:         41  MISS:         49
LLC LOAD      ACCESS:          4  HIT:          0  MISS:          4
LLC RFO       ACCESS:         41  HIT:          0  MISS:         41
LLC PREFETCH  ACCESS:          0  HIT:          0  MISS:          0
LLC WRITEBACK ACCESS:         45  HIT:         41  MISS:          4
Heartbeat CPU 0 instructions: 62000003 cycles: 20448607 heartbeat IPC: 1.6848 cumulative IPC: 1.69378 (Simulation time: 0 hr 32 min 23 sec) 

Region of Interest Statistics
cpu0_DTLB TOTAL     ACCESS:    1729479  HIT:    1729479  MISS:          0
cpu0_DTLB LOAD      ACCESS:    1494827  HIT:    1494827  MISS:          0
cpu0_DTLB RFO       ACCESS:     234652  HIT:     234652  MISS:          0
cpu0_DTLB PREFETCH  ACCESS:          0  HIT:          0  MISS:          0
cpu0_DTLB WRITEBACK ACCESS:          0  HIT:          0  MISS:          0
cpu0_ITLB TOTAL     ACCESS:    1457604  HIT:    1457604  MISS:          0
cpu0_ITLB LOAD      ACCESS:    1457604  HIT:    1457604  MISS:          0
cpu0_ITLB RFO       ACCESS:          0  HIT:          0  MISS:          0
cpu0_ITLB PREFETCH  ACCESS:          0  HIT:          0  MISS:          0
cpu0_ITLB WRITEBACK ACCESS:          0  HIT:          0  MISS:          0
cpu0_L1I TOTAL     ACCESS:      32199  HIT:      32199  MISS:          0
cpu0_L1I LOAD      ACCESS:      32199  HIT:      32199  MISS:          0
cpu0_L1I RFO       ACCESS:          0  HIT:          0  MISS:          0
cpu0_L1I PREFETCH  ACCESS:          0  HIT:          0  MISS:          0
cpu0_L1I WRITEBACK ACCESS:          0  HIT:          0  MISS:          0
cpu0_L1D TOTAL     ACCESS:    1969543  HIT:    1969488  MISS:         55
cpu0_L1D LOAD      ACCESS:    1568155  HIT:    1568150  MISS:          5
cpu0_L1D RFO       ACCESS:     401388  HIT:     401338  MISS:         50
cpu0_L1D PREFETCH  ACCESS:          0  HIT:          0  MISS:          0
cpu0_L1D WRITEBACK ACCESS:          0  HIT:          0  MISS:          0
cpu0_L2C TOTAL     ACCESS:        102  HIT:         47  MISS:         55
cpu0_L2C LOAD      ACCESS:          5  HIT:          0  MISS:          5
cpu0_L2C RFO       ACCESS:         50  HIT:          0  MISS:         50
cpu0_L2C PREFETCH  ACCESS:          0  HIT:          0  MISS:          0
cpu0_L2C WRITEBACK ACCESS:         47  HIT:         47  MISS:          0
LLC TOTAL     ACCESS:        110  HIT:         50  MISS:         60
LLC LOAD      ACCESS:          5  HIT:          0  MISS:          5
LLC RFO       ACCESS:         50  HIT:          0  MISS:         50
LLC PREFETCH  ACCESS:          0  HIT:          0  MISS:          0
LLC WRITEBACK ACCESS:         55  HIT:         50  MISS:          5
Heartbeat CPU 0 instructions: 64000001 cycles: 21633599 heartbeat IPC: 1.68777 cumulative IPC: 1.69292 (Simulation time: 0 hr 33 min 20 sec) 

Region of Interest Statistics
cpu0_DTLB TOTAL     ACCESS:    2017716  HIT:    2017707  MISS:          9
cpu0_DTLB LOAD      ACCESS:    1741981  HIT:    1741980  MISS:          1
cpu0_DTLB RFO       ACCESS:     275735  HIT:     275727  MISS:          8
cpu0_DTLB PREFETCH  ACCESS:          0  HIT:          0  MISS:          0
cpu0_DTLB WRITEBACK ACCESS:          0  HIT:          0  MISS:          0
cpu0_ITLB TOTAL     ACCESS:    1694456  HIT:    1694456  MISS:          0
cpu0_ITLB LOAD      ACCESS:    1694456  HIT:    1694456  MISS:          0
cpu0_ITLB RFO       ACCESS:          0  HIT:          0  MISS:          0
cpu0_ITLB PREFETCH  ACCESS:          0  HIT:          0  MISS:          0
cpu0_ITLB WRITEBACK ACCESS:          0  HIT:          0  MISS:          0
cpu0_L1I TOTAL     ACCESS:      47207  HIT:      47207  MISS:          0
cpu0_L1I LOAD      ACCESS:      47207  HIT:      47207  MISS:          0
cpu0_L1I RFO       ACCESS:          0  HIT:          0  MISS:          0
cpu0_L1I PREFETCH  ACCESS:          0  HIT:          0  MISS:          0
cpu0_L1I WRITEBACK ACCESS:          0  HIT:          0  MISS:          0
cpu0_STLB TOTAL     ACCESS:          9  HIT:          0  MISS:          9
cpu0_STLB LOAD      ACCESS:          1  HIT:          0  MISS:          1
cpu0_STLB RFO       ACCESS:          8  HIT:          0  MISS:          8
cpu0_STLB PREFETCH  ACCESS:          0  HIT:          0  MISS:          0
cpu0_STLB WRITEBACK ACCESS:          0  HIT:          0  MISS:          0
cpu0_L1D TOTAL     ACCESS:    2300845  HIT:    2300205  MISS:        640
cpu0_L1D LOAD      ACCESS:    1828097  HIT:    1828023  MISS:         74
cpu0_L1D RFO       ACCESS:     472739  HIT:     472174  MISS:        565
cpu0_L1D PREFETCH  ACCESS:          0  HIT:          0  MISS:          0
cpu0_L1D WRITEBACK ACCESS:          0  HIT:          0  MISS:          0
cpu0_L2C TOTAL     ACCESS:       1206  HIT:        592  MISS:        614
cpu0_L2C LOAD      ACCESS:         74  HIT:         19  MISS:         55
cpu0_L2C RFO       ACCESS:        565  HIT:          6  MISS:        559
cpu0_L2C PREFETCH  ACCESS:          0  HIT:          0  MISS:          0
cpu0_L2C WRITEBACK ACCESS:        566  HIT:        566  MISS:          0
LLC TOTAL     ACCESS:       1209  HIT:        260  MISS:        949
LLC LOAD      ACCESS:         55  HIT:          0  MISS:         55
LLC RFO       ACCESS:        559  HIT:          0  MISS:        559
LLC PREFETCH  ACCESS:          0  HIT:          0  MISS:          0
LLC WRITEBACK ACCESS:        595  HIT:        260  MISS:        335
Heartbeat CPU 0 instructions: 66000001 cycles: 22816270 heartbeat IPC: 1.69109 cumulative IPC: 1.69269 (Simulation time: 0 hr 34 min 11 sec) 

Region of Interest Statistics
cpu0_DTLB TOTAL     ACCESS:    2305927  HIT:    2305918  MISS:          9
cpu0_DTLB LOAD      ACCESS:    1990723  HIT:    1990722  MISS:          1
cpu0_DTLB RFO       ACCESS:     315204  HIT:     315196  MISS:          8
cpu0_DTLB PREFETCH  ACCESS:          0  HIT:          0  MISS:          0
cpu0_DTLB WRITEBACK ACCESS:          0  HIT:          0  MISS:          0
cpu0_ITLB TOTAL     ACCESS:    1936914  HIT:    1936914  MISS:          0
cpu0_ITLB LOAD      ACCESS:    1936914  HIT:    1936914  MISS:          0
cpu0_ITLB RFO       ACCESS:          0  HIT:          0  MISS:          0
cpu0_ITLB PREFETCH  ACCESS:          0  HIT:          0  MISS:          0
cpu0_ITLB WRITEBACK ACCESS:          0  HIT:          0  MISS:          0
cpu0_L1I TOTAL     ACCESS:      52854  HIT:      52854  MISS:          0
cpu0_L1I LOAD      ACCESS:      52854  HIT:      52854  MISS:          0
cpu0_L1I RFO       ACCESS:          0  HIT:          0  MISS:          0
cpu0_L1I PREFETCH  ACCESS:          0  HIT:          0  MISS:          0
cpu0_L1I WRITEBACK ACCESS:          0  HIT:          0  MISS:          0
cpu0_STLB TOTAL     ACCESS:          9  HIT:          0  MISS:          9
cpu0_STLB LOAD      ACCESS:          1  HIT:          0  MISS:          1
cpu0_STLB RFO       ACCESS:          8  HIT:          0  MISS:          8
cpu0_STLB PREFETCH  ACCESS:          0  HIT:          0  MISS:          0
cpu0_STLB WRITEBACK ACCESS:          0  HIT:          0  MISS:          0
cpu0_L1D TOTAL     ACCESS:    2630561  HIT:    2629909  MISS:        652
cpu0_L1D LOAD      ACCESS:    2089824  HIT:    2089748  MISS:         76
cpu0_L1D RFO       ACCESS:     540728  HIT:     540153  MISS:        575
cpu0_L1D PREFETCH  ACCESS:          0  HIT:          0  MISS:          0
cpu0_L1D WRITEBACK ACCESS:          0  HIT:          0  MISS:          0
cpu0_L2C TOTAL     ACCESS:       1230  HIT:        604  MISS:        626
cpu0_L2C LOAD      ACCESS:         76  HIT:         19  MISS:         57
cpu0_L2C RFO       ACCESS:        575  HIT:          6  MISS:        569
cpu0_L2C PREFETCH  ACCESS:          0  HIT:          0  MISS:          0
cpu0_L2C WRITEBACK ACCESS:        578  HIT:        578  MISS:          0
LLC TOTAL     ACCESS:       1233  HIT:        263  MISS:        970
LLC LOAD      ACCESS:         57  HIT:          0  MISS:         57
LLC RFO       ACCESS:        569  HIT:          0  MISS:        569
LLC PREFETCH  ACCESS:          0  HIT:          0  MISS:          0
LLC WRITEBACK ACCESS:        607  HIT:        263  MISS:        344
Heartbeat CPU 0 instructions: 68000000 cycles: 23992098 heartbeat IPC: 1.70093 cumulative IPC: 1.6936 (Simulation time: 0 hr 35 min 5 sec) 

Region of Interest Statistics
cpu0_DTLB TOTAL     ACCESS:    2594505  HIT:    2594496  MISS:          9
cpu0_DTLB LOAD      ACCESS:    2241043  HIT:    2241042  MISS:          1
cpu0_DTLB RFO       ACCESS:     353462  HIT:     353454  MISS:          8
cpu0_DTLB PREFETCH  ACCESS:          0  HIT:          0  MISS:          0
cpu0_DTLB WRITEBACK ACCESS:          0  HIT:          0  MISS:          0
cpu0_ITLB TOTAL     ACCESS:    2180667  HIT:    2180667  MISS:          0
cpu0_ITLB LOAD      ACCESS:    2180667  HIT:    2180667  MISS:          0
cpu0_ITLB RFO       ACCESS:          0  HIT:          0  MISS:          0
cpu0_ITLB PREFETCH  ACCESS:          0  HIT:          0  MISS:          0
cpu0_ITLB WRITEBACK ACCESS:          0  HIT:          0  MISS:          0
cpu0_L1I TOTAL     ACCESS:      57952  HIT:      57952  MISS:          0
cpu0_L1I LOAD      ACCESS:      57952  HIT:      57952  MISS:          0
cpu0_L1I RFO       ACCESS:          0  HIT:          0  MISS:          0
cpu0_L1I PREFETCH  ACCESS:          0  HIT:          0  MISS:          0
cpu0_L1I WRITEBACK ACCESS:          0  HIT:          0  MISS:          0
cpu0_STLB TOTAL     ACCESS:          9  HIT:          0  MISS:          9
cpu0_STLB LOAD      ACCESS:          1  HIT:          0  MISS:          1
cpu0_STLB RFO       ACCESS:          8  HIT:          0  MISS:          8
cpu0_STLB PREFETCH  ACCESS:          0  HIT:          0  MISS:          0
cpu0_STLB WRITEBACK ACCESS:          0  HIT:          0  MISS:          0
cpu0_L1D TOTAL     ACCESS:    2955838  HIT:    2955159  MISS:        679
cpu0_L1D LOAD      ACCESS:    2350594  HIT:    2350516  MISS:         78
cpu0_L1D RFO       ACCESS:     605235  HIT:     604635  MISS:        600
cpu0_L1D PREFETCH  ACCESS:          0  HIT:          0  MISS:          0
cpu0_L1D WRITEBACK ACCESS:          0  HIT:          0  MISS:          0
cpu0_L2C TOTAL     ACCESS:       1283  HIT:        630  MISS:        653
cpu0_L2C LOAD      ACCESS:         78  HIT:         19  MISS:         59
cpu0_L2C RFO       ACCESS:        600  HIT:          6  MISS:        594
cpu0_L2C PREFETCH  ACCESS:          0  HIT:          0  MISS:          0
cpu0_L2C WRITEBACK ACCESS:        604  HIT:        604  MISS:          0
LLC TOTAL     ACCESS:       1287  HIT:        276  MISS:       1011
LLC LOAD      ACCESS:         59  HIT:          0  MISS:         59
LLC RFO       ACCESS:        594  HIT:          0  MISS:        594
LLC PREFETCH  ACCESS:          0  HIT:          0  MISS:          0
LLC WRITEBACK ACCESS:        634  HIT:        276  MISS:        358
Heartbeat CPU 0 instructions: 70000000 cycles: 25179616 heartbeat IPC: 1.68419 cumulative IPC: 1.69265 (Simulation time: 0 hr 35 min 54 sec) 

Region of Interest Statistics
cpu0_DTLB TOTAL     ACCESS:    2882992  HIT:    2882981  MISS:         11
cpu0_DTLB LOAD      ACCESS:    2490162  HIT:    2490161  MISS:          1
cpu0_DTLB RFO       ACCESS:     392830  HIT:     392820  MISS:         10
cpu0_DTLB PREFETCH  ACCESS:          0  HIT:          0  MISS:          0
cpu0_DTLB WRITEBACK ACCESS:          0  HIT:          0  MISS:          0
cpu0_ITLB TOTAL     ACCESS:    2424075  HIT:    2424075  MISS:          0
cpu0_ITLB LOAD      ACCESS:    2424075  HIT:    2424075  MISS:          0
cpu0_ITLB RFO       ACCESS:          0  HIT:          0  MISS:          0
cpu0_ITLB PREFETCH  ACCESS:          0  HIT:          0  MISS:          0
cpu0_ITLB WRITEBACK ACCESS:          0  HIT:          0  MISS:          0
cpu0_L1I TOTAL     ACCESS:      63331  HIT:      63331  MISS:          0
cpu0_L1I LOAD      ACCESS:      63331  HIT:      63331  MISS:          0
cpu0_L1I RFO       ACCESS:          0  HIT:          0  MISS:          0
cpu0_L1I PREFETCH  ACCESS:          0  HIT:          0  MISS:          0
cpu0_L1I WRITEBACK ACCESS:          0  HIT:          0  MISS:          0
cpu0_STLB TOTAL     ACCESS:         11  HIT:          0  MISS:         11
cpu0_STLB LOAD      ACCESS:          1  HIT:          0  MISS:          1
cpu0_STLB RFO       ACCESS:         10  HIT:          0  MISS:         10
cpu0_STLB PREFETCH  ACCESS:          0  HIT:          0  MISS:          0
cpu0_STLB WRITEBACK ACCESS:          0  HIT:          0  MISS:          0
cpu0_L1D TOTAL     ACCESS:    3284005  HIT:    3283316  MISS:        689
cpu0_L1D LOAD      ACCESS:    2611315  HIT:    2611236  MISS:         79
cpu0_L1D RFO       ACCESS:     672679  HIT:     672070  MISS:        609
cpu0_L1D PREFETCH  ACCESS:          0  HIT:          0  MISS:          0
cpu0_L1D WRITEBACK ACCESS:          0  HIT:          0  MISS:          0
cpu0_L2C TOTAL     ACCESS:       1303  HIT:        640  MISS:        663
cpu0_L2C LOAD      ACCESS:         79  HIT:         19  MISS:         60
cpu0_L2C RFO       ACCESS:        609  HIT:          6  MISS:        603
cpu0_L2C PREFETCH  ACCESS:          0  HIT:          0  MISS:          0
cpu0_L2C WRITEBACK ACCESS:        614  HIT:        614  MISS:          0
LLC TOTAL     ACCESS:       1307  HIT:        284  MISS:       1023
LLC LOAD      ACCESS:         60  HIT:          0  MISS:         60
LLC RFO       ACCESS:        603  HIT:          0  MISS:        603
LLC PREFETCH  ACCESS:          0  HIT:          0  MISS:          0
LLC WRITEBACK ACCESS:        644  HIT:        284  MISS:        360
Heartbeat CPU 0 instructions: 72000001 cycles: 26363700 heartbeat IPC: 1.68907 cumulative IPC: 1.69233 (Simulation time: 0 hr 36 min 45 sec) 

Region of Interest Statistics
cpu0_DTLB TOTAL     ACCESS:    3171657  HIT:    3171646  MISS:         11
cpu0_DTLB LOAD      ACCESS:    2739948  HIT:    2739947  MISS:          1
cpu0_DTLB RFO       ACCESS:     431709  HIT:     431699  MISS:         10
cpu0_DTLB PREFETCH  ACCESS:          0  HIT:          0  MISS:          0
cpu0_DTLB WRITEBACK ACCESS:          0  HIT:          0  MISS:          0
cpu0_ITLB TOTAL     ACCESS:    2668449  HIT:    2668449  MISS:          0
cpu0_ITLB LOAD      ACCESS:    2668449  HIT:    2668449  MISS:          0
cpu0_ITLB RFO       ACCESS:          0  HIT:          0  MISS:          0
cpu0_ITLB PREFETCH  ACCESS:          0  HIT:          0  MISS:          0
cpu0_ITLB WRITEBACK ACCESS:          0  HIT:          0  MISS:          0
cpu0_L1I TOTAL     ACCESS:      68623  HIT:      68623  MISS:          0
cpu0_L1I LOAD      ACCESS:      68623  HIT:      68623  MISS:          0
cpu0_L1I RFO       ACCESS:          0  HIT:          0  MISS:          0
cpu0_L1I PREFETCH  ACCESS:          0  HIT:          0  MISS:          0
cpu0_L1I WRITEBACK ACCESS:          0  HIT:          0  MISS:          0
cpu0_STLB TOTAL     ACCESS:         11  HIT:          0  MISS:         11
cpu0_STLB LOAD      ACCESS:          1  HIT:          0  MISS:          1
cpu0_STLB RFO       ACCESS:         10  HIT:          0  MISS:         10
cpu0_STLB PREFETCH  ACCESS:          0  HIT:          0  MISS:          0
cpu0_STLB WRITEBACK ACCESS:          0  HIT:          0  MISS:          0
cpu0_L1D TOTAL     ACCESS:    3609093  HIT:    3608394  MISS:        699
cpu0_L1D LOAD      ACCESS:    2870306  HIT:    2870226  MISS:         80
cpu0_L1D RFO       ACCESS:     738776  HIT:     738158  MISS:        618
cpu0_L1D PREFETCH  ACCESS:          0  HIT:          0  MISS:          0
cpu0_L1D WRITEBACK ACCESS:          0  HIT:          0  MISS:          0
cpu0_L2C TOTAL     ACCESS:       1322  HIT:        649  MISS:        673
cpu0_L2C LOAD      ACCESS:         80  HIT:         19  MISS:         61
cpu0_L2C RFO       ACCESS:        618  HIT:          6  MISS:        612
cpu0_L2C PREFETCH  ACCESS:          0  HIT:          0  MISS:          0
cpu0_L2C WRITEBACK ACCESS:        623  HIT:        623  MISS:          0
LLC TOTAL     ACCESS:       1327  HIT:        293  MISS:       1034
LLC LOAD      ACCESS:         61  HIT:          0  MISS:         61
LLC RFO       ACCESS:        612  HIT:          0  MISS:        612
LLC PREFETCH  ACCESS:          0  HIT:          0  MISS:          0
LLC WRITEBACK ACCESS:        654  HIT:        293  MISS:        361
Heartbeat CPU 0 instructions: 74000000 cycles: 27540982 heartbeat IPC: 1.69883 cumulative IPC: 1.69287 (Simulation time: 0 hr 37 min 34 sec) 

Region of Interest Statistics
cpu0_DTLB TOTAL     ACCESS:    3460423  HIT:    3460412  MISS:         11
cpu0_DTLB LOAD      ACCESS:    2990556  HIT:    2990555  MISS:          1
cpu0_DTLB RFO       ACCESS:     469867  HIT:     469857  MISS:         10
cpu0_DTLB PREFETCH  ACCESS:          0  HIT:          0  MISS:          0
cpu0_DTLB WRITEBACK ACCESS:          0  HIT:          0  MISS:          0
cpu0_ITLB TOTAL     ACCESS:    2912636  HIT:    2912636  MISS:          0
cpu0_ITLB LOAD      ACCESS:    2912636  HIT:    2912636  MISS:          0
cpu0_ITLB RFO       ACCESS:          0  HIT:          0  MISS:          0
cpu0_ITLB PREFETCH  ACCESS:          0  HIT:          0  MISS:          0
cpu0_ITLB WRITEBACK ACCESS:          0  HIT:          0  MISS:          0
cpu0_L1I TOTAL     ACCESS:      73247  HIT:      73247  MISS:          0
cpu0_L1I LOAD      ACCESS:      73247  HIT:      73247  MISS:          0
cpu0_L1I RFO       ACCESS:          0  HIT:          0  MISS:          0
cpu0_L1I PREFETCH  ACCESS:          0  HIT:          0  MISS:          0
cpu0_L1I WRITEBACK ACCESS:          0  HIT:          0  MISS:          0
cpu0_STLB TOTAL     ACCESS:         11  HIT:          0  MISS:         11
cpu0_STLB LOAD      ACCESS:          1  HIT:          0  MISS:          1
cpu0_STLB RFO       ACCESS:         10  HIT:          0  MISS:         10
cpu0_STLB PREFETCH  ACCESS:          0  HIT:          0  MISS:          0
cpu0_STLB WRITEBACK ACCESS:          0  HIT:          0  MISS:          0
cpu0_L1D TOTAL     ACCESS:    3934394  HIT:    3933687  MISS:        707
cpu0_L1D LOAD      ACCESS:    3131290  HIT:    3131209  MISS:         81
cpu0_L1D RFO       ACCESS:     803093  HIT:     802468  MISS:        625
cpu0_L1D PREFETCH  ACCESS:          0  HIT:          0  MISS:          0
cpu0_L1D WRITEBACK ACCESS:          0  HIT:          0  MISS:          0
cpu0_L2C TOTAL     ACCESS:       1337  HIT:        656  MISS:        681
cpu0_L2C LOAD      ACCESS:         81  HIT:         19  MISS:         62
cpu0_L2C RFO       ACCESS:        625  HIT:          6  MISS:        619
cpu0_L2C PREFETCH  ACCESS:          0  HIT:          0  MISS:          0
cpu0_L2C WRITEBACK ACCESS:        630  HIT:        630  MISS:          0
LLC TOTAL     ACCESS:       1343  HIT:        300  MISS:       1043
LLC LOAD      ACCESS:         62  HIT:          0  MISS:         62
LLC RFO       ACCESS:        619  HIT:          0  MISS:        619
LLC PREFETCH  ACCESS:          0  HIT:          0  MISS:          0
LLC WRITEBACK ACCESS:        662  HIT:        300  MISS:        362
Heartbeat CPU 0 instructions: 76000002 cycles: 28727749 heartbeat IPC: 1.68525 cumulative IPC: 1.69228 (Simulation time: 0 hr 38 min 23 sec) 

Region of Interest Statistics
cpu0_DTLB TOTAL     ACCESS:    3748845  HIT:    3748834  MISS:         11
cpu0_DTLB LOAD      ACCESS:    3239596  HIT:    3239595  MISS:          1
cpu0_DTLB RFO       ACCESS:     509249  HIT:     509239  MISS:         10
cpu0_DTLB PREFETCH  ACCESS:          0  HIT:          0  MISS:          0
cpu0_DTLB WRITEBACK ACCESS:          0  HIT:          0  MISS:          0
cpu0_ITLB TOTAL     ACCESS:    3155920  HIT:    3155920  MISS:          0
cpu0_ITLB LOAD      ACCESS:    3155920  HIT:    3155920  MISS:          0
cpu0_ITLB RFO       ACCESS:          0  HIT:          0  MISS:          0
cpu0_ITLB PREFETCH  ACCESS:          0  HIT:          0  MISS:          0
cpu0_ITLB WRITEBACK ACCESS:          0  HIT:          0  MISS:          0
cpu0_L1I TOTAL     ACCESS:      78643  HIT:      78643  MISS:          0
cpu0_L1I LOAD      ACCESS:      78643  HIT:      78643  MISS:          0
cpu0_L1I RFO       ACCESS:          0  HIT:          0  MISS:          0
cpu0_L1I PREFETCH  ACCESS:          0  HIT:          0  MISS:          0
cpu0_L1I WRITEBACK ACCESS:          0  HIT:          0  MISS:          0
cpu0_STLB TOTAL     ACCESS:         11  HIT:          0  MISS:         11
cpu0_STLB LOAD      ACCESS:          1  HIT:          0  MISS:          1
cpu0_STLB RFO       ACCESS:         10  HIT:          0  MISS:         10
cpu0_STLB PREFETCH  ACCESS:          0  HIT:          0  MISS:          0
cpu0_STLB WRITEBACK ACCESS:          0  HIT:          0  MISS:          0
cpu0_L1D TOTAL     ACCESS:    4262777  HIT:    4262060  MISS:        717
cpu0_L1D LOAD      ACCESS:    3392149  HIT:    3392068  MISS:         81
cpu0_L1D RFO       ACCESS:     870617  HIT:     869982  MISS:        635
cpu0_L1D PREFETCH  ACCESS:          0  HIT:          0  MISS:          0
cpu0_L1D WRITEBACK ACCESS:          0  HIT:          0  MISS:          0
cpu0_L2C TOTAL     ACCESS:       1354  HIT:        663  MISS:        691
cpu0_L2C LOAD      ACCESS:         81  HIT:         19  MISS:         62
cpu0_L2C RFO       ACCESS:        635  HIT:          6  MISS:        629
cpu0_L2C PREFETCH  ACCESS:          0  HIT:          0  MISS:          0
cpu0_L2C WRITEBACK ACCESS:        637  HIT:        637  MISS:          0
LLC TOTAL     ACCESS:       1363  HIT:        310  MISS:       1053
LLC LOAD      ACCESS:         62  HIT:          0  MISS:         62
LLC RFO       ACCESS:        629  HIT:          0  MISS:        629
LLC PREFETCH  ACCESS:          0  HIT:          0  MISS:          0
LLC WRITEBACK ACCESS:        672  HIT:        310  MISS:        362
Heartbeat CPU 0 instructions: 78000002 cycles: 29912052 heartbeat IPC: 1.68876 cumulative IPC: 1.69203 (Simulation time: 0 hr 39 min 14 sec) 

Region of Interest Statistics
cpu0_DTLB TOTAL     ACCESS:    4037523  HIT:    4037512  MISS:         11
cpu0_DTLB LOAD      ACCESS:    3489390  HIT:    3489389  MISS:          1
cpu0_DTLB RFO       ACCESS:     548133  HIT:     548123  MISS:         10
cpu0_DTLB PREFETCH  ACCESS:          0  HIT:          0  MISS:          0
cpu0_DTLB WRITEBACK ACCESS:          0  HIT:          0  MISS:          0
cpu0_ITLB TOTAL     ACCESS:    3400302  HIT:    3400302  MISS:          0
cpu0_ITLB LOAD      ACCESS:    3400302  HIT:    3400302  MISS:          0
cpu0_ITLB RFO       ACCESS:          0  HIT:          0  MISS:          0
cpu0_ITLB PREFETCH  ACCESS:          0  HIT:          0  MISS:          0
cpu0_ITLB WRITEBACK ACCESS:          0  HIT:          0  MISS:          0
cpu0_L1I TOTAL     ACCESS:      83938  HIT:      83938  MISS:          0
cpu0_L1I LOAD      ACCESS:      83938  HIT:      83938  MISS:          0
cpu0_L1I RFO       ACCESS:          0  HIT:          0  MISS:          0
cpu0_L1I PREFETCH  ACCESS:          0  HIT:          0  MISS:          0
cpu0_L1I WRITEBACK ACCESS:          0  HIT:          0  MISS:          0
cpu0_STLB TOTAL     ACCESS:         11  HIT:          0  MISS:         11
cpu0_STLB LOAD      ACCESS:          1  HIT:          0  MISS:          1
cpu0_STLB RFO       ACCESS:         10  HIT:          0  MISS:         10
cpu0_STLB PREFETCH  ACCESS:          0  HIT:          0  MISS:          0
cpu0_STLB WRITEBACK ACCESS:          0  HIT:          0  MISS:          0
cpu0_L1D TOTAL     ACCESS:    4587887  HIT:    4587159  MISS:        728
cpu0_L1D LOAD      ACCESS:    3651149  HIT:    3651066  MISS:         83
cpu0_L1D RFO       ACCESS:     936727  HIT:     936083  MISS:        644
cpu0_L1D PREFETCH  ACCESS:          0  HIT:          0  MISS:          0
cpu0_L1D WRITEBACK ACCESS:          0  HIT:          0  MISS:          0
cpu0_L2C TOTAL     ACCESS:       1373  HIT:        671  MISS:        702
cpu0_L2C LOAD      ACCESS:         83  HIT:         19  MISS:         64
cpu0_L2C RFO       ACCESS:        644  HIT:          6  MISS:        638
cpu0_L2C PREFETCH  ACCESS:          0  HIT:          0  MISS:          0
cpu0_L2C WRITEBACK ACCESS:        645  HIT:        645  MISS:          0
LLC TOTAL     ACCESS:       1385  HIT:        319  MISS:       1066
LLC LOAD      ACCESS:         64  HIT:          0  MISS:         64
LLC RFO       ACCESS:        638  HIT:          0  MISS:        638
LLC PREFETCH  ACCESS:          0  HIT:          0  MISS:          0
LLC WRITEBACK ACCESS:        683  HIT:        319  MISS:        364
Heartbeat CPU 0 instructions: 80000000 cycles: 31089581 heartbeat IPC: 1.69847 cumulative IPC: 1.69246 (Simulation time: 0 hr 40 min 1 sec) 

Region of Interest Statistics
cpu0_DTLB TOTAL     ACCESS:    4326325  HIT:    4326314  MISS:         11
cpu0_DTLB LOAD      ACCESS:    3740058  HIT:    3740057  MISS:          1
cpu0_DTLB RFO       ACCESS:     586267  HIT:     586257  MISS:         10
cpu0_DTLB PREFETCH  ACCESS:          0  HIT:          0  MISS:          0
cpu0_DTLB WRITEBACK ACCESS:          0  HIT:          0  MISS:          0
cpu0_ITLB TOTAL     ACCESS:    3644576  HIT:    3644576  MISS:          0
cpu0_ITLB LOAD      ACCESS:    3644576  HIT:    3644576  MISS:          0
cpu0_ITLB RFO       ACCESS:          0  HIT:          0  MISS:          0
cpu0_ITLB PREFETCH  ACCESS:          0  HIT:          0  MISS:          0
cpu0_ITLB WRITEBACK ACCESS:          0  HIT:          0  MISS:          0
cpu0_L1I TOTAL     ACCESS:      88538  HIT:      88538  MISS:          0
cpu0_L1I LOAD      ACCESS:      88538  HIT:      88538  MISS:          0
cpu0_L1I RFO       ACCESS:          0  HIT:          0  MISS:          0
cpu0_L1I PREFETCH  ACCESS:          0  HIT:          0  MISS:          0
cpu0_L1I WRITEBACK ACCESS:          0  HIT:          0  MISS:          0
cpu0_STLB TOTAL     ACCESS:         11  HIT:          0  MISS:         11
cpu0_STLB LOAD      ACCESS:          1  HIT:          0  MISS:          1
cpu0_STLB RFO       ACCESS:         10  HIT:          0  MISS:         10
cpu0_STLB PREFETCH  ACCESS:          0  HIT:          0  MISS:          0
cpu0_STLB WRITEBACK ACCESS:          0  HIT:          0  MISS:          0
cpu0_L1D TOTAL     ACCESS:    4912940  HIT:    4912206  MISS:        734
cpu0_L1D LOAD      ACCESS:    3911994  HIT:    3911911  MISS:         83
cpu0_L1D RFO       ACCESS:    1000935  HIT:    1000285  MISS:        650
cpu0_L1D PREFETCH  ACCESS:          0  HIT:          0  MISS:          0
cpu0_L1D WRITEBACK ACCESS:          0  HIT:          0  MISS:          0
cpu0_L2C TOTAL     ACCESS:       1382  HIT:        674  MISS:        708
cpu0_L2C LOAD      ACCESS:         83  HIT:         19  MISS:         64
cpu0_L2C RFO       ACCESS:        650  HIT:          6  MISS:        644
cpu0_L2C PREFETCH  ACCESS:          0  HIT:          0  MISS:          0
cpu0_L2C WRITEBACK ACCESS:        648  HIT:        648  MISS:          0
LLC TOTAL     ACCESS:       1397  HIT:        325  MISS:       1072
LLC LOAD      ACCESS:         64  HIT:          0  MISS:         64
LLC RFO       ACCESS:        644  HIT:          0  MISS:        644
LLC PREFETCH  ACCESS:          0  HIT:          0  MISS:          0
LLC WRITEBACK ACCESS:        689  HIT:        325  MISS:        364
Heartbeat CPU 0 instructions: 82000000 cycles: 32276165 heartbeat IPC: 1.68551 cumulative IPC: 1.69202 (Simulation time: 0 hr 40 min 50 sec) 

Region of Interest Statistics
cpu0_DTLB TOTAL     ACCESS:    4614718  HIT:    4614707  MISS:         11
cpu0_DTLB LOAD      ACCESS:    3989044  HIT:    3989043  MISS:          1
cpu0_DTLB RFO       ACCESS:     625674  HIT:     625664  MISS:         10
cpu0_DTLB PREFETCH  ACCESS:          0  HIT:          0  MISS:          0
cpu0_DTLB WRITEBACK ACCESS:          0  HIT:          0  MISS:          0
cpu0_ITLB TOTAL     ACCESS:    3887771  HIT:    3887771  MISS:          0
cpu0_ITLB LOAD      ACCESS:    3887771  HIT:    3887771  MISS:          0
cpu0_ITLB RFO       ACCESS:          0  HIT:          0  MISS:          0
cpu0_ITLB PREFETCH  ACCESS:          0  HIT:          0  MISS:          0
cpu0_ITLB WRITEBACK ACCESS:          0  HIT:          0  MISS:          0
cpu0_L1I TOTAL     ACCESS:      93958  HIT:      93958  MISS:          0
cpu0_L1I LOAD      ACCESS:      93958  HIT:      93958  MISS:          0
cpu0_L1I RFO       ACCESS:          0  HIT:          0  MISS:          0
cpu0_L1I PREFETCH  ACCESS:          0  HIT:          0  MISS:          0
cpu0_L1I WRITEBACK ACCESS:          0  HIT:          0  MISS:          0
cpu0_STLB TOTAL     ACCESS:         11  HIT:          0  MISS:         11
cpu0_STLB LOAD      ACCESS:          1  HIT:          0  MISS:          1
cpu0_STLB RFO       ACCESS:         10  HIT:          0  MISS:         10
cpu0_STLB PREFETCH  ACCESS:          0  HIT:          0  MISS:          0
cpu0_STLB WRITEBACK ACCESS:          0  HIT:          0  MISS:          0
cpu0_L1D TOTAL     ACCESS:    5241574  HIT:    5240830  MISS:        744
cpu0_L1D LOAD      ACCESS:    4172990  HIT:    4172906  MISS:         84
cpu0_L1D RFO       ACCESS:    1068573  HIT:    1067914  MISS:        659
cpu0_L1D PREFETCH  ACCESS:          0  HIT:          0  MISS:          0
cpu0_L1D WRITEBACK ACCESS:          0  HIT:          0  MISS:          0
cpu0_L2C TOTAL     ACCESS:       1399  HIT:        681  MISS:        718
cpu0_L2C LOAD      ACCESS:         84  HIT:         19  MISS:         65
cpu0_L2C RFO       ACCESS:        659  HIT:          6  MISS:        653
cpu0_L2C PREFETCH  ACCESS:          0  HIT:          0  MISS:          0
cpu0_L2C WRITEBACK ACCESS:        655  HIT:        655  MISS:          0
LLC TOTAL     ACCESS:       1417  HIT:        334  MISS:       1083
LLC LOAD      ACCESS:         65  HIT:          0  MISS:         65
LLC RFO       ACCESS:        653  HIT:          0  MISS:        653
LLC PREFETCH  ACCESS:          0  HIT:          0  MISS:          0
LLC WRITEBACK ACCESS:        699  HIT:        334  MISS:        365
Heartbeat CPU 0 instructions: 84000001 cycles: 33460390 heartbeat IPC: 1.68887 cumulative IPC: 1.69183 (Simulation time: 0 hr 41 min 41 sec) 

Region of Interest Statistics
cpu0_DTLB TOTAL     ACCESS:    4903379  HIT:    4903368  MISS:         11
cpu0_DTLB LOAD      ACCESS:    4238821  HIT:    4238820  MISS:          1
cpu0_DTLB RFO       ACCESS:     664558  HIT:     664548  MISS:         10
cpu0_DTLB PREFETCH  ACCESS:          0  HIT:          0  MISS:          0
cpu0_DTLB WRITEBACK ACCESS:          0  HIT:          0  MISS:          0
cpu0_ITLB TOTAL     ACCESS:    4132140  HIT:    4132140  MISS:          0
cpu0_ITLB LOAD      ACCESS:    4132140  HIT:    4132140  MISS:          0
cpu0_ITLB RFO       ACCESS:          0  HIT:          0  MISS:          0
cpu0_ITLB PREFETCH  ACCESS:          0  HIT:          0  MISS:          0
cpu0_ITLB WRITEBACK ACCESS:          0  HIT:          0  MISS:          0
cpu0_L1I TOTAL     ACCESS:      99249  HIT:      99249  MISS:          0
cpu0_L1I LOAD      ACCESS:      99249  HIT:      99249  MISS:          0
cpu0_L1I RFO       ACCESS:          0  HIT:          0  MISS:          0
cpu0_L1I PREFETCH  ACCESS:          0  HIT:          0  MISS:          0
cpu0_L1I WRITEBACK ACCESS:          0  HIT:          0  MISS:          0
cpu0_STLB TOTAL     ACCESS:         11  HIT:          0  MISS:         11
cpu0_STLB LOAD      ACCESS:          1  HIT:          0  MISS:          1
cpu0_STLB RFO       ACCESS:         10  HIT:          0  MISS:         10
cpu0_STLB PREFETCH  ACCESS:          0  HIT:          0  MISS:          0
cpu0_STLB WRITEBACK ACCESS:          0  HIT:          0  MISS:          0
cpu0_L1D TOTAL     ACCESS:    5566654  HIT:    5565900  MISS:        754
cpu0_L1D LOAD      ACCESS:    4431973  HIT:    4431888  MISS:         85
cpu0_L1D RFO       ACCESS:    1134670  HIT:    1134002  MISS:        668
cpu0_L1D PREFETCH  ACCESS:          0  HIT:          0  MISS:          0
cpu0_L1D WRITEBACK ACCESS:          0  HIT:          0  MISS:          0
cpu0_L2C TOTAL     ACCESS:       1417  HIT:        689  MISS:        728
cpu0_L2C LOAD      ACCESS:         85  HIT:         19  MISS:         66
cpu0_L2C RFO       ACCESS:        668  HIT:          6  MISS:        662
cpu0_L2C PREFETCH  ACCESS:          0  HIT:          0  MISS:          0
cpu0_L2C WRITEBACK ACCESS:        663  HIT:        663  MISS:          0
LLC TOTAL     ACCESS:       1437  HIT:        343  MISS:       1094
LLC LOAD      ACCESS:         66  HIT:          0  MISS:         66
LLC RFO       ACCESS:        662  HIT:          0  MISS:        662
LLC PREFETCH  ACCESS:          0  HIT:          0  MISS:          0
LLC WRITEBACK ACCESS:        709  HIT:        343  MISS:        366
Heartbeat CPU 0 instructions: 86000004 cycles: 34638717 heartbeat IPC: 1.69732 cumulative IPC: 1.69214 (Simulation time: 0 hr 42 min 30 sec) 

Region of Interest Statistics
cpu0_DTLB TOTAL     ACCESS:    5192262  HIT:    5192251  MISS:         11
cpu0_DTLB LOAD      ACCESS:    4489589  HIT:    4489588  MISS:          1
cpu0_DTLB RFO       ACCESS:     702673  HIT:     702663  MISS:         10
cpu0_DTLB PREFETCH  ACCESS:          0  HIT:          0  MISS:          0
cpu0_DTLB WRITEBACK ACCESS:          0  HIT:          0  MISS:          0
cpu0_ITLB TOTAL     ACCESS:    4376530  HIT:    4376530  MISS:          0
cpu0_ITLB LOAD      ACCESS:    4376530  HIT:    4376530  MISS:          0
cpu0_ITLB RFO       ACCESS:          0  HIT:          0  MISS:          0
cpu0_ITLB PREFETCH  ACCESS:          0  HIT:          0  MISS:          0
cpu0_ITLB WRITEBACK ACCESS:          0  HIT:          0  MISS:          0
cpu0_L1I TOTAL     ACCESS:     103832  HIT:     103832  MISS:          0
cpu0_L1I LOAD      ACCESS:     103832  HIT:     103832  MISS:          0
cpu0_L1I RFO       ACCESS:          0  HIT:          0  MISS:          0
cpu0_L1I PREFETCH  ACCESS:          0  HIT:          0  MISS:          0
cpu0_L1I WRITEBACK ACCESS:          0  HIT:          0  MISS:          0
cpu0_STLB TOTAL     ACCESS:         11  HIT:          0  MISS:         11
cpu0_STLB LOAD      ACCESS:          1  HIT:          0  MISS:          1
cpu0_STLB RFO       ACCESS:         10  HIT:          0  MISS:         10
cpu0_STLB PREFETCH  ACCESS:          0  HIT:          0  MISS:          0
cpu0_STLB WRITEBACK ACCESS:          0  HIT:          0  MISS:          0
cpu0_L1D TOTAL     ACCESS:    5891478  HIT:    5890716  MISS:        762
cpu0_L1D LOAD      ACCESS:    4692701  HIT:    4692615  MISS:         86
cpu0_L1D RFO       ACCESS:    1198766  HIT:    1198091  MISS:        675
cpu0_L1D PREFETCH  ACCESS:          0  HIT:          0  MISS:          0
cpu0_L1D WRITEBACK ACCESS:          0  HIT:          0  MISS:          0
cpu0_L2C TOTAL     ACCESS:       1433  HIT:        697  MISS:        736
cpu0_L2C LOAD      ACCESS:         86  HIT:         19  MISS:         67
cpu0_L2C RFO       ACCESS:        675  HIT:          6  MISS:        669
cpu0_L2C PREFETCH  ACCESS:          0  HIT:          0  MISS:          0
cpu0_L2C WRITEBACK ACCESS:        671  HIT:        671  MISS:          0
LLC TOTAL     ACCESS:       1453  HIT:        351  MISS:       1102
LLC LOAD      ACCESS:         67  HIT:          0  MISS:         67
LLC RFO       ACCESS:        669  HIT:          0  MISS:        669
LLC PREFETCH  ACCESS:          0  HIT:          0  MISS:          0
LLC WRITEBACK ACCESS:        717  HIT:        351  MISS:        366
Heartbeat CPU 0 instructions: 88000000 cycles: 35824551 heartbeat IPC: 1.68657 cumulative IPC: 1.69184 (Simulation time: 0 hr 43 min 21 sec) 

Region of Interest Statistics
cpu0_DTLB TOTAL     ACCESS:    5480568  HIT:    5480557  MISS:         11
cpu0_DTLB LOAD      ACCESS:    4738472  HIT:    4738471  MISS:          1
cpu0_DTLB RFO       ACCESS:     742096  HIT:     742086  MISS:         10
cpu0_DTLB PREFETCH  ACCESS:          0  HIT:          0  MISS:          0
cpu0_DTLB WRITEBACK ACCESS:          0  HIT:          0  MISS:          0
cpu0_ITLB TOTAL     ACCESS:    4619608  HIT:    4619608  MISS:          0
cpu0_ITLB LOAD      ACCESS:    4619608  HIT:    4619608  MISS:          0
cpu0_ITLB RFO       ACCESS:          0  HIT:          0  MISS:          0
cpu0_ITLB PREFETCH  ACCESS:          0  HIT:          0  MISS:          0
cpu0_ITLB WRITEBACK ACCESS:          0  HIT:          0  MISS:          0
cpu0_L1I TOTAL     ACCESS:     109272  HIT:     109272  MISS:          0
cpu0_L1I LOAD      ACCESS:     109272  HIT:     109272  MISS:          0
cpu0_L1I RFO       ACCESS:          0  HIT:          0  MISS:          0
cpu0_L1I PREFETCH  ACCESS:          0  HIT:          0  MISS:          0
cpu0_L1I WRITEBACK ACCESS:          0  HIT:          0  MISS:          0
cpu0_STLB TOTAL     ACCESS:         11  HIT:          0  MISS:         11
cpu0_STLB LOAD      ACCESS:          1  HIT:          0  MISS:          1
cpu0_STLB RFO       ACCESS:         10  HIT:          0  MISS:         10
cpu0_STLB PREFETCH  ACCESS:          0  HIT:          0  MISS:          0
cpu0_STLB WRITEBACK ACCESS:          0  HIT:          0  MISS:          0
cpu0_L1D TOTAL     ACCESS:    6220340  HIT:    6219568  MISS:        772
cpu0_L1D LOAD      ACCESS:    4953814  HIT:    4953728  MISS:         86
cpu0_L1D RFO       ACCESS:    1266515  HIT:    1265830  MISS:        685
cpu0_L1D PREFETCH  ACCESS:          0  HIT:          0  MISS:          0
cpu0_L1D WRITEBACK ACCESS:          0  HIT:          0  MISS:          0
cpu0_L2C TOTAL     ACCESS:       1453  HIT:        707  MISS:        746
cpu0_L2C LOAD      ACCESS:         86  HIT:         19  MISS:         67
cpu0_L2C RFO       ACCESS:        685  HIT:          6  MISS:        679
cpu0_L2C PREFETCH  ACCESS:          0  HIT:          0  MISS:          0
cpu0_L2C WRITEBACK ACCESS:        681  HIT:        681  MISS:          0
LLC TOTAL     ACCESS:       1473  HIT:        361  MISS:       1112
LLC LOAD      ACCESS:         67  HIT:          0  MISS:         67
LLC RFO       ACCESS:        679  HIT:          0  MISS:        679
LLC PREFETCH  ACCESS:          0  HIT:          0  MISS:          0
LLC WRITEBACK ACCESS:        727  HIT:        361  MISS:        366
Heartbeat CPU 0 instructions: 90000001 cycles: 37008971 heartbeat IPC: 1.68859 cumulative IPC: 1.69168 (Simulation time: 0 hr 44 min 11 sec) 

Region of Interest Statistics
cpu0_DTLB TOTAL     ACCESS:    5769248  HIT:    5769237  MISS:         11
cpu0_DTLB LOAD      ACCESS:    4988267  HIT:    4988266  MISS:          1
cpu0_DTLB RFO       ACCESS:     780981  HIT:     780971  MISS:         10
cpu0_DTLB PREFETCH  ACCESS:          0  HIT:          0  MISS:          0
cpu0_DTLB WRITEBACK ACCESS:          0  HIT:          0  MISS:          0
cpu0_ITLB TOTAL     ACCESS:    4863990  HIT:    4863990  MISS:          0
cpu0_ITLB LOAD      ACCESS:    4863990  HIT:    4863990  MISS:          0
cpu0_ITLB RFO       ACCESS:          0  HIT:          0  MISS:          0
cpu0_ITLB PREFETCH  ACCESS:          0  HIT:          0  MISS:          0
cpu0_ITLB WRITEBACK ACCESS:          0  HIT:          0  MISS:          0
cpu0_L1I TOTAL     ACCESS:     114564  HIT:     114564  MISS:          0
cpu0_L1I LOAD      ACCESS:     114564  HIT:     114564  MISS:          0
cpu0_L1I RFO       ACCESS:          0  HIT:          0  MISS:          0
cpu0_L1I PREFETCH  ACCESS:          0  HIT:          0  MISS:          0
cpu0_L1I WRITEBACK ACCESS:          0  HIT:          0  MISS:          0
cpu0_STLB TOTAL     ACCESS:         11  HIT:          0  MISS:         11
cpu0_STLB LOAD      ACCESS:          1  HIT:          0  MISS:          1
cpu0_STLB RFO       ACCESS:         10  HIT:          0  MISS:         10
cpu0_STLB PREFETCH  ACCESS:          0  HIT:          0  MISS:          0
cpu0_STLB WRITEBACK ACCESS:          0  HIT:          0  MISS:          0
cpu0_L1D TOTAL     ACCESS:    6545455  HIT:    6544672  MISS:        783
cpu0_L1D LOAD      ACCESS:    5212819  HIT:    5212731  MISS:         88
cpu0_L1D RFO       ACCESS:    1332625  HIT:    1331931  MISS:        694
cpu0_L1D PREFETCH  ACCESS:          0  HIT:          0  MISS:          0
cpu0_L1D WRITEBACK ACCESS:          0  HIT:          0  MISS:          0
cpu0_L2C TOTAL     ACCESS:       1474  HIT:        717  MISS:        757
cpu0_L2C LOAD      ACCESS:         88  HIT:         19  MISS:         69
cpu0_L2C RFO       ACCESS:        694  HIT:          6  MISS:        688
cpu0_L2C PREFETCH  ACCESS:          0  HIT:          0  MISS:          0
cpu0_L2C WRITEBACK ACCESS:        691  HIT:        691  MISS:          0
LLC TOTAL     ACCESS:       1495  HIT:        371  MISS:       1124
LLC LOAD      ACCESS:         69  HIT:          0  MISS:         69
LLC RFO       ACCESS:        688  HIT:          0  MISS:        688
LLC PREFETCH  ACCESS:          0  HIT:          0  MISS:          0
LLC WRITEBACK ACCESS:        738  HIT:        371  MISS:        367
Heartbeat CPU 0 instructions: 92000001 cycles: 38187513 heartbeat IPC: 1.69701 cumulative IPC: 1.69193 (Simulation time: 0 hr 45 min 2 sec) 

Region of Interest Statistics
cpu0_DTLB TOTAL     ACCESS:    6058169  HIT:    6058158  MISS:         11
cpu0_DTLB LOAD      ACCESS:    5239048  HIT:    5239047  MISS:          1
cpu0_DTLB RFO       ACCESS:     819121  HIT:     819111  MISS:         10
cpu0_DTLB PREFETCH  ACCESS:          0  HIT:          0  MISS:          0
cpu0_DTLB WRITEBACK ACCESS:          0  HIT:          0  MISS:          0
cpu0_ITLB TOTAL     ACCESS:    5108484  HIT:    5108484  MISS:          0
cpu0_ITLB LOAD      ACCESS:    5108484  HIT:    5108484  MISS:          0
cpu0_ITLB RFO       ACCESS:          0  HIT:          0  MISS:          0
cpu0_ITLB PREFETCH  ACCESS:          0  HIT:          0  MISS:          0
cpu0_ITLB WRITEBACK ACCESS:          0  HIT:          0  MISS:          0
cpu0_L1I TOTAL     ACCESS:     119141  HIT:     119141  MISS:          0
cpu0_L1I LOAD      ACCESS:     119141  HIT:     119141  MISS:          0
cpu0_L1I RFO       ACCESS:          0  HIT:          0  MISS:          0
cpu0_L1I PREFETCH  ACCESS:          0  HIT:          0  MISS:          0
cpu0_L1I WRITEBACK ACCESS:          0  HIT:          0  MISS:          0
cpu0_STLB TOTAL     ACCESS:         11  HIT:          0  MISS:         11
cpu0_STLB LOAD      ACCESS:          1  HIT:          0  MISS:          1
cpu0_STLB RFO       ACCESS:         10  HIT:          0  MISS:         10
cpu0_STLB PREFETCH  ACCESS:          0  HIT:          0  MISS:          0
cpu0_STLB WRITEBACK ACCESS:          0  HIT:          0  MISS:          0
cpu0_L1D TOTAL     ACCESS:    6870064  HIT:    6869275  MISS:        789
cpu0_L1D LOAD      ACCESS:    5473313  HIT:    5473225  MISS:         88
cpu0_L1D RFO       ACCESS:    1396740  HIT:    1396040  MISS:        700
cpu0_L1D PREFETCH  ACCESS:          0  HIT:          0  MISS:          0
cpu0_L1D WRITEBACK ACCESS:          0  HIT:          0  MISS:          0
cpu0_L2C TOTAL     ACCESS:       1486  HIT:        723  MISS:        763
cpu0_L2C LOAD      ACCESS:         88  HIT:         19  MISS:         69
cpu0_L2C RFO       ACCESS:        700  HIT:          6  MISS:        694
cpu0_L2C PREFETCH  ACCESS:          0  HIT:          0  MISS:          0
cpu0_L2C WRITEBACK ACCESS:        697  HIT:        697  MISS:          0
LLC TOTAL     ACCESS:       1507  HIT:        377  MISS:       1130
LLC LOAD      ACCESS:         69  HIT:          0  MISS:         69
LLC RFO       ACCESS:        694  HIT:          0  MISS:        694
LLC PREFETCH  ACCESS:          0  HIT:          0  MISS:          0
LLC WRITEBACK ACCESS:        744  HIT:        377  MISS:        367
Heartbeat CPU 0 instructions: 94000000 cycles: 39372971 heartbeat IPC: 1.68711 cumulative IPC: 1.69171 (Simulation time: 0 hr 45 min 53 sec) 

Region of Interest Statistics
cpu0_DTLB TOTAL     ACCESS:    6346432  HIT:    6346421  MISS:         11
cpu0_DTLB LOAD      ACCESS:    5487939  HIT:    5487938  MISS:          1
cpu0_DTLB RFO       ACCESS:     858493  HIT:     858483  MISS:         10
cpu0_DTLB PREFETCH  ACCESS:          0  HIT:          0  MISS:          0
cpu0_DTLB WRITEBACK ACCESS:          0  HIT:          0  MISS:          0
cpu0_ITLB TOTAL     ACCESS:    5351553  HIT:    5351553  MISS:          0
cpu0_ITLB LOAD      ACCESS:    5351553  HIT:    5351553  MISS:          0
cpu0_ITLB RFO       ACCESS:          0  HIT:          0  MISS:          0
cpu0_ITLB PREFETCH  ACCESS:          0  HIT:          0  MISS:          0
cpu0_ITLB WRITEBACK ACCESS:          0  HIT:          0  MISS:          0
cpu0_L1I TOTAL     ACCESS:     124572  HIT:     124572  MISS:          0
cpu0_L1I LOAD      ACCESS:     124572  HIT:     124572  MISS:          0
cpu0_L1I RFO       ACCESS:          0  HIT:          0  MISS:          0
cpu0_L1I PREFETCH  ACCESS:          0  HIT:          0  MISS:          0
cpu0_L1I WRITEBACK ACCESS:          0  HIT:          0  MISS:          0
cpu0_STLB TOTAL     ACCESS:         11  HIT:          0  MISS:         11
cpu0_STLB LOAD      ACCESS:          1  HIT:          0  MISS:          1
cpu0_STLB RFO       ACCESS:         10  HIT:          0  MISS:         10
cpu0_STLB PREFETCH  ACCESS:          0  HIT:          0  MISS:          0
cpu0_STLB WRITEBACK ACCESS:          0  HIT:          0  MISS:          0
cpu0_L1D TOTAL     ACCESS:    7198898  HIT:    7198099  MISS:        799
cpu0_L1D LOAD      ACCESS:    5734500  HIT:    5734411  MISS:         89
cpu0_L1D RFO       ACCESS:    1464387  HIT:    1463678  MISS:        709
cpu0_L1D PREFETCH  ACCESS:          0  HIT:          0  MISS:          0
cpu0_L1D WRITEBACK ACCESS:          0  HIT:          0  MISS:          0
cpu0_L2C TOTAL     ACCESS:       1506  HIT:        733  MISS:        773
cpu0_L2C LOAD      ACCESS:         89  HIT:         19  MISS:         70
cpu0_L2C RFO       ACCESS:        709  HIT:          6  MISS:        703
cpu0_L2C PREFETCH  ACCESS:          0  HIT:          0  MISS:          0
cpu0_L2C WRITEBACK ACCESS:        707  HIT:        707  MISS:          0
LLC TOTAL     ACCESS:       1527  HIT:        387  MISS:       1140
LLC LOAD      ACCESS:         70  HIT:          0  MISS:         70
LLC RFO       ACCESS:        703  HIT:          0  MISS:        703
LLC PREFETCH  ACCESS:          0  HIT:          0  MISS:          0
LLC WRITEBACK ACCESS:        754  HIT:        387  MISS:        367
Heartbeat CPU 0 instructions: 96000000 cycles: 40557217 heartbeat IPC: 1.68884 cumulative IPC: 1.69159 (Simulation time: 0 hr 46 min 43 sec) 

Region of Interest Statistics
cpu0_DTLB TOTAL     ACCESS:    6635109  HIT:    6635098  MISS:         11
cpu0_DTLB LOAD      ACCESS:    5737704  HIT:    5737703  MISS:          1
cpu0_DTLB RFO       ACCESS:     897405  HIT:     897395  MISS:         10
cpu0_DTLB PREFETCH  ACCESS:          0  HIT:          0  MISS:          0
cpu0_DTLB WRITEBACK ACCESS:          0  HIT:          0  MISS:          0
cpu0_ITLB TOTAL     ACCESS:    5595826  HIT:    5595826  MISS:          0
cpu0_ITLB LOAD      ACCESS:    5595826  HIT:    5595826  MISS:          0
cpu0_ITLB RFO       ACCESS:          0  HIT:          0  MISS:          0
cpu0_ITLB PREFETCH  ACCESS:          0  HIT:          0  MISS:          0
cpu0_ITLB WRITEBACK ACCESS:          0  HIT:          0  MISS:          0
cpu0_L1I TOTAL     ACCESS:     129878  HIT:     129878  MISS:          0
cpu0_L1I LOAD      ACCESS:     129878  HIT:     129878  MISS:          0
cpu0_L1I RFO       ACCESS:          0  HIT:          0  MISS:          0
cpu0_L1I PREFETCH  ACCESS:          0  HIT:          0  MISS:          0
cpu0_L1I WRITEBACK ACCESS:          0  HIT:          0  MISS:          0
cpu0_STLB TOTAL     ACCESS:         11  HIT:          0  MISS:         11
cpu0_STLB LOAD      ACCESS:          1  HIT:          0  MISS:          1
cpu0_STLB RFO       ACCESS:         10  HIT:          0  MISS:         10
cpu0_STLB PREFETCH  ACCESS:          0  HIT:          0  MISS:          0
cpu0_STLB WRITEBACK ACCESS:          0  HIT:          0  MISS:          0
cpu0_L1D TOTAL     ACCESS:    7524229  HIT:    7523420  MISS:        809
cpu0_L1D LOAD      ACCESS:    5993647  HIT:    5993557  MISS:         90
cpu0_L1D RFO       ACCESS:    1530571  HIT:    1529853  MISS:        718
cpu0_L1D PREFETCH  ACCESS:          0  HIT:          0  MISS:          0
cpu0_L1D WRITEBACK ACCESS:          0  HIT:          0  MISS:          0
cpu0_L2C TOTAL     ACCESS:       1526  HIT:        743  MISS:        783
cpu0_L2C LOAD      ACCESS:         90  HIT:         19  MISS:         71
cpu0_L2C RFO       ACCESS:        718  HIT:          6  MISS:        712
cpu0_L2C PREFETCH  ACCESS:          0  HIT:          0  MISS:          0
cpu0_L2C WRITEBACK ACCESS:        717  HIT:        717  MISS:          0
LLC TOTAL     ACCESS:       1547  HIT:        396  MISS:       1151
LLC LOAD      ACCESS:         71  HIT:          0  MISS:         71
LLC RFO       ACCESS:        712  HIT:          0  MISS:        712
LLC PREFETCH  ACCESS:          0  HIT:          0  MISS:          0
LLC WRITEBACK ACCESS:        764  HIT:        396  MISS:        368
Heartbeat CPU 0 instructions: 98000002 cycles: 41736304 heartbeat IPC: 1.69623 cumulative IPC: 1.69178 (Simulation time: 0 hr 47 min 31 sec) 

Region of Interest Statistics
cpu0_DTLB TOTAL     ACCESS:    6924092  HIT:    6924081  MISS:         11
cpu0_DTLB LOAD      ACCESS:    5988582  HIT:    5988581  MISS:          1
cpu0_DTLB RFO       ACCESS:     935510  HIT:     935500  MISS:         10
cpu0_DTLB PREFETCH  ACCESS:          0  HIT:          0  MISS:          0
cpu0_DTLB WRITEBACK ACCESS:          0  HIT:          0  MISS:          0
cpu0_ITLB TOTAL     ACCESS:    5840437  HIT:    5840437  MISS:          0
cpu0_ITLB LOAD      ACCESS:    5840437  HIT:    5840437  MISS:          0
cpu0_ITLB RFO       ACCESS:          0  HIT:          0  MISS:          0
cpu0_ITLB PREFETCH  ACCESS:          0  HIT:          0  MISS:          0
cpu0_ITLB WRITEBACK ACCESS:          0  HIT:          0  MISS:          0
cpu0_L1I TOTAL     ACCESS:     134436  HIT:     134436  MISS:          0
cpu0_L1I LOAD      ACCESS:     134436  HIT:     134436  MISS:          0
cpu0_L1I RFO       ACCESS:          0  HIT:          0  MISS:          0
cpu0_L1I PREFETCH  ACCESS:          0  HIT:          0  MISS:          0
cpu0_L1I WRITEBACK ACCESS:          0  HIT:          0  MISS:          0
cpu0_STLB TOTAL     ACCESS:         11  HIT:          0  MISS:         11
cpu0_STLB LOAD      ACCESS:          1  HIT:          0  MISS:          1
cpu0_STLB RFO       ACCESS:         10  HIT:          0  MISS:         10
cpu0_STLB PREFETCH  ACCESS:          0  HIT:          0  MISS:          0
cpu0_STLB WRITEBACK ACCESS:          0  HIT:          0  MISS:          0
cpu0_L1D TOTAL     ACCESS:    7848600  HIT:    7847783  MISS:        817
cpu0_L1D LOAD      ACCESS:    6254032  HIT:    6253941  MISS:         91
cpu0_L1D RFO       ACCESS:    1594557  HIT:    1593832  MISS:        725
cpu0_L1D PREFETCH  ACCESS:          0  HIT:          0  MISS:          0
cpu0_L1D WRITEBACK ACCESS:          0  HIT:          0  MISS:          0
cpu0_L2C TOTAL     ACCESS:       1542  HIT:        751  MISS:        791
cpu0_L2C LOAD      ACCESS:         91  HIT:         19  MISS:         72
cpu0_L2C RFO       ACCESS:        725  HIT:          6  MISS:        719
cpu0_L2C PREFETCH  ACCESS:          0  HIT:          0  MISS:          0
cpu0_L2C WRITEBACK ACCESS:        725  HIT:        725  MISS:          0
LLC TOTAL     ACCESS:       1563  HIT:        403  MISS:       1160
LLC LOAD      ACCESS:         72  HIT:          0  MISS:         72
LLC RFO       ACCESS:        719  HIT:          0  MISS:        719
LLC PREFETCH  ACCESS:          0  HIT:          0  MISS:          0
LLC WRITEBACK ACCESS:        772  HIT:        403  MISS:        369
Heartbeat CPU 0 instructions: 100000000 cycles: 42920086 heartbeat IPC: 1.6895 cumulative IPC: 1.69169 (Simulation time: 0 hr 48 min 22 sec) 

Region of Interest Statistics
cpu0_DTLB TOTAL     ACCESS:    7212140  HIT:    7212127  MISS:         13
cpu0_DTLB LOAD      ACCESS:    6237144  HIT:    6237143  MISS:          1
cpu0_DTLB RFO       ACCESS:     974996  HIT:     974984  MISS:         12
cpu0_DTLB PREFETCH  ACCESS:          0  HIT:          0  MISS:          0
cpu0_DTLB WRITEBACK ACCESS:          0  HIT:          0  MISS:          0
cpu0_ITLB TOTAL     ACCESS:    6082981  HIT:    6082981  MISS:          0
cpu0_ITLB LOAD      ACCESS:    6082981  HIT:    6082981  MISS:          0
cpu0_ITLB RFO       ACCESS:          0  HIT:          0  MISS:          0
cpu0_ITLB PREFETCH  ACCESS:          0  HIT:          0  MISS:          0
cpu0_ITLB WRITEBACK ACCESS:          0  HIT:          0  MISS:          0
cpu0_L1I TOTAL     ACCESS:     140388  HIT:     140388  MISS:          0
cpu0_L1I LOAD      ACCESS:     140388  HIT:     140388  MISS:          0
cpu0_L1I RFO       ACCESS:          0  HIT:          0  MISS:          0
cpu0_L1I PREFETCH  ACCESS:          0  HIT:          0  MISS:          0
cpu0_L1I WRITEBACK ACCESS:          0  HIT:          0  MISS:          0
cpu0_STLB TOTAL     ACCESS:         13  HIT:          0  MISS:         13
cpu0_STLB LOAD      ACCESS:          1  HIT:          0  MISS:          1
cpu0_STLB RFO       ACCESS:         12  HIT:          0  MISS:         12
cpu0_STLB PREFETCH  ACCESS:          0  HIT:          0  MISS:          0
cpu0_STLB WRITEBACK ACCESS:          0  HIT:          0  MISS:          0
cpu0_L1D TOTAL     ACCESS:    8177620  HIT:    8176773  MISS:        847
cpu0_L1D LOAD      ACCESS:    6515139  HIT:    6515046  MISS:         93
cpu0_L1D RFO       ACCESS:    1662468  HIT:    1661715  MISS:        753
cpu0_L1D PREFETCH  ACCESS:          0  HIT:          0  MISS:          0
cpu0_L1D WRITEBACK ACCESS:          0  HIT:          0  MISS:          0
cpu0_L2C TOTAL     ACCESS:       1602  HIT:        781  MISS:        821
cpu0_L2C LOAD      ACCESS:         93  HIT:         19  MISS:         74
cpu0_L2C RFO       ACCESS:        753  HIT:          6  MISS:        747
cpu0_L2C PREFETCH  ACCESS:          0  HIT:          0  MISS:          0
cpu0_L2C WRITEBACK ACCESS:        755  HIT:        755  MISS:          0
LLC TOTAL     ACCESS:       1622  HIT:        423  MISS:       1199
LLC LOAD      ACCESS:         74  HIT:          0  MISS:         74
LLC RFO       ACCESS:        747  HIT:          0  MISS:        747
LLC PREFETCH  ACCESS:          0  HIT:          0  MISS:          0
LLC WRITEBACK ACCESS:        801  HIT:        423  MISS:        378
Heartbeat CPU 0 instructions: 102000001 cycles: 44102003 heartbeat IPC: 1.69217 cumulative IPC: 1.69171 (Simulation time: 0 hr 49 min 13 sec) 

Region of Interest Statistics
cpu0_DTLB TOTAL     ACCESS:    7500281  HIT:    7500268  MISS:         13
cpu0_DTLB LOAD      ACCESS:    6485816  HIT:    6485815  MISS:          1
cpu0_DTLB RFO       ACCESS:    1014465  HIT:    1014453  MISS:         12
cpu0_DTLB PREFETCH  ACCESS:          0  HIT:          0  MISS:          0
cpu0_DTLB WRITEBACK ACCESS:          0  HIT:          0  MISS:          0
cpu0_ITLB TOTAL     ACCESS:    6325430  HIT:    6325430  MISS:          0
cpu0_ITLB LOAD      ACCESS:    6325430  HIT:    6325430  MISS:          0
cpu0_ITLB RFO       ACCESS:          0  HIT:          0  MISS:          0
cpu0_ITLB PREFETCH  ACCESS:          0  HIT:          0  MISS:          0
cpu0_ITLB WRITEBACK ACCESS:          0  HIT:          0  MISS:          0
cpu0_L1I TOTAL     ACCESS:     146045  HIT:     146045  MISS:          0
cpu0_L1I LOAD      ACCESS:     146045  HIT:     146045  MISS:          0
cpu0_L1I RFO       ACCESS:          0  HIT:          0  MISS:          0
cpu0_L1I PREFETCH  ACCESS:          0  HIT:          0  MISS:          0
cpu0_L1I WRITEBACK ACCESS:          0  HIT:          0  MISS:          0
cpu0_STLB TOTAL     ACCESS:         13  HIT:          0  MISS:         13
cpu0_STLB LOAD      ACCESS:          1  HIT:          0  MISS:          1
cpu0_STLB RFO       ACCESS:         12  HIT:          0  MISS:         12
cpu0_STLB PREFETCH  ACCESS:          0  HIT:          0  MISS:          0
cpu0_STLB WRITEBACK ACCESS:          0  HIT:          0  MISS:          0
cpu0_L1D TOTAL     ACCESS:    8507153  HIT:    8506296  MISS:        857
cpu0_L1D LOAD      ACCESS:    6776712  HIT:    6776618  MISS:         94
cpu0_L1D RFO       ACCESS:    1730428  HIT:    1729666  MISS:        762
cpu0_L1D PREFETCH  ACCESS:          0  HIT:          0  MISS:          0
cpu0_L1D WRITEBACK ACCESS:          0  HIT:          0  MISS:          0
cpu0_L2C TOTAL     ACCESS:       1622  HIT:        791  MISS:        831
cpu0_L2C LOAD      ACCESS:         94  HIT:         19  MISS:         75
cpu0_L2C RFO       ACCESS:        762  HIT:          6  MISS:        756
cpu0_L2C PREFETCH  ACCESS:          0  HIT:          0  MISS:          0
cpu0_L2C WRITEBACK ACCESS:        765  HIT:        765  MISS:          0
LLC TOTAL     ACCESS:       1642  HIT:        430  MISS:       1212
LLC LOAD      ACCESS:         75  HIT:          0  MISS:         75
LLC RFO       ACCESS:        756  HIT:          0  MISS:        756
LLC PREFETCH  ACCESS:          0  HIT:          0  MISS:          0
LLC WRITEBACK ACCESS:        811  HIT:        430  MISS:        381
Heartbeat CPU 0 instructions: 104000002 cycles: 45264511 heartbeat IPC: 1.72042 cumulative IPC: 1.69276 (Simulation time: 0 hr 50 min 4 sec) 

Region of Interest Statistics
cpu0_DTLB TOTAL     ACCESS:    7787855  HIT:    7787835  MISS:         20
cpu0_DTLB LOAD      ACCESS:    6733902  HIT:    6733900  MISS:          2
cpu0_DTLB RFO       ACCESS:    1053953  HIT:    1053935  MISS:         18
cpu0_DTLB PREFETCH  ACCESS:          0  HIT:          0  MISS:          0
cpu0_DTLB WRITEBACK ACCESS:          0  HIT:          0  MISS:          0
cpu0_ITLB TOTAL     ACCESS:    6564088  HIT:    6564088  MISS:          0
cpu0_ITLB LOAD      ACCESS:    6564088  HIT:    6564088  MISS:          0
cpu0_ITLB RFO       ACCESS:          0  HIT:          0  MISS:          0
cpu0_ITLB PREFETCH  ACCESS:          0  HIT:          0  MISS:          0
cpu0_ITLB WRITEBACK ACCESS:          0  HIT:          0  MISS:          0
cpu0_L1I TOTAL     ACCESS:     159356  HIT:     159356  MISS:          0
cpu0_L1I LOAD      ACCESS:     159356  HIT:     159356  MISS:          0
cpu0_L1I RFO       ACCESS:          0  HIT:          0  MISS:          0
cpu0_L1I PREFETCH  ACCESS:          0  HIT:          0  MISS:          0
cpu0_L1I WRITEBACK ACCESS:          0  HIT:          0  MISS:          0
cpu0_STLB TOTAL     ACCESS:         20  HIT:          0  MISS:         20
cpu0_STLB LOAD      ACCESS:          2  HIT:          0  MISS:          2
cpu0_STLB RFO       ACCESS:         18  HIT:          0  MISS:         18
cpu0_STLB PREFETCH  ACCESS:          0  HIT:          0  MISS:          0
cpu0_STLB WRITEBACK ACCESS:          0  HIT:          0  MISS:          0
cpu0_L1D TOTAL     ACCESS:    8835763  HIT:    8834398  MISS:       1365
cpu0_L1D LOAD      ACCESS:    7035957  HIT:    7035804  MISS:        153
cpu0_L1D RFO       ACCESS:    1799786  HIT:    1798576  MISS:       1210
cpu0_L1D PREFETCH  ACCESS:          0  HIT:          0  MISS:          0
cpu0_L1D WRITEBACK ACCESS:          0  HIT:          0  MISS:          0
cpu0_L2C TOTAL     ACCESS:       2575  HIT:       1255  MISS:       1320
cpu0_L2C LOAD      ACCESS:        153  HIT:         33  MISS:        120
cpu0_L2C RFO       ACCESS:       1210  HIT:         10  MISS:       1200
cpu0_L2C PREFETCH  ACCESS:          0  HIT:          0  MISS:          0
cpu0_L2C WRITEBACK ACCESS:       1210  HIT:       1210  MISS:          0
LLC TOTAL     ACCESS:       2545  HIT:        634  MISS:       1911
LLC LOAD      ACCESS:        120  HIT:          0  MISS:        120
LLC RFO       ACCESS:       1200  HIT:          0  MISS:       1200
LLC PREFETCH  ACCESS:          0  HIT:          0  MISS:          0
LLC WRITEBACK ACCESS:       1225  HIT:        634  MISS:        591
Heartbeat CPU 0 instructions: 106000002 cycles: 46441139 heartbeat IPC: 1.69977 cumulative IPC: 1.693 (Simulation time: 0 hr 50 min 53 sec) 

Region of Interest Statistics
cpu0_DTLB TOTAL     ACCESS:    8075501  HIT:    8075479  MISS:         22
cpu0_DTLB LOAD      ACCESS:    6982127  HIT:    6982125  MISS:          2
cpu0_DTLB RFO       ACCESS:    1093374  HIT:    1093354  MISS:         20
cpu0_DTLB PREFETCH  ACCESS:          0  HIT:          0  MISS:          0
cpu0_DTLB WRITEBACK ACCESS:          0  HIT:          0  MISS:          0
cpu0_ITLB TOTAL     ACCESS:    6806551  HIT:    6806551  MISS:          0
cpu0_ITLB LOAD      ACCESS:    6806551  HIT:    6806551  MISS:          0
cpu0_ITLB RFO       ACCESS:          0  HIT:          0  MISS:          0
cpu0_ITLB PREFETCH  ACCESS:          0  HIT:          0  MISS:          0
cpu0_ITLB WRITEBACK ACCESS:          0  HIT:          0  MISS:          0
cpu0_L1I TOTAL     ACCESS:     165698  HIT:     165698  MISS:          0
cpu0_L1I LOAD      ACCESS:     165698  HIT:     165698  MISS:          0
cpu0_L1I RFO       ACCESS:          0  HIT:          0  MISS:          0
cpu0_L1I PREFETCH  ACCESS:          0  HIT:          0  MISS:          0
cpu0_L1I WRITEBACK ACCESS:          0  HIT:          0  MISS:          0
cpu0_STLB TOTAL     ACCESS:         22  HIT:          0  MISS:         22
cpu0_STLB LOAD      ACCESS:          2  HIT:          0  MISS:          2
cpu0_STLB RFO       ACCESS:         20  HIT:          0  MISS:         20
cpu0_STLB PREFETCH  ACCESS:          0  HIT:          0  MISS:          0
cpu0_STLB WRITEBACK ACCESS:          0  HIT:          0  MISS:          0
cpu0_L1D TOTAL     ACCESS:    9165260  HIT:    9163850  MISS:       1410
cpu0_L1D LOAD      ACCESS:    7296678  HIT:    7296521  MISS:        157
cpu0_L1D RFO       ACCESS:    1868560  HIT:    1867309  MISS:       1251
cpu0_L1D PREFETCH  ACCESS:          0  HIT:          0  MISS:          0
cpu0_L1D WRITEBACK ACCESS:          0  HIT:          0  MISS:          0
cpu0_L2C TOTAL     ACCESS:       2665  HIT:       1300  MISS:       1365
cpu0_L2C LOAD      ACCESS:        157  HIT:         33  MISS:        124
cpu0_L2C RFO       ACCESS:       1251  HIT:         10  MISS:       1241
cpu0_L2C PREFETCH  ACCESS:          0  HIT:          0  MISS:          0
cpu0_L2C WRITEBACK ACCESS:       1255  HIT:       1255  MISS:          0
LLC TOTAL     ACCESS:       2631  HIT:        657  MISS:       1974
LLC LOAD      ACCESS:        124  HIT:          0  MISS:        124
LLC RFO       ACCESS:       1241  HIT:          0  MISS:       1241
LLC PREFETCH  ACCESS:          0  HIT:          0  MISS:          0
LLC WRITEBACK ACCESS:       1266  HIT:        657  MISS:        609
Heartbeat CPU 0 instructions: 108000001 cycles: 47626011 heartbeat IPC: 1.68795 cumulative IPC: 1.69283 (Simulation time: 0 hr 51 min 37 sec) 

Region of Interest Statistics
cpu0_DTLB TOTAL     ACCESS:    8364172  HIT:    8364150  MISS:         22
cpu0_DTLB LOAD      ACCESS:    7231789  HIT:    7231787  MISS:          2
cpu0_DTLB RFO       ACCESS:    1132383  HIT:    1132363  MISS:         20
cpu0_DTLB PREFETCH  ACCESS:          0  HIT:          0  MISS:          0
cpu0_DTLB WRITEBACK ACCESS:          0  HIT:          0  MISS:          0
cpu0_ITLB TOTAL     ACCESS:    7050539  HIT:    7050539  MISS:          0
cpu0_ITLB LOAD      ACCESS:    7050539  HIT:    7050539  MISS:          0
cpu0_ITLB RFO       ACCESS:          0  HIT:          0  MISS:          0
cpu0_ITLB PREFETCH  ACCESS:          0  HIT:          0  MISS:          0
cpu0_ITLB WRITEBACK ACCESS:          0  HIT:          0  MISS:          0
cpu0_L1I TOTAL     ACCESS:     171368  HIT:     171368  MISS:          0
cpu0_L1I LOAD      ACCESS:     171368  HIT:     171368  MISS:          0
cpu0_L1I RFO       ACCESS:          0  HIT:          0  MISS:          0
cpu0_L1I PREFETCH  ACCESS:          0  HIT:          0  MISS:          0
cpu0_L1I WRITEBACK ACCESS:          0  HIT:          0  MISS:          0
cpu0_STLB TOTAL     ACCESS:         22  HIT:          0  MISS:         22
cpu0_STLB LOAD      ACCESS:          2  HIT:          0  MISS:          2
cpu0_STLB RFO       ACCESS:         20  HIT:          0  MISS:         20
cpu0_STLB PREFETCH  ACCESS:          0  HIT:          0  MISS:          0
cpu0_STLB WRITEBACK ACCESS:          0  HIT:          0  MISS:          0
cpu0_L1D TOTAL     ACCESS:    9491081  HIT:    9489640  MISS:       1441
cpu0_L1D LOAD      ACCESS:    7555917  HIT:    7555757  MISS:        160
cpu0_L1D RFO       ACCESS:    1935142  HIT:    1933863  MISS:       1279
[...]
cpu0_ITLB RFO       ACCESS:          0  HIT:          0  MISS:          0
cpu0_ITLB PREFETCH  ACCESS:          0  HIT:          0  MISS:          0
cpu0_ITLB WRITEBACK ACCESS:          0  HIT:          0  MISS:          0
cpu0_L1I TOTAL     ACCESS:    8684962  HIT:    8684962  MISS:          0
cpu0_L1I LOAD      ACCESS:    8684962  HIT:    8684962  MISS:          0
cpu0_L1I RFO       ACCESS:          0  HIT:          0  MISS:          0
cpu0_L1I PREFETCH  ACCESS:          0  HIT:          0  MISS:          0
cpu0_L1I WRITEBACK ACCESS:          0  HIT:          0  MISS:          0
cpu0_STLB TOTAL     ACCESS:       3082  HIT:         10  MISS:       3072
cpu0_STLB LOAD      ACCESS:        298  HIT:          9  MISS:        289
cpu0_STLB RFO       ACCESS:       2784  HIT:          1  MISS:       2783
cpu0_STLB PREFETCH  ACCESS:          0  HIT:          0  MISS:          0
cpu0_STLB WRITEBACK ACCESS:          0  HIT:          0  MISS:          0
cpu0_L1D TOTAL     ACCESS:  250020935  HIT:  249819895  MISS:     201040
cpu0_L1D LOAD      ACCESS:  194405057  HIT:  194383512  MISS:      21545
cpu0_L1D RFO       ACCESS:   55612810  HIT:   55433528  MISS:     179282
cpu0_L1D PREFETCH  ACCESS:          0  HIT:          0  MISS:          0
cpu0_L1D WRITEBACK ACCESS:          0  HIT:          0  MISS:          0
cpu0_L2C TOTAL     ACCESS:     378882  HIT:     182205  MISS:     196677
cpu0_L2C LOAD      ACCESS:      21545  HIT:       3452  MISS:      18093
cpu0_L2C RFO       ACCESS:     179282  HIT:        985  MISS:     178297
cpu0_L2C PREFETCH  ACCESS:          0  HIT:          0  MISS:          0
cpu0_L2C WRITEBACK ACCESS:     177842  HIT:     177563  MISS:        279
LLC TOTAL     ACCESS:     373619  HIT:     120296  MISS:     253323
LLC LOAD      ACCESS:      18093  HIT:         56  MISS:      18037
LLC RFO       ACCESS:     178297  HIT:         60  MISS:     178237
LLC PREFETCH  ACCESS:          0  HIT:          0  MISS:          0
LLC WRITEBACK ACCESS:     177221  HIT:     120180  MISS:      57041
Finished CPU 0 instructions: 1500000004 cycles: 908858074 cumulative IPC: 1.65042 (Simulation time: 11 hr 1 min 32 sec) 

ChampSim completed all CPUs

Region of Interest Statistics

CPU 0 cumulative IPC: 1.65042 instructions: 1500000004 cycles: 908858074
cpu0_DTLB TOTAL     ACCESS:  216070945  HIT:  216067863  MISS:       3082
cpu0_DTLB LOAD      ACCESS:  184164478  HIT:  184164180  MISS:        298
cpu0_DTLB RFO       ACCESS:   31906467  HIT:   31903683  MISS:       2784
cpu0_DTLB PREFETCH  ACCESS:          0  HIT:          0  MISS:          0
cpu0_DTLB WRITEBACK ACCESS:          0  HIT:          0  MISS:          0
cpu0_DTLB TRANSLATION ACCESS:          0  HIT:          0  MISS:          0
cpu0_DTLB PREFETCH  REQUESTED:          0  ISSUED:          0  USEFUL:          0  USELESS:          0
cpu0_DTLB AVERAGE MISS LATENCY: 217.384 cycles
cpu0_ITLB TOTAL     ACCESS:  179319135  HIT:  179319135  MISS:          0
cpu0_ITLB LOAD      ACCESS:  179319135  HIT:  179319135  MISS:          0
cpu0_ITLB RFO       ACCESS:          0  HIT:          0  MISS:          0
cpu0_ITLB PREFETCH  ACCESS:          0  HIT:          0  MISS:          0
cpu0_ITLB WRITEBACK ACCESS:          0  HIT:          0  MISS:          0
cpu0_ITLB TRANSLATION ACCESS:          0  HIT:          0  MISS:          0
cpu0_ITLB PREFETCH  REQUESTED:          0  ISSUED:          0  USEFUL:          0  USELESS:          0
cpu0_ITLB AVERAGE MISS LATENCY: -nan cycles
cpu0_L1I TOTAL     ACCESS:    8684962  HIT:    8684962  MISS:          0
cpu0_L1I LOAD      ACCESS:    8684962  HIT:    8684962  MISS:          0
cpu0_L1I RFO       ACCESS:          0  HIT:          0  MISS:          0
cpu0_L1I PREFETCH  ACCESS:          0  HIT:          0  MISS:          0
cpu0_L1I WRITEBACK ACCESS:          0  HIT:          0  MISS:          0
cpu0_L1I TRANSLATION ACCESS:          0  HIT:          0  MISS:          0
cpu0_L1I PREFETCH  REQUESTED:          0  ISSUED:          0  USEFUL:          0  USELESS:          0
cpu0_L1I AVERAGE MISS LATENCY: -nan cycles
cpu0_STLB TOTAL     ACCESS:       3082  HIT:         10  MISS:       3072
cpu0_STLB LOAD      ACCESS:        298  HIT:          9  MISS:        289
cpu0_STLB RFO       ACCESS:       2784  HIT:          1  MISS:       2783
cpu0_STLB PREFETCH  ACCESS:          0  HIT:          0  MISS:          0
cpu0_STLB WRITEBACK ACCESS:          0  HIT:          0  MISS:          0
cpu0_STLB TRANSLATION ACCESS:          0  HIT:          0  MISS:          0
cpu0_STLB PREFETCH  REQUESTED:          0  ISSUED:          0  USEFUL:          0  USELESS:          0
cpu0_STLB AVERAGE MISS LATENCY: 209.062 cycles
cpu0_L1D TOTAL     ACCESS:  250020936  HIT:  249819896  MISS:     201040
cpu0_L1D LOAD      ACCESS:  194405058  HIT:  194383513  MISS:      21545
cpu0_L1D RFO       ACCESS:   55612810  HIT:   55433528  MISS:     179282
cpu0_L1D PREFETCH  ACCESS:          0  HIT:          0  MISS:          0
cpu0_L1D WRITEBACK ACCESS:          0  HIT:          0  MISS:          0
cpu0_L1D TRANSLATION ACCESS:       3068  HIT:       2855  MISS:        213
cpu0_L1D PREFETCH  REQUESTED:          0  ISSUED:          0  USEFUL:          0  USELESS:          0
cpu0_L1D AVERAGE MISS LATENCY: 296.46 cycles
cpu0_L2C TOTAL     ACCESS:     378882  HIT:     182205  MISS:     196677
cpu0_L2C LOAD      ACCESS:      21545  HIT:       3452  MISS:      18093
cpu0_L2C RFO       ACCESS:     179282  HIT:        985  MISS:     178297
cpu0_L2C PREFETCH  ACCESS:          0  HIT:          0  MISS:          0
cpu0_L2C WRITEBACK ACCESS:     177842  HIT:     177563  MISS:        279
cpu0_L2C TRANSLATION ACCESS:        213  HIT:        205  MISS:          8
cpu0_L2C PREFETCH  REQUESTED:          0  ISSUED:          0  USEFUL:          0  USELESS:          0
cpu0_L2C AVERAGE MISS LATENCY: 291.788 cycles
LLC TOTAL     ACCESS:     373619  HIT:     120296  MISS:     253323
LLC LOAD      ACCESS:      18093  HIT:         56  MISS:      18037
LLC RFO       ACCESS:     178297  HIT:         60  MISS:     178237
LLC PREFETCH  ACCESS:          0  HIT:          0  MISS:          0
LLC WRITEBACK ACCESS:     177221  HIT:     120180  MISS:      57041
LLC TRANSLATION ACCESS:          8  HIT:          0  MISS:          8
LLC PREFETCH  REQUESTED:          0  ISSUED:          0  USEFUL:          0  USELESS:          0
LLC AVERAGE MISS LATENCY: 210.26 cycles
~~~~~~~~~~Reuse Distance Profiler output~~~~~~~~~~
0	41763040	20098224
1	43507344	39024928
2	43994848	39401712
3	18414816	16950336
4	17420016	16041488
5	9425312	7855872
6	9270928	7834560
7	9145296	7648928
8	7521664	5867056
9	6498704	5511376
10	4694320	4101072
11	4438304	3207344
12	3972288	2766912
13	2892080	1675072
14	1928080	1244176
15	1945232	1492192
16	1810304	1405952
17	1318928	825808
18	1189712	1024704
19	1518096	1225424
20	869984	698576
21	1392336	1074080
22	1222000	1038976
23	944400	768208
24	768272	540320
25	836928	626704
26	513232	425296
27	519040	391840
28	468688	368784
29	454064	341776
30	459216	280304
31	364208	225072
32	399840	329536
33	331792	162304
34	289376	187824
35	151856	114768
36	146880	107296
37	118800	88704
38	166416	99456
39	148448	79280
40	138240	81200
41	149008	110160
42	178880	144800
43	267232	196208
44	191872	118336
45	162752	141600
46	214320	154224
47	229040	170352
48	176864	152912
49	78416	34608
50	98992	78832
51	148304	126400
52	94192	83776
53	146688	83616
54	149840	104992
55	83552	55072
56	98864	70976
57	77248	61840
58	113424	96192
59	142576	110224
60	93344	49008
61	66592	35824
62	69936	42928
63	78640	47104
64	106096	49520
66	135568	100160
68	143904	95568
70	152208	72656
72	106048	68592
74	242128	205744
76	106640	81152
78	162576	85680
80	192544	113760
82	122496	87728
84	189392	142272
86	102448	58544
88	229152	202864
90	71824	43872
92	140656	98880
94	109840	85328
96	81568	41920
98	111088	65536
100	82240	31168
102	63248	38160
104	57776	39712
106	142368	124464
108	70576	46176
110	96992	38352
112	49520	30320
114	79328	70752
116	64672	56928
118	120992	91360
120	88688	33008
122	53376	30624
124	37424	23264
126	79904	62080
128	134720	95232
132	118752	105040
136	312608	294528
140	132304	70480
144	95760	66720
148	116864	93456
152	67328	48576
156	102320	52464
160	220144	166032
164	110656	21088
168	85248	38096
172	80944	54160
176	65952	27056
180	41264	23888
184	81920	48208
188	61648	31328
192	75344	34816
196	53632	28512
200	43328	18064
204	78256	50288
208	82160	68320
212	98976	67424
216	55040	25520
220	182096	136816
224	80320	29296
228	61376	45904
232	46672	21888
236	70384	42752
240	46736	26224
244	62320	45856
248	104896	66432
252	193744	150944
256	230176	78256
264	148816	19552
272	145696	11200
280	325840	16768
288	116624	67616
296	465936	42176
304	61520	29648
312	63488	18464
320	675856	465792
328	274880	58688
336	71536	45328
344	67952	38784
352	153856	134016
360	324992	232672
368	71520	53488
376	51072	19264
384	25840	13664
392	7840	3984
400	50528	14096
408	60224	26352
416	61072	44464
424	16688	10736
432	44944	18816
440	107696	73600
448	106304	56384
456	78304	45456
464	29984	16880
472	51152	22048
480	67648	44608
488	28336	3568
496	13904	11216
504	36288	24672
512	35696	11312
528	38480	22528
544	80656	36592
560	61904	31472
576	109392	82592
592	64464	50912
608	105520	42944
624	52880	25424
640	43072	18336
656	55968	35216
672	48816	29072
688	77664	63936
704	66000	35072
720	102480	29408
736	61632	52832
752	62080	33568
768	38304	8336
784	75104	38672
800	78896	13376
816	36272	8656
832	49968	6176
848	62032	35632
864	56288	7344
880	49200	15152
896	25104	9808
912	62672	44352
928	4032	480
944	48432	45264
960	61296	58016
976	27424	24688
992	41184	39056
1008	25648	20720
1024	12608	4384
1056	15728	7216
1088	23872	768
1120	42736	21280
1152	25024	11248
1184	10016	1648
1216	19904	3552
1248	13552	3056
1280	17568	3568
1312	14432	6032
1344	12080	5728
1376	15728	3184
1408	13632	2288
1440	5808	1360
1472	8848	1216
1504	9712	2144
1536	10608	2448
1568	10816	1984
1600	8272	592
1632	10400	3696
1664	9408	5920
1696	7488	4592
1728	10064	3888
1760	7472	2704
1792	12560	9040
1824	8688	3136
1856	4960	2784
1888	4208	1392
1920	9440	4736
1952	9056	2176
1984	9104	4640
2016	13360	7488
2048	35184	22224
2112	23648	15968
2176	25808	11680
2240	30128	15344
2304	30448	17440
2368	24192	12992
2432	15440	6752
2496	12224	6592
2560	16432	8608
2624	9712	4720
2688	11456	4368
2752	9392	4272
2816	11264	3488
2880	11376	2832
2944	6784	2320
3008	4512	1952
3072	4096	1424
3136	3312	912
3200	2656	736
3264	11024	9776
3328	10608	9072
3392	3104	2304
3456	8752	7136
3520	3392	1824
3584	9216	8400
3648	8672	8032
3712	8416	7136
3776	1472	0
3840	1488	48
3904	14272	32
3968	31536	7808
4032	42896	32016
4096	4384	304
4224	3152	240
4352	2992	288
4480	2000	48
4608	4592	2448
4736	8288	4704
4864	6768	1584
4992	6368	848
5120	6192	880
5248	4752	784
5376	7440	704
5504	2256	592
5632	4048	1504
5760	3584	2512
5888	1680	624
6016	3248	2112
6144	2016	432
6272	1920	128
6400	1184	32
6528	2240	48
6656	1072	16
6784	960	16
6912	2192	64
7040	3264	448
7168	14288	7728
7296	15536	10400
7424	7936	4064
7552	6832	2992
7680	9728	4816
7808	10336	4208
7936	11344	3776
8064	10544	3840
8192	14064	6800
8448	11872	5696
8704	11392	5984
8960	8784	5744
9216	9936	7328
9472	3296	2352
9728	400	128
9984	288	112
10240	304	128
10496	576	80
10752	23296	22944
11008	6208	3184
11264	3520	2848
11520	20176	19120
11776	31664	30656
12032	13456	5024
12288	10096	3632
12544	9104	7344
12800	13824	6480
13056	6896	1360
13312	5456	240
13568	12416	592
13824	12048	1312
14080	6640	352
14336	8864	800
14592	6976	1216
14848	4288	1744
15104	4512	896
15360	6256	448
15616	6144	2304
15872	14672	4912
16128	2992	1424
16384	11040	4992
16896	10960	2832
17408	9632	3456
17920	6624	2000
18432	11664	576
18944	16864	2032
19456	33792	7184
19968	32288	9120
20480	43216	18528
20992	33680	12848
21504	45456	12224
22016	37248	20160
22528	42352	23728
23040	30768	14160
23552	24000	10672
24064	17216	11200
24576	7104	4144
25088	4016	2384
25600	1232	624
26112	2944	1104
26624	3376	1296
27136	4112	2448
27648	2816	768
28160	2848	1232
28672	1904	864
29184	5952	3184
29696	3248	1328
30208	5184	784
30720	3648	1248
31232	2784	928
31744	2560	1072
32256	880	144
32768	1072	368
33792	656	240
34816	4672	272
35840	2384	176
36864	2016	256
37888	3088	128
38912	1376	64
39936	464	32
40960	576	32
41984	176	16
43008	144	0
44032	96	0
45056	160	0
46080	688	32
47104	896	0
48128	1744	32
49152	1184	0
50176	816	0
51200	800	0
52224	432	16
53248	208	0
54272	176	0
55296	16	0
56320	96	0
57344	48	0
58368	32	0
59392	32	0
60416	32	0
61440	80	64
62464	176	0
63488	32	0
64512	16	16
65536	48	0
67584	0	0
69632	0	0
71680	16	0
73728	32	32
75776	32	32
77824	32	16
79872	0	0
81920	32	32
83968	64	16
86016	48	16
88064	4960	4448
90112	4272	2064
92160	1968	1104
94208	4352	2592
96256	2064	1024
98304	1168	32
100352	112	48
102400	48	32
104448	48	32
106496	64	16
108544	112	48
110592	3360	800
112640	2512	2448
114688	1552	512
116736	22752	16896
118784	7200	5280
120832	10784	8240
122880	8144	5888
124928	8496	5856
126976	10352	7728
129024	3696	2496
131072	672	240
135168	432	224
139264	240	80
143360	272	64
147456	128	32
151552	112	48
155648	640	272
159744	2528	1712
163840	208	64
167936	160	96
172032	144	48
176128	176	16
180224	96	32
184320	160	96
188416	128	32
192512	80	16
196608	80	48
200704	96	32
204800	64	32
208896	112	0
212992	128	64
217088	96	48
221184	112	16
225280	64	16
229376	64	0
233472	1104	528
237568	352	208
241664	384	208
245760	320	96
249856	352	224
253952	400	304
258048	224	80
262144	160	80
270336	80	16
278528	48	16
286720	80	0
294912	32	0
303104	96	48
311296	96	16
319488	160	128
327680	32	0
335872	80	64
344064	32	0
352256	32	16
360448	32	32
368640	16	16
376832	0	0
385024	48	48
393216	48	32
401408	0	0
409600	16	0
417792	48	32
425984	0	0
434176	48	0
442368	0	0
450560	0	0
458752	0	0
466944	16	0
475136	32	16
483328	0	0
491520	0	0
499712	0	0
507904	0	0
516096	32	32
524288	16	16
540672	48	32
557056	0	0
573440	112	112
589824	80	80
606208	80	80
622592	96	96
638976	64	64
655360	32	32
671744	0	0
688128	16	0
704512	32	0
720896	96	16
737280	64	0
753664	16	16
770048	16	16
786432	16	16
802816	48	32
819200	256	224
835584	96	64
851968	128	128
868352	112	112
884736	48	48
901120	32	32
917504	16	16
933888	0	0
950272	32	32
966656	0	0
983040	0	0
999424	0	0
1015808	16	16
1032192	0	0
1048576	112	112
1081344	416	416
1114112	128	128
1146880	48	48
1179648	0	0
1212416	16	16
1245184	16	16
1277952	80	80
1310720	64	64
1343488	96	96
1376256	32	32
1409024	32	32
1441792	16	16
1474560	32	32
1507328	0	0
1540096	16	16
1572864	32	32
1605632	64	64
1638400	16	16
1671168	48	48
1703936	0	0
1736704	0	0
1769472	16	16
1802240	0	0
1835008	0	0
1867776	0	0
1900544	80	80
1933312	0	0
1966080	0	0
1998848	0	0
2031616	0	0
2064384	0	0
2097152	16	16
2162688	32	32
2228224	32	32
2293760	0	0
2359296	0	0
2424832	32	32
2490368	16	16
2555904	0	0
2621440	0	0
2686976	16	16
2752512	0	0
2818048	0	0
2883584	0	0
2949120	16	16
3014656	0	0
3080192	0	0
3145728	0	0
3211264	0	0
3276800	0	0
3342336	0	0
3407872	0	0
3473408	0	0
3538944	0	0
3604480	0	0
3670016	0	0
3735552	0	0
3801088	0	0
3866624	0	0
3932160	0	0
3997696	0	0
4063232	16	16
4128768	0	0
4194304	0	0
4325376	16	16
4456448	0	0
4587520	0	0
4718592	0	0
4849664	32	32
4980736	0	0
5111808	0	0
5242880	0	0
5373952	0	0
5505024	0	0
5636096	0	0
5767168	0	0
5898240	0	0
6029312	0	0
6160384	0	0
6291456	0	0
6422528	0	0
6553600	16	16
6684672	32	32
6815744	0	0
6946816	0	0
7077888	0	0
7208960	0	0
7340032	0	0
7471104	0	0
7602176	0	0
7733248	0	0
7864320	0	0
7995392	0	0
8126464	0	0
8257536	0	0
8388608	0	0
8650752	0	0
8912896	0	0
9175040	0	0
9437184	0	0
9699328	0	0
9961472	0	0
10223616	0	0
10485760	0	0
10747904	0	0
11010048	0	0
11272192	0	0
11534336	0	0
11796480	0	0
12058624	0	0
12320768	0	0
12582912	0	0
12845056	0	0
13107200	0	0
13369344	0	0
13631488	0	0
13893632	0	0
14155776	0	0
14417920	0	0
14680064	0	0
14942208	0	0
15204352	0	0
15466496	0	0
15728640	0	0
15990784	0	0
16252928	16	16
16515072	0	0
16777216	0	0
17301504	16	16
17825792	0	0
18350080	0	0
18874368	0	0
19398656	0	0
19922944	0	0
20447232	0	0
20971520	0	0
21495808	0	0
22020096	0	0
22544384	16	16
23068672	0	0
23592960	0	0
24117248	0	0
24641536	0	0
25165824	0	0
25690112	0	0
26214400	0	0
26738688	0	0
27262976	0	0
27787264	0	0
28311552	0	0
28835840	0	0
29360128	0	0
29884416	0	0
30408704	0	0
30932992	0	0
31457280	0	0
31981568	0	0
32505856	0	0
33030144	0	0
33554432	0	0
34603008	0	0
35651584	0	0
36700160	0	0
37748736	0	0
38797312	0	0
39845888	0	0
40894464	0	0
41943040	0	0
42991616	0	0
44040192	0	0
45088768	0	0
46137344	0	0
47185920	0	0
48234496	0	0
49283072	0	0
50331648	0	0
51380224	0	0
52428800	0	0
53477376	0	0
54525952	0	0
55574528	0	0
56623104	0	0
57671680	0	0
58720256	0	0
59768832	0	0
60817408	0	0
61865984	0	0
62914560	0	0
63963136	0	0
65011712	0	0
66060288	0	0
67108864	0	0
69206016	0	0
71303168	0	0
73400320	0	0
75497472	0	0
77594624	0	0
79691776	0	0
81788928	0	0
83886080	0	0
85983232	0	0
88080384	0	0
90177536	0	0
92274688	0	0
94371840	0	0
96468992	0	0
98566144	0	0
100663296	0	0
102760448	0	0
104857600	0	0
106954752	0	0
109051904	0	0
111149056	0	0
113246208	0	0
115343360	0	0
117440512	0	0
119537664	0	0
121634816	0	0
123731968	0	0
125829120	0	0
127926272	0	0
130023424	0	0
132120576	0	0
134217728	0	0
138412032	0	0
142606336	0	0
146800640	0	0
150994944	0	0
155189248	0	0
159383552	0	0
163577856	0	0
167772160	0	0
171966464	0	0
176160768	0	0
180355072	0	0
184549376	0	0
188743680	0	0
192937984	0	0
197132288	0	0
201326592	0	0
205520896	0	0
209715200	0	0
213909504	0	0
218103808	0	0
222298112	0	0
226492416	0	0
230686720	0	0
234881024	0	0
239075328	0	0
243269632	0	0
247463936	0	0
251658240	0	0
255852544	0	0
260046848	0	0
264241152	0	0
268435456	0	0
276824064	0	0
285212672	0	0
293601280	0	0
301989888	0	0
310378496	0	0
318767104	0	0
327155712	0	0
335544320	0	0
343932928	0	0
352321536	0	0
360710144	0	0
369098752	0	0
377487360	0	0
385875968	0	0
394264576	0	0
402653184	0	0
411041792	0	0
419430400	0	0
427819008	0	0
436207616	0	0
444596224	0	0
452984832	0	0
461373440	0	0
469762048	0	0
478150656	0	0
486539264	0	0
494927872	0	0
503316480	0	0
511705088	0	0
520093696	0	0
528482304	0	0
536870912	0	0
553648128	0	0
570425344	0	0
587202560	0	0
603979776	0	0
620756992	0	0
637534208	0	0
654311424	0	0
671088640	0	0
687865856	0	0
704643072	0	0
721420288	0	0
738197504	0	0
754974720	0	0
771751936	0	0
788529152	0	0
805306368	0	0
822083584	0	0
838860800	0	0
855638016	0	0
872415232	0	0
889192448	0	0
905969664	0	0
922746880	0	0
939524096	0	0
956301312	0	0
973078528	0	0
989855744	0	0
1006632960	0	0
1023410176	0	0
1040187392	0	0
1056964608	0	0
1073741824	0	0
1107296256	0	0
1140850688	0	0
1174405120	0	0
1207959552	0	0
1241513984	0	0
1275068416	0	0
1308622848	0	0
1342177280	0	0
1375731712	0	0
1409286144	0	0
1442840576	0	0
1476395008	0	0
1509949440	0	0
1543503872	0	0
1577058304	0	0
1610612736	0	0
1644167168	0	0
1677721600	0	0
1711276032	0	0
1744830464	0	0
1778384896	0	0
1811939328	0	0
1845493760	0	0
1879048192	0	0
1912602624	0	0
1946157056	0	0
1979711488	0	0
2013265920	0	0
2046820352	0	0
2080374784	0	0
2113929216	0	0
2147483648	0	0
2214592512	0	0
2281701376	0	0
2348810240	0	0
2415919104	0	0
2483027968	0	0
2550136832	0	0
2617245696	0	0
2684354560	0	0
2751463424	0	0
2818572288	0	0
2885681152	0	0
2952790016	0	0
3019898880	0	0
3087007744	0	0
3154116608	0	0
3221225472	0	0
3288334336	0	0
3355443200	0	0
3422552064	0	0
3489660928	0	0
3556769792	0	0
3623878656	0	0
3690987520	0	0
3758096384	0	0
3825205248	0	0
3892314112	0	0
3959422976	0	0
4026531840	0	0
4093640704	0	0
4160749568	0	0
4227858432	0	0
~~~~~~~~~~Reuse Distance Profiler output end~~~~~~~~~~

Sampler size:14267

DRAM Statistics
 CHANNEL 0
 RQ ROW_BUFFER_HIT:        516  ROW_BUFFER_MISS:     195766
 DBUS AVG_CONGESTED_CYCLE:     3.9031
 WQ ROW_BUFFER_HIT:      12646  ROW_BUFFER_MISS:     159726  FULL:          0


CPU 0 Branch Prediction Accuracy: 80.3822% MPKI: 28.4625 Average ROB Occupancy at Mispredict: 47.3477
Branch type MPKI
BRANCH_DIRECT_JUMP: 6.66667e-07
BRANCH_INDIRECT: 0
BRANCH_CONDITIONAL: 28.4625
BRANCH_DIRECT_CALL: 0
BRANCH_INDIRECT_CALL: 0
BRANCH_RETURN: 0

