
*** ChampSim Multicore Out-of-Order Simulator ***

Warmup Instructions: 50000000
Simulation Instructions: 1500000000
Number of CPUs: 1
Off-chip DRAM Size: 4 GiB Channels: 1 Width: 64-bit Data Rate: 3200 MT/s

VirtualMemory physical capacity: 8588881920 num_ppages: 2096895
VirtualMemory page size: 4096 log2_page_size: 12

CPU 0 runs /s/traces/champsim_traces/605.mcf_s-1644B.champsimtrace.xz
CPU 0 Bimodal branch predictor
Basic BTB sets: 1024 ways: 8 indirect buffer size: 4096 RAS size: 64
Initializing LRU.
Initializing LRU.
Initializing LRU.
Initializing LRU.
Initializing rdLRU.
Initializing LRU.
Heartbeat CPU 0 instructions: 2000000 cycles: 700141 heartbeat IPC: 2.85657 cumulative IPC: 2.85657 (Simulation time: 0 hr 2 min 9 sec) 
Heartbeat CPU 0 instructions: 4000004 cycles: 1398897 heartbeat IPC: 2.86224 cumulative IPC: 2.8594 (Simulation time: 0 hr 4 min 19 sec) 
Heartbeat CPU 0 instructions: 6000004 cycles: 2099083 heartbeat IPC: 2.85638 cumulative IPC: 2.85839 (Simulation time: 0 hr 6 min 28 sec) 
Heartbeat CPU 0 instructions: 8000002 cycles: 2799309 heartbeat IPC: 2.85622 cumulative IPC: 2.85785 (Simulation time: 0 hr 8 min 38 sec) 
Heartbeat CPU 0 instructions: 10000004 cycles: 3499471 heartbeat IPC: 2.85648 cumulative IPC: 2.85758 (Simulation time: 0 hr 10 min 47 sec) 
Heartbeat CPU 0 instructions: 12000003 cycles: 4198960 heartbeat IPC: 2.85923 cumulative IPC: 2.85785 (Simulation time: 0 hr 12 min 57 sec) 
Heartbeat CPU 0 instructions: 14000002 cycles: 4898778 heartbeat IPC: 2.85788 cumulative IPC: 2.85786 (Simulation time: 0 hr 15 min 10 sec) 
Heartbeat CPU 0 instructions: 16000004 cycles: 5599610 heartbeat IPC: 2.85375 cumulative IPC: 2.85734 (Simulation time: 0 hr 17 min 20 sec) 
Heartbeat CPU 0 instructions: 18000002 cycles: 6297589 heartbeat IPC: 2.86541 cumulative IPC: 2.85824 (Simulation time: 0 hr 19 min 35 sec) 
Heartbeat CPU 0 instructions: 20000000 cycles: 6997676 heartbeat IPC: 2.85679 cumulative IPC: 2.85809 (Simulation time: 0 hr 21 min 45 sec) 
Heartbeat CPU 0 instructions: 22000000 cycles: 7696718 heartbeat IPC: 2.86106 cumulative IPC: 2.85836 (Simulation time: 0 hr 23 min 53 sec) 
Heartbeat CPU 0 instructions: 24000002 cycles: 8397624 heartbeat IPC: 2.85345 cumulative IPC: 2.85795 (Simulation time: 0 hr 26 min 2 sec) 
Heartbeat CPU 0 instructions: 26000003 cycles: 9097590 heartbeat IPC: 2.85728 cumulative IPC: 2.8579 (Simulation time: 0 hr 28 min 8 sec) 
Heartbeat CPU 0 instructions: 28000001 cycles: 9795019 heartbeat IPC: 2.86767 cumulative IPC: 2.8586 (Simulation time: 0 hr 30 min 19 sec) 
Heartbeat CPU 0 instructions: 30000000 cycles: 10496358 heartbeat IPC: 2.85169 cumulative IPC: 2.85813 (Simulation time: 0 hr 32 min 26 sec) 
Heartbeat CPU 0 instructions: 32000000 cycles: 11195029 heartbeat IPC: 2.86258 cumulative IPC: 2.85841 (Simulation time: 0 hr 34 min 33 sec) 
Heartbeat CPU 0 instructions: 34000004 cycles: 11895704 heartbeat IPC: 2.8544 cumulative IPC: 2.85818 (Simulation time: 0 hr 36 min 38 sec) 
Heartbeat CPU 0 instructions: 36000004 cycles: 12595168 heartbeat IPC: 2.85933 cumulative IPC: 2.85824 (Simulation time: 0 hr 38 min 42 sec) 
Heartbeat CPU 0 instructions: 38000001 cycles: 13292620 heartbeat IPC: 2.86758 cumulative IPC: 2.85873 (Simulation time: 0 hr 40 min 45 sec) 
Heartbeat CPU 0 instructions: 40000002 cycles: 13995032 heartbeat IPC: 2.84733 cumulative IPC: 2.85816 (Simulation time: 0 hr 42 min 47 sec) 
Heartbeat CPU 0 instructions: 42000001 cycles: 14692880 heartbeat IPC: 2.86595 cumulative IPC: 2.85853 (Simulation time: 0 hr 44 min 49 sec) 
Heartbeat CPU 0 instructions: 44000003 cycles: 15391297 heartbeat IPC: 2.86362 cumulative IPC: 2.85876 (Simulation time: 0 hr 46 min 51 sec) 
Heartbeat CPU 0 instructions: 46000002 cycles: 16092975 heartbeat IPC: 2.85031 cumulative IPC: 2.85839 (Simulation time: 0 hr 48 min 54 sec) 
Heartbeat CPU 0 instructions: 48000004 cycles: 16793864 heartbeat IPC: 2.85352 cumulative IPC: 2.85819 (Simulation time: 0 hr 50 min 57 sec) 
Heartbeat CPU 0 instructions: 50000000 cycles: 17493507 heartbeat IPC: 2.8586 cumulative IPC: 2.8582 (Simulation time: 0 hr 53 min 0 sec) 

Warmup complete CPU 0 instructions: 50000005 cycles: 17493508 (Simulation time: 0 hr 53 min 0 sec) 

Heartbeat CPU 0 instructions: 52000004 cycles: 32606270 heartbeat IPC: 0.132339 cumulative IPC: 0.132338 (Simulation time: 0 hr 59 min 45 sec) 

Region of Interest Statistics
cpu0_DTLB TOTAL     ACCESS:    1177064  HIT:    1119140  MISS:      57924
cpu0_DTLB LOAD      ACCESS:     566204  HIT:     552629  MISS:      13575
cpu0_DTLB RFO       ACCESS:     610860  HIT:     566511  MISS:      44349
cpu0_DTLB PREFETCH  ACCESS:          0  HIT:          0  MISS:          0
cpu0_DTLB WRITEBACK ACCESS:          0  HIT:          0  MISS:          0
cpu0_ITLB TOTAL     ACCESS:     200395  HIT:     200395  MISS:          0
cpu0_ITLB LOAD      ACCESS:     200395  HIT:     200395  MISS:          0
cpu0_ITLB RFO       ACCESS:          0  HIT:          0  MISS:          0
cpu0_ITLB PREFETCH  ACCESS:          0  HIT:          0  MISS:          0
cpu0_ITLB WRITEBACK ACCESS:          0  HIT:          0  MISS:          0
cpu0_L1I TOTAL     ACCESS:      28809  HIT:      28809  MISS:          0
cpu0_L1I LOAD      ACCESS:      28809  HIT:      28809  MISS:          0
cpu0_L1I RFO       ACCESS:          0  HIT:          0  MISS:          0
cpu0_L1I PREFETCH  ACCESS:          0  HIT:          0  MISS:          0
cpu0_L1I WRITEBACK ACCESS:          0  HIT:          0  MISS:          0
cpu0_STLB TOTAL     ACCESS:      57924  HIT:      10010  MISS:      47914
cpu0_STLB LOAD      ACCESS:      13575  HIT:       9863  MISS:       3712
cpu0_STLB RFO       ACCESS:      44349  HIT:        147  MISS:      44202
cpu0_STLB PREFETCH  ACCESS:          0  HIT:          0  MISS:          0
cpu0_STLB WRITEBACK ACCESS:          0  HIT:          0  MISS:          0
cpu0_L1D TOTAL     ACCESS:    1053415  HIT:     870633  MISS:     182782
cpu0_L1D LOAD      ACCESS:     610639  HIT:     518332  MISS:      92307
cpu0_L1D RFO       ACCESS:     394889  HIT:     307562  MISS:      87327
cpu0_L1D PREFETCH  ACCESS:          0  HIT:          0  MISS:          0
cpu0_L1D WRITEBACK ACCESS:          0  HIT:          0  MISS:          0
cpu0_L2C TOTAL     ACCESS:     362438  HIT:     194558  MISS:     167880
cpu0_L2C LOAD      ACCESS:      92305  HIT:      11999  MISS:      80306
cpu0_L2C RFO       ACCESS:      87327  HIT:          2  MISS:      87325
cpu0_L2C PREFETCH  ACCESS:          0  HIT:          0  MISS:          0
cpu0_L2C WRITEBACK ACCESS:     179658  HIT:     179617  MISS:         41
LLC TOTAL     ACCESS:     335479  HIT:     177943  MISS:     157536
LLC LOAD      ACCESS:      80301  HIT:      27811  MISS:      52490
LLC RFO       ACCESS:      87325  HIT:       1633  MISS:      85692
LLC PREFETCH  ACCESS:          0  HIT:          0  MISS:          0
LLC WRITEBACK ACCESS:     167645  HIT:     148350  MISS:      19295
Heartbeat CPU 0 instructions: 54000001 cycles: 47647801 heartbeat IPC: 0.132965 cumulative IPC: 0.132651 (Simulation time: 1 hr 6 min 31 sec) 

Region of Interest Statistics
cpu0_DTLB TOTAL     ACCESS:    2354136  HIT:    2238832  MISS:     115304
cpu0_DTLB LOAD      ACCESS:    1132717  HIT:    1106128  MISS:      26589
cpu0_DTLB RFO       ACCESS:    1221419  HIT:    1132704  MISS:      88715
cpu0_DTLB PREFETCH  ACCESS:          0  HIT:          0  MISS:          0
cpu0_DTLB WRITEBACK ACCESS:          0  HIT:          0  MISS:          0
cpu0_ITLB TOTAL     ACCESS:     398594  HIT:     398594  MISS:          0
cpu0_ITLB LOAD      ACCESS:     398594  HIT:     398594  MISS:          0
cpu0_ITLB RFO       ACCESS:          0  HIT:          0  MISS:          0
cpu0_ITLB PREFETCH  ACCESS:          0  HIT:          0  MISS:          0
cpu0_ITLB WRITEBACK ACCESS:          0  HIT:          0  MISS:          0
cpu0_L1I TOTAL     ACCESS:      60935  HIT:      60935  MISS:          0
cpu0_L1I LOAD      ACCESS:      60935  HIT:      60935  MISS:          0
cpu0_L1I RFO       ACCESS:          0  HIT:          0  MISS:          0
cpu0_L1I PREFETCH  ACCESS:          0  HIT:          0  MISS:          0
cpu0_L1I WRITEBACK ACCESS:          0  HIT:          0  MISS:          0
cpu0_STLB TOTAL     ACCESS:     115304  HIT:      19756  MISS:      95548
cpu0_STLB LOAD      ACCESS:      26589  HIT:      19484  MISS:       7105
cpu0_STLB RFO       ACCESS:      88715  HIT:        272  MISS:      88443
cpu0_STLB PREFETCH  ACCESS:          0  HIT:          0  MISS:          0
cpu0_STLB WRITEBACK ACCESS:          0  HIT:          0  MISS:          0
cpu0_L1D TOTAL     ACCESS:    2104178  HIT:    1738602  MISS:     365576
cpu0_L1D LOAD      ACCESS:    1219951  HIT:    1035160  MISS:     184791
cpu0_L1D RFO       ACCESS:     788742  HIT:     614138  MISS:     174604
cpu0_L1D PREFETCH  ACCESS:          0  HIT:          0  MISS:          0
cpu0_L1D WRITEBACK ACCESS:          0  HIT:          0  MISS:          0
cpu0_L2C TOTAL     ACCESS:     724990  HIT:     389435  MISS:     335555
cpu0_L2C LOAD      ACCESS:     184788  HIT:      24329  MISS:     160459
cpu0_L2C RFO       ACCESS:     174604  HIT:          2  MISS:     174602
cpu0_L2C PREFETCH  ACCESS:          0  HIT:          0  MISS:          0
cpu0_L2C WRITEBACK ACCESS:     359417  HIT:     359333  MISS:         84
LLC TOTAL     ACCESS:     670546  HIT:     356325  MISS:     314221
LLC LOAD      ACCESS:     160452  HIT:      56047  MISS:     104405
LLC RFO       ACCESS:     174602  HIT:       3294  MISS:     171308
LLC PREFETCH  ACCESS:          0  HIT:          0  MISS:          0
LLC WRITEBACK ACCESS:     335082  HIT:     296689  MISS:      38393
Heartbeat CPU 0 instructions: 56000001 cycles: 62736315 heartbeat IPC: 0.132551 cumulative IPC: 0.132618 (Simulation time: 1 hr 14 min 4 sec) 

Region of Interest Statistics
cpu0_DTLB TOTAL     ACCESS:    3531427  HIT:    3358830  MISS:     172597
cpu0_DTLB LOAD      ACCESS:    1698348  HIT:    1658936  MISS:      39412
cpu0_DTLB RFO       ACCESS:    1833079  HIT:    1699894  MISS:     133185
cpu0_DTLB PREFETCH  ACCESS:          0  HIT:          0  MISS:          0
cpu0_DTLB WRITEBACK ACCESS:          0  HIT:          0  MISS:          0
cpu0_ITLB TOTAL     ACCESS:     601058  HIT:     601058  MISS:          0
cpu0_ITLB LOAD      ACCESS:     601058  HIT:     601058  MISS:          0
cpu0_ITLB RFO       ACCESS:          0  HIT:          0  MISS:          0
cpu0_ITLB PREFETCH  ACCESS:          0  HIT:          0  MISS:          0
cpu0_ITLB WRITEBACK ACCESS:          0  HIT:          0  MISS:          0
cpu0_L1I TOTAL     ACCESS:      86731  HIT:      86731  MISS:          0
cpu0_L1I LOAD      ACCESS:      86731  HIT:      86731  MISS:          0
cpu0_L1I RFO       ACCESS:          0  HIT:          0  MISS:          0
cpu0_L1I PREFETCH  ACCESS:          0  HIT:          0  MISS:          0
cpu0_L1I WRITEBACK ACCESS:          0  HIT:          0  MISS:          0
cpu0_STLB TOTAL     ACCESS:     172597  HIT:      29228  MISS:     143369
cpu0_STLB LOAD      ACCESS:      39412  HIT:      28693  MISS:      10719
cpu0_STLB RFO       ACCESS:     133185  HIT:        535  MISS:     132650
cpu0_STLB PREFETCH  ACCESS:          0  HIT:          0  MISS:          0
cpu0_STLB WRITEBACK ACCESS:          0  HIT:          0  MISS:          0
cpu0_L1D TOTAL     ACCESS:    3158451  HIT:    2609537  MISS:     548914
cpu0_L1D LOAD      ACCESS:    1831254  HIT:    1553677  MISS:     277577
cpu0_L1D RFO       ACCESS:    1183917  HIT:     921877  MISS:     262040
cpu0_L1D PREFETCH  ACCESS:          0  HIT:          0  MISS:          0
cpu0_L1D WRITEBACK ACCESS:          0  HIT:          0  MISS:          0
cpu0_L2C TOTAL     ACCESS:    1088548  HIT:     583686  MISS:     504862
cpu0_L2C LOAD      ACCESS:     277572  HIT:      35495  MISS:     242077
cpu0_L2C RFO       ACCESS:     262040  HIT:          5  MISS:     262035
cpu0_L2C PREFETCH  ACCESS:          0  HIT:          0  MISS:          0
cpu0_L2C WRITEBACK ACCESS:     539639  HIT:     539511  MISS:        128
LLC TOTAL     ACCESS:    1008866  HIT:     537111  MISS:     471755
LLC LOAD      ACCESS:     242068  HIT:      85179  MISS:     156889
LLC RFO       ACCESS:     262035  HIT:       4918  MISS:     257117
LLC PREFETCH  ACCESS:          0  HIT:          0  MISS:          0
LLC WRITEBACK ACCESS:     504141  HIT:     446570  MISS:      57571
Heartbeat CPU 0 instructions: 58000001 cycles: 77940499 heartbeat IPC: 0.131543 cumulative IPC: 0.132347 (Simulation time: 1 hr 20 min 39 sec) 

Region of Interest Statistics
cpu0_DTLB TOTAL     ACCESS:    4713035  HIT:    4482445  MISS:     230590
cpu0_DTLB LOAD      ACCESS:    2267128  HIT:    2214298  MISS:      52830
cpu0_DTLB RFO       ACCESS:    2445907  HIT:    2268147  MISS:     177760
cpu0_DTLB PREFETCH  ACCESS:          0  HIT:          0  MISS:          0
cpu0_DTLB WRITEBACK ACCESS:          0  HIT:          0  MISS:          0
cpu0_ITLB TOTAL     ACCESS:     806578  HIT:     806578  MISS:          0
cpu0_ITLB LOAD      ACCESS:     806578  HIT:     806578  MISS:          0
cpu0_ITLB RFO       ACCESS:          0  HIT:          0  MISS:          0
cpu0_ITLB PREFETCH  ACCESS:          0  HIT:          0  MISS:          0
cpu0_ITLB WRITEBACK ACCESS:          0  HIT:          0  MISS:          0
cpu0_L1I TOTAL     ACCESS:     108273  HIT:     108273  MISS:          0
cpu0_L1I LOAD      ACCESS:     108273  HIT:     108273  MISS:          0
cpu0_L1I RFO       ACCESS:          0  HIT:          0  MISS:          0
cpu0_L1I PREFETCH  ACCESS:          0  HIT:          0  MISS:          0
cpu0_L1I WRITEBACK ACCESS:          0  HIT:          0  MISS:          0
cpu0_STLB TOTAL     ACCESS:     230590  HIT:      39181  MISS:     191409
cpu0_STLB LOAD      ACCESS:      52830  HIT:      38498  MISS:      14332
cpu0_STLB RFO       ACCESS:     177760  HIT:        683  MISS:     177077
cpu0_STLB PREFETCH  ACCESS:          0  HIT:          0  MISS:          0
cpu0_STLB WRITEBACK ACCESS:          0  HIT:          0  MISS:          0
cpu0_L1D TOTAL     ACCESS:    4218806  HIT:    3486492  MISS:     732314
cpu0_L1D LOAD      ACCESS:    2447817  HIT:    2077493  MISS:     370324
cpu0_L1D RFO       ACCESS:    1579698  HIT:    1230050  MISS:     349648
cpu0_L1D PREFETCH  ACCESS:          0  HIT:          0  MISS:          0
cpu0_L1D WRITEBACK ACCESS:          0  HIT:          0  MISS:          0
cpu0_L2C TOTAL     ACCESS:    1452303  HIT:     779935  MISS:     672368
cpu0_L2C LOAD      ACCESS:     370319  HIT:      48608  MISS:     321711
cpu0_L2C RFO       ACCESS:     349648  HIT:         20  MISS:     349628
cpu0_L2C PREFETCH  ACCESS:          0  HIT:          0  MISS:          0
cpu0_L2C WRITEBACK ACCESS:     719994  HIT:     719825  MISS:        169
LLC TOTAL     ACCESS:    1343565  HIT:     714274  MISS:     629291
LLC LOAD      ACCESS:     321701  HIT:     112519  MISS:     209182
LLC RFO       ACCESS:     349628  HIT:       6707  MISS:     342921
LLC PREFETCH  ACCESS:          0  HIT:          0  MISS:          0
LLC WRITEBACK ACCESS:     671376  HIT:     594443  MISS:      76933
Heartbeat CPU 0 instructions: 60000002 cycles: 92978785 heartbeat IPC: 0.132994 cumulative IPC: 0.132476 (Simulation time: 1 hr 27 min 39 sec) 

Region of Interest Statistics
cpu0_DTLB TOTAL     ACCESS:    5892379  HIT:    5603801  MISS:     288578
cpu0_DTLB LOAD      ACCESS:    2834397  HIT:    2767913  MISS:      66484
cpu0_DTLB RFO       ACCESS:    3057982  HIT:    2835888  MISS:     222094
cpu0_DTLB PREFETCH  ACCESS:          0  HIT:          0  MISS:          0
cpu0_DTLB WRITEBACK ACCESS:          0  HIT:          0  MISS:          0
cpu0_ITLB TOTAL     ACCESS:    1004430  HIT:    1004430  MISS:          0
cpu0_ITLB LOAD      ACCESS:    1004430  HIT:    1004430  MISS:          0
cpu0_ITLB RFO       ACCESS:          0  HIT:          0  MISS:          0
cpu0_ITLB PREFETCH  ACCESS:          0  HIT:          0  MISS:          0
cpu0_ITLB WRITEBACK ACCESS:          0  HIT:          0  MISS:          0
cpu0_L1I TOTAL     ACCESS:     141985  HIT:     141985  MISS:          0
cpu0_L1I LOAD      ACCESS:     141985  HIT:     141985  MISS:          0
cpu0_L1I RFO       ACCESS:          0  HIT:          0  MISS:          0
cpu0_L1I PREFETCH  ACCESS:          0  HIT:          0  MISS:          0
cpu0_L1I WRITEBACK ACCESS:          0  HIT:          0  MISS:          0
cpu0_STLB TOTAL     ACCESS:     288578  HIT:      49545  MISS:     239033
cpu0_STLB LOAD      ACCESS:      66484  HIT:      48699  MISS:      17785
cpu0_STLB RFO       ACCESS:     222094  HIT:        846  MISS:     221248
cpu0_STLB PREFETCH  ACCESS:          0  HIT:          0  MISS:          0
cpu0_STLB WRITEBACK ACCESS:          0  HIT:          0  MISS:          0
cpu0_L1D TOTAL     ACCESS:    5273361  HIT:    4357704  MISS:     915657
cpu0_L1D LOAD      ACCESS:    3058428  HIT:    2595332  MISS:     463096
cpu0_L1D RFO       ACCESS:    1976048  HIT:    1538905  MISS:     437143
cpu0_L1D PREFETCH  ACCESS:          0  HIT:          0  MISS:          0
cpu0_L1D WRITEBACK ACCESS:          0  HIT:          0  MISS:          0
cpu0_L2C TOTAL     ACCESS:    1815920  HIT:     976779  MISS:     839141
cpu0_L2C LOAD      ACCESS:     463090  HIT:      62332  MISS:     400758
cpu0_L2C RFO       ACCESS:     437143  HIT:         73  MISS:     437070
cpu0_L2C PREFETCH  ACCESS:          0  HIT:          0  MISS:          0
cpu0_L2C WRITEBACK ACCESS:     900269  HIT:     900056  MISS:        213
LLC TOTAL     ACCESS:    1676788  HIT:     890892  MISS:     785896
LLC LOAD      ACCESS:     400742  HIT:     139296  MISS:     261446
LLC RFO       ACCESS:     437070  HIT:       8978  MISS:     428092
LLC PREFETCH  ACCESS:          0  HIT:          0  MISS:          0
LLC WRITEBACK ACCESS:     837876  HIT:     741845  MISS:      96031
Heartbeat CPU 0 instructions: 62000001 cycles: 108031321 heartbeat IPC: 0.132868 cumulative IPC: 0.132541 (Simulation time: 1 hr 34 min 40 sec) 

Region of Interest Statistics
cpu0_DTLB TOTAL     ACCESS:    7068401  HIT:    6721742  MISS:     346659
cpu0_DTLB LOAD      ACCESS:    3399943  HIT:    3319755  MISS:      80188
cpu0_DTLB RFO       ACCESS:    3668458  HIT:    3401987  MISS:     266471
cpu0_DTLB PREFETCH  ACCESS:          0  HIT:          0  MISS:          0
cpu0_DTLB WRITEBACK ACCESS:          0  HIT:          0  MISS:          0
cpu0_ITLB TOTAL     ACCESS:    1200184  HIT:    1200184  MISS:          0
cpu0_ITLB LOAD      ACCESS:    1200184  HIT:    1200184  MISS:          0
cpu0_ITLB RFO       ACCESS:          0  HIT:          0  MISS:          0
cpu0_ITLB PREFETCH  ACCESS:          0  HIT:          0  MISS:          0
cpu0_ITLB WRITEBACK ACCESS:          0  HIT:          0  MISS:          0
cpu0_L1I TOTAL     ACCESS:     178126  HIT:     178126  MISS:          0
cpu0_L1I LOAD      ACCESS:     178126  HIT:     178126  MISS:          0
cpu0_L1I RFO       ACCESS:          0  HIT:          0  MISS:          0
cpu0_L1I PREFETCH  ACCESS:          0  HIT:          0  MISS:          0
cpu0_L1I WRITEBACK ACCESS:          0  HIT:          0  MISS:          0
cpu0_STLB TOTAL     ACCESS:     346659  HIT:      60021  MISS:     286638
cpu0_STLB LOAD      ACCESS:      80188  HIT:      58877  MISS:      21311
cpu0_STLB RFO       ACCESS:     266471  HIT:       1144  MISS:     265327
cpu0_STLB PREFETCH  ACCESS:          0  HIT:          0  MISS:          0
cpu0_STLB WRITEBACK ACCESS:          0  HIT:          0  MISS:          0
cpu0_L1D TOTAL     ACCESS:    6322242  HIT:    5223704  MISS:    1098538
cpu0_L1D LOAD      ACCESS:    3665970  HIT:    3110405  MISS:     555565
cpu0_L1D RFO       ACCESS:    2369805  HIT:    1845400  MISS:     524405
cpu0_L1D PREFETCH  ACCESS:          0  HIT:          0  MISS:          0
cpu0_L1D WRITEBACK ACCESS:          0  HIT:          0  MISS:          0
cpu0_L2C TOTAL     ACCESS:    2178510  HIT:    1172599  MISS:    1005911
cpu0_L2C LOAD      ACCESS:     555557  HIT:      75553  MISS:     480004
cpu0_L2C RFO       ACCESS:     524405  HIT:         73  MISS:     524332
cpu0_L2C PREFETCH  ACCESS:          0  HIT:          0  MISS:          0
cpu0_L2C WRITEBACK ACCESS:    1079980  HIT:    1079715  MISS:        265
LLC TOTAL     ACCESS:    2010021  HIT:    1066631  MISS:     943390
LLC LOAD      ACCESS:     479986  HIT:     166251  MISS:     313735
LLC RFO       ACCESS:     524332  HIT:      10282  MISS:     514050
LLC PREFETCH  ACCESS:          0  HIT:          0  MISS:          0
LLC WRITEBACK ACCESS:    1004393  HIT:     889180  MISS:     115213
Heartbeat CPU 0 instructions: 64000000 cycles: 123335647 heartbeat IPC: 0.130682 cumulative IPC: 0.132272 (Simulation time: 1 hr 41 min 24 sec) 

Region of Interest Statistics
cpu0_DTLB TOTAL     ACCESS:    8251039  HIT:    7846459  MISS:     404580
cpu0_DTLB LOAD      ACCESS:    3968852  HIT:    3875415  MISS:      93437
cpu0_DTLB RFO       ACCESS:    4282187  HIT:    3971044  MISS:     311143
cpu0_DTLB PREFETCH  ACCESS:          0  HIT:          0  MISS:          0
cpu0_DTLB WRITEBACK ACCESS:          0  HIT:          0  MISS:          0
cpu0_ITLB TOTAL     ACCESS:    1402746  HIT:    1402746  MISS:          0
cpu0_ITLB LOAD      ACCESS:    1402746  HIT:    1402746  MISS:          0
cpu0_ITLB RFO       ACCESS:          0  HIT:          0  MISS:          0
cpu0_ITLB PREFETCH  ACCESS:          0  HIT:          0  MISS:          0
cpu0_ITLB WRITEBACK ACCESS:          0  HIT:          0  MISS:          0
cpu0_L1I TOTAL     ACCESS:     205102  HIT:     205102  MISS:          0
cpu0_L1I LOAD      ACCESS:     205102  HIT:     205102  MISS:          0
cpu0_L1I RFO       ACCESS:          0  HIT:          0  MISS:          0
cpu0_L1I PREFETCH  ACCESS:          0  HIT:          0  MISS:          0
cpu0_L1I WRITEBACK ACCESS:          0  HIT:          0  MISS:          0
cpu0_STLB TOTAL     ACCESS:     404580  HIT:      69864  MISS:     334716
cpu0_STLB LOAD      ACCESS:      93437  HIT:      68495  MISS:      24942
cpu0_STLB RFO       ACCESS:     311143  HIT:       1369  MISS:     309774
cpu0_STLB PREFETCH  ACCESS:          0  HIT:          0  MISS:          0
cpu0_STLB WRITEBACK ACCESS:          0  HIT:          0  MISS:          0
cpu0_L1D TOTAL     ACCESS:    7380927  HIT:    6098465  MISS:    1282462
cpu0_L1D LOAD      ACCESS:    4280891  HIT:    3632245  MISS:     648646
cpu0_L1D RFO       ACCESS:    2765515  HIT:    2153371  MISS:     612144
cpu0_L1D PREFETCH  ACCESS:          0  HIT:          0  MISS:          0
cpu0_L1D WRITEBACK ACCESS:          0  HIT:          0  MISS:          0
cpu0_L2C TOTAL     ACCESS:    2543250  HIT:    1369808  MISS:    1173442
cpu0_L2C LOAD      ACCESS:     648634  HIT:      89103  MISS:     559531
cpu0_L2C RFO       ACCESS:     612144  HIT:         75  MISS:     612069
cpu0_L2C PREFETCH  ACCESS:          0  HIT:          0  MISS:          0
cpu0_L2C WRITEBACK ACCESS:    1260800  HIT:    1260486  MISS:        314
LLC TOTAL     ACCESS:    2344775  HIT:    1242447  MISS:    1102328
LLC LOAD      ACCESS:     559511  HIT:     192850  MISS:     366661
LLC RFO       ACCESS:     612069  HIT:      11703  MISS:     600366
LLC PREFETCH  ACCESS:          0  HIT:          0  MISS:          0
LLC WRITEBACK ACCESS:    1171667  HIT:    1036824  MISS:     134843
Heartbeat CPU 0 instructions: 66000003 cycles: 138349567 heartbeat IPC: 0.13321 cumulative IPC: 0.132389 (Simulation time: 1 hr 48 min 21 sec) 

Region of Interest Statistics
cpu0_DTLB TOTAL     ACCESS:    9428611  HIT:    8966652  MISS:     461959
cpu0_DTLB LOAD      ACCESS:    4534762  HIT:    4428290  MISS:     106472
cpu0_DTLB RFO       ACCESS:    4893849  HIT:    4538362  MISS:     355487
cpu0_DTLB PREFETCH  ACCESS:          0  HIT:          0  MISS:          0
cpu0_DTLB WRITEBACK ACCESS:          0  HIT:          0  MISS:          0
cpu0_ITLB TOTAL     ACCESS:    1602863  HIT:    1602863  MISS:          0
cpu0_ITLB LOAD      ACCESS:    1602863  HIT:    1602863  MISS:          0
cpu0_ITLB RFO       ACCESS:          0  HIT:          0  MISS:          0
cpu0_ITLB PREFETCH  ACCESS:          0  HIT:          0  MISS:          0
cpu0_ITLB WRITEBACK ACCESS:          0  HIT:          0  MISS:          0
cpu0_L1I TOTAL     ACCESS:     234778  HIT:     234778  MISS:          0
cpu0_L1I LOAD      ACCESS:     234778  HIT:     234778  MISS:          0
cpu0_L1I RFO       ACCESS:          0  HIT:          0  MISS:          0
cpu0_L1I PREFETCH  ACCESS:          0  HIT:          0  MISS:          0
cpu0_L1I WRITEBACK ACCESS:          0  HIT:          0  MISS:          0
cpu0_STLB TOTAL     ACCESS:     461959  HIT:      79467  MISS:     382492
cpu0_STLB LOAD      ACCESS:     106472  HIT:      77920  MISS:      28552
cpu0_STLB RFO       ACCESS:     355487  HIT:       1547  MISS:     353940
cpu0_STLB PREFETCH  ACCESS:          0  HIT:          0  MISS:          0
cpu0_STLB WRITEBACK ACCESS:          0  HIT:          0  MISS:          0
cpu0_L1D TOTAL     ACCESS:    8434457  HIT:    6968646  MISS:    1465811
cpu0_L1D LOAD      ACCESS:    4891081  HIT:    4149765  MISS:     741316
cpu0_L1D RFO       ACCESS:    3161109  HIT:    2461527  MISS:     699582
cpu0_L1D PREFETCH  ACCESS:          0  HIT:          0  MISS:          0
cpu0_L1D WRITEBACK ACCESS:          0  HIT:          0  MISS:          0
cpu0_L2C TOTAL     ACCESS:    2906700  HIT:    1566814  MISS:    1339886
cpu0_L2C LOAD      ACCESS:     741303  HIT:     103025  MISS:     638278
cpu0_L2C RFO       ACCESS:     699582  HIT:         75  MISS:     699507
cpu0_L2C PREFETCH  ACCESS:          0  HIT:          0  MISS:          0
cpu0_L2C WRITEBACK ACCESS:    1440902  HIT:    1440535  MISS:        367
LLC TOTAL     ACCESS:    2677353  HIT:    1417783  MISS:    1259570
LLC LOAD      ACCESS:     638253  HIT:     219242  MISS:     419011
LLC RFO       ACCESS:     699507  HIT:      13570  MISS:     685937
LLC PREFETCH  ACCESS:          0  HIT:          0  MISS:          0
LLC WRITEBACK ACCESS:    1337859  HIT:    1183790  MISS:     154069
Heartbeat CPU 0 instructions: 68000004 cycles: 153542331 heartbeat IPC: 0.131642 cumulative IPC: 0.132305 (Simulation time: 1 hr 55 min 2 sec) 

Region of Interest Statistics
cpu0_DTLB TOTAL     ACCESS:   10609722  HIT:   10090443  MISS:     519279
cpu0_DTLB LOAD      ACCESS:    5102998  HIT:    4983652  MISS:     119346
cpu0_DTLB RFO       ACCESS:    5506724  HIT:    5106791  MISS:     399933
cpu0_DTLB PREFETCH  ACCESS:          0  HIT:          0  MISS:          0
cpu0_DTLB WRITEBACK ACCESS:          0  HIT:          0  MISS:          0
cpu0_ITLB TOTAL     ACCESS:    1807089  HIT:    1807089  MISS:          0
cpu0_ITLB LOAD      ACCESS:    1807089  HIT:    1807089  MISS:          0
cpu0_ITLB RFO       ACCESS:          0  HIT:          0  MISS:          0
cpu0_ITLB PREFETCH  ACCESS:          0  HIT:          0  MISS:          0
cpu0_ITLB WRITEBACK ACCESS:          0  HIT:          0  MISS:          0
cpu0_L1I TOTAL     ACCESS:     258354  HIT:     258354  MISS:          0
cpu0_L1I LOAD      ACCESS:     258354  HIT:     258354  MISS:          0
cpu0_L1I RFO       ACCESS:          0  HIT:          0  MISS:          0
cpu0_L1I PREFETCH  ACCESS:          0  HIT:          0  MISS:          0
cpu0_L1I WRITEBACK ACCESS:          0  HIT:          0  MISS:          0
cpu0_STLB TOTAL     ACCESS:     519279  HIT:      88576  MISS:     430703
cpu0_STLB LOAD      ACCESS:     119346  HIT:      86890  MISS:      32456
cpu0_STLB RFO       ACCESS:     399933  HIT:       1686  MISS:     398247
cpu0_STLB PREFETCH  ACCESS:          0  HIT:          0  MISS:          0
cpu0_STLB WRITEBACK ACCESS:          0  HIT:          0  MISS:          0
cpu0_L1D TOTAL     ACCESS:    9492912  HIT:    7843368  MISS:    1649544
cpu0_L1D LOAD      ACCESS:    5506112  HIT:    4671934  MISS:     834178
cpu0_L1D RFO       ACCESS:    3556338  HIT:    2769144  MISS:     787194
cpu0_L1D PREFETCH  ACCESS:          0  HIT:          0  MISS:          0
cpu0_L1D WRITEBACK ACCESS:          0  HIT:          0  MISS:          0
cpu0_L2C TOTAL     ACCESS:    3270912  HIT:    1761603  MISS:    1509309
cpu0_L2C LOAD      ACCESS:     834162  HIT:     114378  MISS:     719784
cpu0_L2C RFO       ACCESS:     787194  HIT:         75  MISS:     787119
cpu0_L2C PREFETCH  ACCESS:          0  HIT:          0  MISS:          0
cpu0_L2C WRITEBACK ACCESS:    1621384  HIT:    1620967  MISS:        417
LLC TOTAL     ACCESS:    3015854  HIT:    1598554  MISS:    1417300
LLC LOAD      ACCESS:     719759  HIT:     248287  MISS:     471472
LLC RFO       ACCESS:     787119  HIT:      14813  MISS:     772306
LLC PREFETCH  ACCESS:          0  HIT:          0  MISS:          0
LLC WRITEBACK ACCESS:    1506987  HIT:    1334072  MISS:     172915
Heartbeat CPU 0 instructions: 70000004 cycles: 168665822 heartbeat IPC: 0.132245 cumulative IPC: 0.132299 (Simulation time: 2 hr 2 min 16 sec) 

Region of Interest Statistics
cpu0_DTLB TOTAL     ACCESS:   11786733  HIT:   11209279  MISS:     577454
cpu0_DTLB LOAD      ACCESS:    5668928  HIT:    5535818  MISS:     133110
cpu0_DTLB RFO       ACCESS:    6117805  HIT:    5673461  MISS:     444344
cpu0_DTLB PREFETCH  ACCESS:          0  HIT:          0  MISS:          0
cpu0_DTLB WRITEBACK ACCESS:          0  HIT:          0  MISS:          0
cpu0_ITLB TOTAL     ACCESS:    2002168  HIT:    2002168  MISS:          0
cpu0_ITLB LOAD      ACCESS:    2002168  HIT:    2002168  MISS:          0
cpu0_ITLB RFO       ACCESS:          0  HIT:          0  MISS:          0
cpu0_ITLB PREFETCH  ACCESS:          0  HIT:          0  MISS:          0
cpu0_ITLB WRITEBACK ACCESS:          0  HIT:          0  MISS:          0
cpu0_L1I TOTAL     ACCESS:     295988  HIT:     295988  MISS:          0
cpu0_L1I LOAD      ACCESS:     295988  HIT:     295988  MISS:          0
cpu0_L1I RFO       ACCESS:          0  HIT:          0  MISS:          0
cpu0_L1I PREFETCH  ACCESS:          0  HIT:          0  MISS:          0
cpu0_L1I WRITEBACK ACCESS:          0  HIT:          0  MISS:          0
cpu0_STLB TOTAL     ACCESS:     577454  HIT:      98906  MISS:     478548
cpu0_STLB LOAD      ACCESS:     133110  HIT:      97045  MISS:      36065
cpu0_STLB RFO       ACCESS:     444344  HIT:       1861  MISS:     442483
cpu0_STLB PREFETCH  ACCESS:          0  HIT:          0  MISS:          0
cpu0_STLB WRITEBACK ACCESS:          0  HIT:          0  MISS:          0
cpu0_L1D TOTAL     ACCESS:   10543375  HIT:    8710574  MISS:    1832801
cpu0_L1D LOAD      ACCESS:    6113768  HIT:    5186916  MISS:     926852
cpu0_L1D RFO       ACCESS:    3951334  HIT:    3076789  MISS:     874545
cpu0_L1D PREFETCH  ACCESS:          0  HIT:          0  MISS:          0
cpu0_L1D WRITEBACK ACCESS:          0  HIT:          0  MISS:          0
cpu0_L2C TOTAL     ACCESS:    3634208  HIT:    1957929  MISS:    1676279
cpu0_L2C LOAD      ACCESS:     926836  HIT:     127635  MISS:     799201
cpu0_L2C RFO       ACCESS:     874545  HIT:        100  MISS:     874445
cpu0_L2C PREFETCH  ACCESS:          0  HIT:          0  MISS:          0
cpu0_L2C WRITEBACK ACCESS:    1801423  HIT:    1800964  MISS:        459
LLC TOTAL     ACCESS:    3349526  HIT:    1774616  MISS:    1574910
LLC LOAD      ACCESS:     799174  HIT:     275399  MISS:     523775
LLC RFO       ACCESS:     874445  HIT:      16334  MISS:     858111
LLC PREFETCH  ACCESS:          0  HIT:          0  MISS:          0
LLC WRITEBACK ACCESS:    1673733  HIT:    1481365  MISS:     192368
Heartbeat CPU 0 instructions: 72000003 cycles: 183972944 heartbeat IPC: 0.130658 cumulative IPC: 0.132148 (Simulation time: 2 hr 8 min 46 sec) 

Region of Interest Statistics
cpu0_DTLB TOTAL     ACCESS:   12971793  HIT:   12336136  MISS:     635657
cpu0_DTLB LOAD      ACCESS:    6239366  HIT:    6092850  MISS:     146516
cpu0_DTLB RFO       ACCESS:    6732427  HIT:    6243286  MISS:     489141
cpu0_DTLB PREFETCH  ACCESS:          0  HIT:          0  MISS:          0
cpu0_DTLB WRITEBACK ACCESS:          0  HIT:          0  MISS:          0
cpu0_ITLB TOTAL     ACCESS:    2206978  HIT:    2206978  MISS:          0
cpu0_ITLB LOAD      ACCESS:    2206978  HIT:    2206978  MISS:          0
cpu0_ITLB RFO       ACCESS:          0  HIT:          0  MISS:          0
cpu0_ITLB PREFETCH  ACCESS:          0  HIT:          0  MISS:          0
cpu0_ITLB WRITEBACK ACCESS:          0  HIT:          0  MISS:          0
cpu0_L1I TOTAL     ACCESS:     319866  HIT:     319866  MISS:          0
cpu0_L1I LOAD      ACCESS:     319866  HIT:     319866  MISS:          0
cpu0_L1I RFO       ACCESS:          0  HIT:          0  MISS:          0
cpu0_L1I PREFETCH  ACCESS:          0  HIT:          0  MISS:          0
cpu0_L1I WRITEBACK ACCESS:          0  HIT:          0  MISS:          0
cpu0_STLB TOTAL     ACCESS:     635657  HIT:     108644  MISS:     527013
cpu0_STLB LOAD      ACCESS:     146516  HIT:     106652  MISS:      39864
cpu0_STLB RFO       ACCESS:     489141  HIT:       1992  MISS:     487149
cpu0_STLB PREFETCH  ACCESS:          0  HIT:          0  MISS:          0
cpu0_STLB WRITEBACK ACCESS:          0  HIT:          0  MISS:          0
cpu0_L1D TOTAL     ACCESS:   11606065  HIT:    9589051  MISS:    2017014
cpu0_L1D LOAD      ACCESS:    6731368  HIT:    5711396  MISS:    1019972
cpu0_L1D RFO       ACCESS:    4347997  HIT:    3385586  MISS:     962411
cpu0_L1D PREFETCH  ACCESS:          0  HIT:          0  MISS:          0
cpu0_L1D WRITEBACK ACCESS:          0  HIT:          0  MISS:          0
cpu0_L2C TOTAL     ACCESS:    3999403  HIT:    2153850  MISS:    1845553
cpu0_L2C LOAD      ACCESS:    1019954  HIT:     139612  MISS:     880342
cpu0_L2C RFO       ACCESS:     962411  HIT:        100  MISS:     962311
cpu0_L2C PREFETCH  ACCESS:          0  HIT:          0  MISS:          0
cpu0_L2C WRITEBACK ACCESS:    1982407  HIT:    1981899  MISS:        508
LLC TOTAL     ACCESS:    3687762  HIT:    1954398  MISS:    1733364
LLC LOAD      ACCESS:     880312  HIT:     303819  MISS:     576493
LLC RFO       ACCESS:     962311  HIT:      17948  MISS:     944363
LLC PREFETCH  ACCESS:          0  HIT:          0  MISS:          0
LLC WRITEBACK ACCESS:    1842747  HIT:    1630966  MISS:     211781
Heartbeat CPU 0 instructions: 74000001 cycles: 199105191 heartbeat IPC: 0.132168 cumulative IPC: 0.13215 (Simulation time: 2 hr 16 min 3 sec) 

Region of Interest Statistics
cpu0_DTLB TOTAL     ACCESS:   14145397  HIT:   13451254  MISS:     694143
cpu0_DTLB LOAD      ACCESS:    6803026  HIT:    6642416  MISS:     160610
cpu0_DTLB RFO       ACCESS:    7342371  HIT:    6808838  MISS:     533533
cpu0_DTLB PREFETCH  ACCESS:          0  HIT:          0  MISS:          0
cpu0_DTLB WRITEBACK ACCESS:          0  HIT:          0  MISS:          0
cpu0_ITLB TOTAL     ACCESS:    2403183  HIT:    2403183  MISS:          0
cpu0_ITLB LOAD      ACCESS:    2403183  HIT:    2403183  MISS:          0
cpu0_ITLB RFO       ACCESS:          0  HIT:          0  MISS:          0
cpu0_ITLB PREFETCH  ACCESS:          0  HIT:          0  MISS:          0
cpu0_ITLB WRITEBACK ACCESS:          0  HIT:          0  MISS:          0
cpu0_L1I TOTAL     ACCESS:     354818  HIT:     354818  MISS:          0
cpu0_L1I LOAD      ACCESS:     354818  HIT:     354818  MISS:          0
cpu0_L1I RFO       ACCESS:          0  HIT:          0  MISS:          0
cpu0_L1I PREFETCH  ACCESS:          0  HIT:          0  MISS:          0
cpu0_L1I WRITEBACK ACCESS:          0  HIT:          0  MISS:          0
cpu0_STLB TOTAL     ACCESS:     694143  HIT:     119047  MISS:     575096
cpu0_STLB LOAD      ACCESS:     160610  HIT:     116858  MISS:      43752
cpu0_STLB RFO       ACCESS:     533533  HIT:       2189  MISS:     531344
cpu0_STLB PREFETCH  ACCESS:          0  HIT:          0  MISS:          0
cpu0_STLB WRITEBACK ACCESS:          0  HIT:          0  MISS:          0
cpu0_L1D TOTAL     ACCESS:   12652085  HIT:   10451970  MISS:    2200115
cpu0_L1D LOAD      ACCESS:    7336469  HIT:    6223832  MISS:    1112637
cpu0_L1D RFO       ACCESS:    4740865  HIT:    3691259  MISS:    1049606
cpu0_L1D PREFETCH  ACCESS:          0  HIT:          0  MISS:          0
cpu0_L1D WRITEBACK ACCESS:          0  HIT:          0  MISS:          0
cpu0_L2C TOTAL     ACCESS:    4362352  HIT:    2348491  MISS:    2013861
cpu0_L2C LOAD      ACCESS:    1112619  HIT:     151448  MISS:     961171
cpu0_L2C RFO       ACCESS:    1049606  HIT:        100  MISS:    1049506
cpu0_L2C PREFETCH  ACCESS:          0  HIT:          0  MISS:          0
cpu0_L2C WRITEBACK ACCESS:    2162255  HIT:    2161690  MISS:        565
LLC TOTAL     ACCESS:    4024045  HIT:    2131964  MISS:    1892081
LLC LOAD      ACCESS:     961139  HIT:     331946  MISS:     629193
LLC RFO       ACCESS:    1049506  HIT:      18527  MISS:    1030979
LLC PREFETCH  ACCESS:          0  HIT:          0  MISS:          0
LLC WRITEBACK ACCESS:    2010781  HIT:    1779683  MISS:     231098
Heartbeat CPU 0 instructions: 76000000 cycles: 214400491 heartbeat IPC: 0.130759 cumulative IPC: 0.132042 (Simulation time: 2 hr 23 min 1 sec) 

Region of Interest Statistics
cpu0_DTLB TOTAL     ACCESS:   15325321  HIT:   14573423  MISS:     751898
cpu0_DTLB LOAD      ACCESS:    7370948  HIT:    7197019  MISS:     173929
cpu0_DTLB RFO       ACCESS:    7954373  HIT:    7376404  MISS:     577969
cpu0_DTLB PREFETCH  ACCESS:          0  HIT:          0  MISS:          0
cpu0_DTLB WRITEBACK ACCESS:          0  HIT:          0  MISS:          0
cpu0_ITLB TOTAL     ACCESS:    2602202  HIT:    2602202  MISS:          0
cpu0_ITLB LOAD      ACCESS:    2602202  HIT:    2602202  MISS:          0
cpu0_ITLB RFO       ACCESS:          0  HIT:          0  MISS:          0
cpu0_ITLB PREFETCH  ACCESS:          0  HIT:          0  MISS:          0
cpu0_ITLB WRITEBACK ACCESS:          0  HIT:          0  MISS:          0
cpu0_L1I TOTAL     ACCESS:     386677  HIT:     386677  MISS:          0
cpu0_L1I LOAD      ACCESS:     386677  HIT:     386677  MISS:          0
cpu0_L1I RFO       ACCESS:          0  HIT:          0  MISS:          0
cpu0_L1I PREFETCH  ACCESS:          0  HIT:          0  MISS:          0
cpu0_L1I WRITEBACK ACCESS:          0  HIT:          0  MISS:          0
cpu0_STLB TOTAL     ACCESS:     751898  HIT:     128463  MISS:     623435
cpu0_STLB LOAD      ACCESS:     173929  HIT:     126080  MISS:      47849
cpu0_STLB RFO       ACCESS:     577969  HIT:       2383  MISS:     575586
cpu0_STLB PREFETCH  ACCESS:          0  HIT:          0  MISS:          0
cpu0_STLB WRITEBACK ACCESS:          0  HIT:          0  MISS:          0
cpu0_L1D TOTAL     ACCESS:   13706825  HIT:   11323343  MISS:    2383482
cpu0_L1D LOAD      ACCESS:    7948706  HIT:    6743486  MISS:    1205220
cpu0_L1D RFO       ACCESS:    5135073  HIT:    3997977  MISS:    1137096
cpu0_L1D PREFETCH  ACCESS:          0  HIT:          0  MISS:          0
cpu0_L1D WRITEBACK ACCESS:          0  HIT:          0  MISS:          0
cpu0_L2C TOTAL     ACCESS:    4725809  HIT:    2541881  MISS:    2183928
cpu0_L2C LOAD      ACCESS:    1205200  HIT:     161711  MISS:    1043489
cpu0_L2C RFO       ACCESS:    1137096  HIT:        100  MISS:    1136996
cpu0_L2C PREFETCH  ACCESS:          0  HIT:          0  MISS:          0
cpu0_L2C WRITEBACK ACCESS:    2342347  HIT:    2341720  MISS:        627
LLC TOTAL     ACCESS:    4363876  HIT:    2312502  MISS:    2051374
LLC LOAD      ACCESS:    1043457  HIT:     361733  MISS:     681724
LLC RFO       ACCESS:    1136996  HIT:      18862  MISS:    1118134
LLC PREFETCH  ACCESS:          0  HIT:          0  MISS:          0
LLC WRITEBACK ACCESS:    2180607  HIT:    1929986  MISS:     250621
Heartbeat CPU 0 instructions: 78000000 cycles: 229500005 heartbeat IPC: 0.132455 cumulative IPC: 0.132071 (Simulation time: 2 hr 30 min 6 sec) 

Region of Interest Statistics
cpu0_DTLB TOTAL     ACCESS:   16502449  HIT:   15692193  MISS:     810256
cpu0_DTLB LOAD      ACCESS:    7936406  HIT:    7748476  MISS:     187930
cpu0_DTLB RFO       ACCESS:    8566043  HIT:    7943717  MISS:     622326
cpu0_DTLB PREFETCH  ACCESS:          0  HIT:          0  MISS:          0
cpu0_DTLB WRITEBACK ACCESS:          0  HIT:          0  MISS:          0
cpu0_ITLB TOTAL     ACCESS:    2796920  HIT:    2796920  MISS:          0
cpu0_ITLB LOAD      ACCESS:    2796920  HIT:    2796920  MISS:          0
cpu0_ITLB RFO       ACCESS:          0  HIT:          0  MISS:          0
cpu0_ITLB PREFETCH  ACCESS:          0  HIT:          0  MISS:          0
cpu0_ITLB WRITEBACK ACCESS:          0  HIT:          0  MISS:          0
cpu0_L1I TOTAL     ACCESS:     425276  HIT:     425276  MISS:          0
cpu0_L1I LOAD      ACCESS:     425276  HIT:     425276  MISS:          0
cpu0_L1I RFO       ACCESS:          0  HIT:          0  MISS:          0
cpu0_L1I PREFETCH  ACCESS:          0  HIT:          0  MISS:          0
cpu0_L1I WRITEBACK ACCESS:          0  HIT:          0  MISS:          0
cpu0_STLB TOTAL     ACCESS:     810256  HIT:     138768  MISS:     671488
cpu0_STLB LOAD      ACCESS:     187930  HIT:     136140  MISS:      51790
cpu0_STLB RFO       ACCESS:     622326  HIT:       2628  MISS:     619698
cpu0_STLB PREFETCH  ACCESS:          0  HIT:          0  MISS:          0
cpu0_STLB WRITEBACK ACCESS:          0  HIT:          0  MISS:          0
cpu0_L1D TOTAL     ACCESS:   14757093  HIT:   12190149  MISS:    2566944
cpu0_L1D LOAD      ACCESS:    8555414  HIT:    7257354  MISS:    1298060
cpu0_L1D RFO       ACCESS:    5530606  HIT:    4306074  MISS:    1224532
cpu0_L1D PREFETCH  ACCESS:          0  HIT:          0  MISS:          0
cpu0_L1D WRITEBACK ACCESS:          0  HIT:          0  MISS:          0
cpu0_L2C TOTAL     ACCESS:    5089539  HIT:    2737233  MISS:    2352306
cpu0_L2C LOAD      ACCESS:    1298039  HIT:     173866  MISS:    1124173
cpu0_L2C RFO       ACCESS:    1224532  HIT:        100  MISS:    1224432
cpu0_L2C PREFETCH  ACCESS:          0  HIT:          0  MISS:          0
cpu0_L2C WRITEBACK ACCESS:    2522616  HIT:    2521945  MISS:        671
LLC TOTAL     ACCESS:    4700337  HIT:    2491475  MISS:    2208862
LLC LOAD      ACCESS:    1124140  HIT:     390031  MISS:     734109
LLC RFO       ACCESS:    1224432  HIT:      20485  MISS:    1203947
LLC PREFETCH  ACCESS:          0  HIT:          0  MISS:          0
LLC WRITEBACK ACCESS:    2348735  HIT:    2078900  MISS:     269835
Heartbeat CPU 0 instructions: 80000000 cycles: 244873038 heartbeat IPC: 0.130098 cumulative IPC: 0.131938 (Simulation time: 2 hr 36 min 56 sec) 

Region of Interest Statistics
cpu0_DTLB TOTAL     ACCESS:   17682489  HIT:   16814550  MISS:     867939
cpu0_DTLB LOAD      ACCESS:    8504100  HIT:    8302975  MISS:     201125
cpu0_DTLB RFO       ACCESS:    9178389  HIT:    8511575  MISS:     666814
cpu0_DTLB PREFETCH  ACCESS:          0  HIT:          0  MISS:          0
cpu0_DTLB WRITEBACK ACCESS:          0  HIT:          0  MISS:          0
cpu0_ITLB TOTAL     ACCESS:    3001315  HIT:    3001315  MISS:          0
cpu0_ITLB LOAD      ACCESS:    3001315  HIT:    3001315  MISS:          0
cpu0_ITLB RFO       ACCESS:          0  HIT:          0  MISS:          0
cpu0_ITLB PREFETCH  ACCESS:          0  HIT:          0  MISS:          0
cpu0_ITLB WRITEBACK ACCESS:          0  HIT:          0  MISS:          0
cpu0_L1I TOTAL     ACCESS:     448317  HIT:     448317  MISS:          0
cpu0_L1I LOAD      ACCESS:     448317  HIT:     448317  MISS:          0
cpu0_L1I RFO       ACCESS:          0  HIT:          0  MISS:          0
cpu0_L1I PREFETCH  ACCESS:          0  HIT:          0  MISS:          0
cpu0_L1I WRITEBACK ACCESS:          0  HIT:          0  MISS:          0
cpu0_STLB TOTAL     ACCESS:     867939  HIT:     147891  MISS:     720048
cpu0_STLB LOAD      ACCESS:     201125  HIT:     145040  MISS:      56085
cpu0_STLB RFO       ACCESS:     666814  HIT:       2851  MISS:     663963
cpu0_STLB PREFETCH  ACCESS:          0  HIT:          0  MISS:          0
cpu0_STLB WRITEBACK ACCESS:          0  HIT:          0  MISS:          0
cpu0_L1D TOTAL     ACCESS:   15815091  HIT:   13064751  MISS:    2750340
cpu0_L1D LOAD      ACCESS:    9170511  HIT:    7779751  MISS:    1390760
cpu0_L1D RFO       ACCESS:    5924972  HIT:    4612904  MISS:    1312068
cpu0_L1D PREFETCH  ACCESS:          0  HIT:          0  MISS:          0
cpu0_L1D WRITEBACK ACCESS:          0  HIT:          0  MISS:          0
cpu0_L2C TOTAL     ACCESS:    5453166  HIT:    2931524  MISS:    2521642
cpu0_L2C LOAD      ACCESS:    1390738  HIT:     185017  MISS:    1205721
cpu0_L2C RFO       ACCESS:    1312068  HIT:        101  MISS:    1311967
cpu0_L2C PREFETCH  ACCESS:          0  HIT:          0  MISS:          0
cpu0_L2C WRITEBACK ACCESS:    2702848  HIT:    2702124  MISS:        724
LLC TOTAL     ACCESS:    5038711  HIT:    2670376  MISS:    2368335
LLC LOAD      ACCESS:    1205685  HIT:     418620  MISS:     787065
LLC RFO       ACCESS:    1311967  HIT:      20943  MISS:    1291024
LLC PREFETCH  ACCESS:          0  HIT:          0  MISS:          0
LLC WRITEBACK ACCESS:    2517829  HIT:    2228622  MISS:     289207
Heartbeat CPU 0 instructions: 82000001 cycles: 259891963 heartbeat IPC: 0.133165 cumulative IPC: 0.132014 (Simulation time: 2 hr 44 min 2 sec) 

Region of Interest Statistics
cpu0_DTLB TOTAL     ACCESS:   18856735  HIT:   17930504  MISS:     926231
cpu0_DTLB LOAD      ACCESS:    9068330  HIT:    8853187  MISS:     215143
cpu0_DTLB RFO       ACCESS:    9788405  HIT:    9077317  MISS:     711088
cpu0_DTLB PREFETCH  ACCESS:          0  HIT:          0  MISS:          0
cpu0_DTLB WRITEBACK ACCESS:          0  HIT:          0  MISS:          0
cpu0_ITLB TOTAL     ACCESS:    3198717  HIT:    3198717  MISS:          0
cpu0_ITLB LOAD      ACCESS:    3198717  HIT:    3198717  MISS:          0
cpu0_ITLB RFO       ACCESS:          0  HIT:          0  MISS:          0
cpu0_ITLB PREFETCH  ACCESS:          0  HIT:          0  MISS:          0
cpu0_ITLB WRITEBACK ACCESS:          0  HIT:          0  MISS:          0
cpu0_L1I TOTAL     ACCESS:     481454  HIT:     481454  MISS:          0
cpu0_L1I LOAD      ACCESS:     481454  HIT:     481454  MISS:          0
cpu0_L1I RFO       ACCESS:          0  HIT:          0  MISS:          0
cpu0_L1I PREFETCH  ACCESS:          0  HIT:          0  MISS:          0
cpu0_L1I WRITEBACK ACCESS:          0  HIT:          0  MISS:          0
cpu0_STLB TOTAL     ACCESS:     926231  HIT:     158124  MISS:     768107
cpu0_STLB LOAD      ACCESS:     215143  HIT:     155089  MISS:      60054
cpu0_STLB RFO       ACCESS:     711088  HIT:       3035  MISS:     708053
cpu0_STLB PREFETCH  ACCESS:          0  HIT:          0  MISS:          0
cpu0_STLB WRITEBACK ACCESS:          0  HIT:          0  MISS:          0
cpu0_L1D TOTAL     ACCESS:   16863284  HIT:   13930075  MISS:    2933209
cpu0_L1D LOAD      ACCESS:    9777147  HIT:    8293865  MISS:    1483282
cpu0_L1D RFO       ACCESS:    6318499  HIT:    4919234  MISS:    1399265
cpu0_L1D PREFETCH  ACCESS:          0  HIT:          0  MISS:          0
cpu0_L1D WRITEBACK ACCESS:          0  HIT:          0  MISS:          0
cpu0_L2C TOTAL     ACCESS:    5815754  HIT:    3126529  MISS:    2689225
cpu0_L2C LOAD      ACCESS:    1483260  HIT:     197397  MISS:    1285863
cpu0_L2C RFO       ACCESS:    1399265  HIT:        118  MISS:    1399147
cpu0_L2C PREFETCH  ACCESS:          0  HIT:          0  MISS:          0
cpu0_L2C WRITEBACK ACCESS:    2882567  HIT:    2881802  MISS:        765
LLC TOTAL     ACCESS:    5373588  HIT:    2847509  MISS:    2526079
LLC LOAD      ACCESS:    1285827  HIT:     446477  MISS:     839350
LLC RFO       ACCESS:    1399147  HIT:      22005  MISS:    1377142
LLC PREFETCH  ACCESS:          0  HIT:          0  MISS:          0
LLC WRITEBACK ACCESS:    2685164  HIT:    2376689  MISS:     308475
Heartbeat CPU 0 instructions: 84000001 cycles: 275095364 heartbeat IPC: 0.13155 cumulative IPC: 0.131987 (Simulation time: 2 hr 50 min 57 sec) 

Region of Interest Statistics
cpu0_DTLB TOTAL     ACCESS:   20036173  HIT:   19050704  MISS:     985469
cpu0_DTLB LOAD      ACCESS:    9635498  HIT:    9405640  MISS:     229858
cpu0_DTLB RFO       ACCESS:   10400675  HIT:    9645064  MISS:     755611
cpu0_DTLB PREFETCH  ACCESS:          0  HIT:          0  MISS:          0
cpu0_DTLB WRITEBACK ACCESS:          0  HIT:          0  MISS:          0
cpu0_ITLB TOTAL     ACCESS:    3399113  HIT:    3399113  MISS:          0
cpu0_ITLB LOAD      ACCESS:    3399113  HIT:    3399113  MISS:          0
cpu0_ITLB RFO       ACCESS:          0  HIT:          0  MISS:          0
cpu0_ITLB PREFETCH  ACCESS:          0  HIT:          0  MISS:          0
cpu0_ITLB WRITEBACK ACCESS:          0  HIT:          0  MISS:          0
cpu0_L1I TOTAL     ACCESS:     511028  HIT:     511028  MISS:          0
cpu0_L1I LOAD      ACCESS:     511028  HIT:     511028  MISS:          0
cpu0_L1I RFO       ACCESS:          0  HIT:          0  MISS:          0
cpu0_L1I PREFETCH  ACCESS:          0  HIT:          0  MISS:          0
cpu0_L1I WRITEBACK ACCESS:          0  HIT:          0  MISS:          0
cpu0_STLB TOTAL     ACCESS:     985469  HIT:     169054  MISS:     816415
cpu0_STLB LOAD      ACCESS:     229858  HIT:     165712  MISS:      64146
cpu0_STLB RFO       ACCESS:     755611  HIT:       3342  MISS:     752269
cpu0_STLB PREFETCH  ACCESS:          0  HIT:          0  MISS:          0
cpu0_STLB WRITEBACK ACCESS:          0  HIT:          0  MISS:          0
cpu0_L1D TOTAL     ACCESS:   17918206  HIT:   14801514  MISS:    3116692
cpu0_L1D LOAD      ACCESS:   10388744  HIT:    8812769  MISS:    1575975
cpu0_L1D RFO       ACCESS:    6713548  HIT:    5226764  MISS:    1486784
cpu0_L1D PREFETCH  ACCESS:          0  HIT:          0  MISS:          0
cpu0_L1D WRITEBACK ACCESS:          0  HIT:          0  MISS:          0
cpu0_L2C TOTAL     ACCESS:    6179459  HIT:    3321699  MISS:    2857760
cpu0_L2C LOAD      ACCESS:    1575953  HIT:     209339  MISS:    1366614
cpu0_L2C RFO       ACCESS:    1486784  HIT:        118  MISS:    1486666
cpu0_L2C PREFETCH  ACCESS:          0  HIT:          0  MISS:          0
cpu0_L2C WRITEBACK ACCESS:    3062789  HIT:    3061971  MISS:        818
LLC TOTAL     ACCESS:    5710349  HIT:    3025951  MISS:    2684398
LLC LOAD      ACCESS:    1366575  HIT:     474425  MISS:     892150
LLC RFO       ACCESS:    1486666  HIT:      23504  MISS:    1463162
LLC PREFETCH  ACCESS:          0  HIT:          0  MISS:          0
LLC WRITEBACK ACCESS:    2853446  HIT:    2525528  MISS:     327918
Heartbeat CPU 0 instructions: 86000004 cycles: 290297500 heartbeat IPC: 0.131561 cumulative IPC: 0.131963 (Simulation time: 2 hr 57 min 58 sec) 

Region of Interest Statistics
cpu0_DTLB TOTAL     ACCESS:   21214379  HIT:   20169784  MISS:    1044595
cpu0_DTLB LOAD      ACCESS:   10202481  HIT:    9958001  MISS:     244480
cpu0_DTLB RFO       ACCESS:   11011898  HIT:   10211783  MISS:     800115
cpu0_DTLB PREFETCH  ACCESS:          0  HIT:          0  MISS:          0
cpu0_DTLB WRITEBACK ACCESS:          0  HIT:          0  MISS:          0
cpu0_ITLB TOTAL     ACCESS:    3596383  HIT:    3596383  MISS:          0
cpu0_ITLB LOAD      ACCESS:    3596383  HIT:    3596383  MISS:          0
cpu0_ITLB RFO       ACCESS:          0  HIT:          0  MISS:          0
cpu0_ITLB PREFETCH  ACCESS:          0  HIT:          0  MISS:          0
cpu0_ITLB WRITEBACK ACCESS:          0  HIT:          0  MISS:          0
cpu0_L1I TOTAL     ACCESS:     545216  HIT:     545216  MISS:          0
cpu0_L1I LOAD      ACCESS:     545216  HIT:     545216  MISS:          0
cpu0_L1I RFO       ACCESS:          0  HIT:          0  MISS:          0
cpu0_L1I PREFETCH  ACCESS:          0  HIT:          0  MISS:          0
cpu0_L1I WRITEBACK ACCESS:          0  HIT:          0  MISS:          0
cpu0_STLB TOTAL     ACCESS:    1044595  HIT:     179932  MISS:     864663
cpu0_STLB LOAD      ACCESS:     244480  HIT:     176102  MISS:      68378
cpu0_STLB RFO       ACCESS:     800115  HIT:       3830  MISS:     796285
cpu0_STLB PREFETCH  ACCESS:          0  HIT:          0  MISS:          0
cpu0_STLB WRITEBACK ACCESS:          0  HIT:          0  MISS:          0
cpu0_L1D TOTAL     ACCESS:   18971011  HIT:   15671513  MISS:    3299498
cpu0_L1D LOAD      ACCESS:   10998764  HIT:    9330514  MISS:    1668250
cpu0_L1D RFO       ACCESS:    7108114  HIT:    5533953  MISS:    1574161
cpu0_L1D PREFETCH  ACCESS:          0  HIT:          0  MISS:          0
cpu0_L1D WRITEBACK ACCESS:          0  HIT:          0  MISS:          0
cpu0_L2C TOTAL     ACCESS:    6541915  HIT:    3514416  MISS:    3027499
cpu0_L2C LOAD      ACCESS:    1668228  HIT:     219538  MISS:    1448690
cpu0_L2C RFO       ACCESS:    1574161  HIT:        121  MISS:    1574040
cpu0_L2C PREFETCH  ACCESS:          0  HIT:          0  MISS:          0
cpu0_L2C WRITEBACK ACCESS:    3242439  HIT:    3241566  MISS:        873
LLC TOTAL     ACCESS:    6049495  HIT:    3207034  MISS:    2842461
LLC LOAD      ACCESS:    1448650  HIT:     503521  MISS:     945129
LLC RFO       ACCESS:    1574040  HIT:      25297  MISS:    1548743
LLC PREFETCH  ACCESS:          0  HIT:          0  MISS:          0
LLC WRITEBACK ACCESS:    3022909  HIT:    2675578  MISS:     347331
Heartbeat CPU 0 instructions: 88000004 cycles: 305394928 heartbeat IPC: 0.132473 cumulative IPC: 0.13199 (Simulation time: 3 hr 5 min 1 sec) 

Region of Interest Statistics
cpu0_DTLB TOTAL     ACCESS:   22393707  HIT:   21290848  MISS:    1102859
cpu0_DTLB LOAD      ACCESS:   10768774  HIT:   10510654  MISS:     258120
cpu0_DTLB RFO       ACCESS:   11624933  HIT:   10780194  MISS:     844739
cpu0_DTLB PREFETCH  ACCESS:          0  HIT:          0  MISS:          0
cpu0_DTLB WRITEBACK ACCESS:          0  HIT:          0  MISS:          0
cpu0_ITLB TOTAL     ACCESS:    3793595  HIT:    3793595  MISS:          0
cpu0_ITLB LOAD      ACCESS:    3793595  HIT:    3793595  MISS:          0
cpu0_ITLB RFO       ACCESS:          0  HIT:          0  MISS:          0
cpu0_ITLB PREFETCH  ACCESS:          0  HIT:          0  MISS:          0
cpu0_ITLB WRITEBACK ACCESS:          0  HIT:          0  MISS:          0
cpu0_L1I TOTAL     ACCESS:     580485  HIT:     580485  MISS:          0
cpu0_L1I LOAD      ACCESS:     580485  HIT:     580485  MISS:          0
cpu0_L1I RFO       ACCESS:          0  HIT:          0  MISS:          0
cpu0_L1I PREFETCH  ACCESS:          0  HIT:          0  MISS:          0
cpu0_L1I WRITEBACK ACCESS:          0  HIT:          0  MISS:          0
cpu0_STLB TOTAL     ACCESS:    1102859  HIT:     189602  MISS:     913257
cpu0_STLB LOAD      ACCESS:     258120  HIT:     185592  MISS:      72528
cpu0_STLB RFO       ACCESS:     844739  HIT:       4010  MISS:     840729
cpu0_STLB PREFETCH  ACCESS:          0  HIT:          0  MISS:          0
cpu0_STLB WRITEBACK ACCESS:          0  HIT:          0  MISS:          0
cpu0_L1D TOTAL     ACCESS:   20026174  HIT:   16543024  MISS:    3483150
cpu0_L1D LOAD      ACCESS:   11607610  HIT:    9846445  MISS:    1761165
cpu0_L1D RFO       ACCESS:    7505864  HIT:    5844077  MISS:    1661787
cpu0_L1D PREFETCH  ACCESS:          0  HIT:          0  MISS:          0
cpu0_L1D WRITEBACK ACCESS:          0  HIT:          0  MISS:          0
cpu0_L2C TOTAL     ACCESS:    6906099  HIT:    3709867  MISS:    3196232
cpu0_L2C LOAD      ACCESS:    1761142  HIT:     231441  MISS:    1529701
cpu0_L2C RFO       ACCESS:    1661787  HIT:        291  MISS:    1661496
cpu0_L2C PREFETCH  ACCESS:          0  HIT:          0  MISS:          0
cpu0_L2C WRITEBACK ACCESS:    3422972  HIT:    3422052  MISS:        920
LLC TOTAL     ACCESS:    6386654  HIT:    3387588  MISS:    2999066
LLC LOAD      ACCESS:    1529660  HIT:     531555  MISS:     998105
LLC RFO       ACCESS:    1661496  HIT:      28265  MISS:    1633231
LLC PREFETCH  ACCESS:          0  HIT:          0  MISS:          0
LLC WRITEBACK ACCESS:    3191383  HIT:    2824984  MISS:     366399
Heartbeat CPU 0 instructions: 90000000 cycles: 320498420 heartbeat IPC: 0.132419 cumulative IPC: 0.132011 (Simulation time: 3 hr 12 min 11 sec) 

Region of Interest Statistics
cpu0_DTLB TOTAL     ACCESS:   23573288  HIT:   22412096  MISS:    1161192
cpu0_DTLB LOAD      ACCESS:   11335124  HIT:   11063196  MISS:     271928
cpu0_DTLB RFO       ACCESS:   12238164  HIT:   11348900  MISS:     889264
cpu0_DTLB PREFETCH  ACCESS:          0  HIT:          0  MISS:          0
cpu0_DTLB WRITEBACK ACCESS:          0  HIT:          0  MISS:          0
cpu0_ITLB TOTAL     ACCESS:    3989078  HIT:    3989078  MISS:          0
cpu0_ITLB LOAD      ACCESS:    3989078  HIT:    3989078  MISS:          0
cpu0_ITLB RFO       ACCESS:          0  HIT:          0  MISS:          0
cpu0_ITLB PREFETCH  ACCESS:          0  HIT:          0  MISS:          0
cpu0_ITLB WRITEBACK ACCESS:          0  HIT:          0  MISS:          0
cpu0_L1I TOTAL     ACCESS:     618596  HIT:     618596  MISS:          0
cpu0_L1I LOAD      ACCESS:     618596  HIT:     618596  MISS:          0
cpu0_L1I RFO       ACCESS:          0  HIT:          0  MISS:          0
cpu0_L1I PREFETCH  ACCESS:          0  HIT:          0  MISS:          0
cpu0_L1I WRITEBACK ACCESS:          0  HIT:          0  MISS:          0
cpu0_STLB TOTAL     ACCESS:    1161192  HIT:     199484  MISS:     961708
cpu0_STLB LOAD      ACCESS:     271928  HIT:     195363  MISS:      76565
cpu0_STLB RFO       ACCESS:     889264  HIT:       4121  MISS:     885143
cpu0_STLB PREFETCH  ACCESS:          0  HIT:          0  MISS:          0
cpu0_STLB WRITEBACK ACCESS:          0  HIT:          0  MISS:          0
cpu0_L1D TOTAL     ACCESS:   21080036  HIT:   17412939  MISS:    3667097
cpu0_L1D LOAD      ACCESS:   12216009  HIT:   10361792  MISS:    1854217
cpu0_L1D RFO       ACCESS:    7902919  HIT:    6153468  MISS:    1749451
cpu0_L1D PREFETCH  ACCESS:          0  HIT:          0  MISS:          0
cpu0_L1D WRITEBACK ACCESS:          0  HIT:          0  MISS:          0
cpu0_L2C TOTAL     ACCESS:    7270757  HIT:    3907144  MISS:    3363613
cpu0_L2C LOAD      ACCESS:    1854193  HIT:     244994  MISS:    1609199
cpu0_L2C RFO       ACCESS:    1749451  HIT:        316  MISS:    1749135
cpu0_L2C PREFETCH  ACCESS:          0  HIT:          0  MISS:          0
cpu0_L2C WRITEBACK ACCESS:    3603684  HIT:    3602716  MISS:        968
LLC TOTAL     ACCESS:    6721135  HIT:    3564859  MISS:    3156276
LLC LOAD      ACCESS:    1609154  HIT:     557946  MISS:    1051208
LLC RFO       ACCESS:    1749135  HIT:      31284  MISS:    1717851
LLC PREFETCH  ACCESS:          0  HIT:          0  MISS:          0
LLC WRITEBACK ACCESS:    3358535  HIT:    2972723  MISS:     385812
Heartbeat CPU 0 instructions: 92000003 cycles: 335823352 heartbeat IPC: 0.130506 cumulative IPC: 0.131939 (Simulation time: 3 hr 19 min 9 sec) 

Region of Interest Statistics
cpu0_DTLB TOTAL     ACCESS:   24752295  HIT:   23533245  MISS:    1219050
cpu0_DTLB LOAD      ACCESS:   11902193  HIT:   11616809  MISS:     285384
cpu0_DTLB RFO       ACCESS:   12850102  HIT:   11916436  MISS:     933666
cpu0_DTLB PREFETCH  ACCESS:          0  HIT:          0  MISS:          0
cpu0_DTLB WRITEBACK ACCESS:          0  HIT:          0  MISS:          0
cpu0_ITLB TOTAL     ACCESS:    4190820  HIT:    4190820  MISS:          0
cpu0_ITLB LOAD      ACCESS:    4190820  HIT:    4190820  MISS:          0
cpu0_ITLB RFO       ACCESS:          0  HIT:          0  MISS:          0
cpu0_ITLB PREFETCH  ACCESS:          0  HIT:          0  MISS:          0
cpu0_ITLB WRITEBACK ACCESS:          0  HIT:          0  MISS:          0
cpu0_L1I TOTAL     ACCESS:     645789  HIT:     645789  MISS:          0
cpu0_L1I LOAD      ACCESS:     645789  HIT:     645789  MISS:          0
cpu0_L1I RFO       ACCESS:          0  HIT:          0  MISS:          0
cpu0_L1I PREFETCH  ACCESS:          0  HIT:          0  MISS:          0
cpu0_L1I WRITEBACK ACCESS:          0  HIT:          0  MISS:          0
cpu0_STLB TOTAL     ACCESS:    1219050  HIT:     208807  MISS:    1010243
cpu0_STLB LOAD      ACCESS:     285384  HIT:     204546  MISS:      80838
cpu0_STLB RFO       ACCESS:     933666  HIT:       4261  MISS:     929405
cpu0_STLB PREFETCH  ACCESS:          0  HIT:          0  MISS:          0
cpu0_STLB WRITEBACK ACCESS:          0  HIT:          0  MISS:          0
cpu0_L1D TOTAL     ACCESS:   22135520  HIT:   18285416  MISS:    3850104
cpu0_L1D LOAD      ACCESS:   12828365  HIT:   10881844  MISS:    1946521
cpu0_L1D RFO       ACCESS:    8297531  HIT:    6460608  MISS:    1836923
cpu0_L1D PREFETCH  ACCESS:          0  HIT:          0  MISS:          0
cpu0_L1D WRITEBACK ACCESS:          0  HIT:          0  MISS:          0
cpu0_L2C TOTAL     ACCESS:    7633547  HIT:    4099579  MISS:    3533968
cpu0_L2C LOAD      ACCESS:    1946497  HIT:     254669  MISS:    1691828
cpu0_L2C RFO       ACCESS:    1836923  HIT:        316  MISS:    1836607
cpu0_L2C PREFETCH  ACCESS:          0  HIT:          0  MISS:          0
cpu0_L2C WRITEBACK ACCESS:    3783467  HIT:    3782447  MISS:       1020
LLC TOTAL     ACCESS:    7061548  HIT:    3746120  MISS:    3315428
LLC LOAD      ACCESS:    1691782  HIT:     587448  MISS:    1104334
LLC RFO       ACCESS:    1836607  HIT:      32345  MISS:    1804262
LLC PREFETCH  ACCESS:          0  HIT:          0  MISS:          0
LLC WRITEBACK ACCESS:    3528646  HIT:    3123306  MISS:     405340
Heartbeat CPU 0 instructions: 94000003 cycles: 351094934 heartbeat IPC: 0.130962 cumulative IPC: 0.131894 (Simulation time: 3 hr 26 min 9 sec) 

Region of Interest Statistics
cpu0_DTLB TOTAL     ACCESS:   25931787  HIT:   24654771  MISS:    1277016
cpu0_DTLB LOAD      ACCESS:   12469261  HIT:   12170433  MISS:     298828
cpu0_DTLB RFO       ACCESS:   13462526  HIT:   12484338  MISS:     978188
cpu0_DTLB PREFETCH  ACCESS:          0  HIT:          0  MISS:          0
cpu0_DTLB WRITEBACK ACCESS:          0  HIT:          0  MISS:          0
cpu0_ITLB TOTAL     ACCESS:    4392304  HIT:    4392304  MISS:          0
cpu0_ITLB LOAD      ACCESS:    4392304  HIT:    4392304  MISS:          0
cpu0_ITLB RFO       ACCESS:          0  HIT:          0  MISS:          0
cpu0_ITLB PREFETCH  ACCESS:          0  HIT:          0  MISS:          0
cpu0_ITLB WRITEBACK ACCESS:          0  HIT:          0  MISS:          0
cpu0_L1I TOTAL     ACCESS:     673564  HIT:     673564  MISS:          0
cpu0_L1I LOAD      ACCESS:     673564  HIT:     673564  MISS:          0
cpu0_L1I RFO       ACCESS:          0  HIT:          0  MISS:          0
cpu0_L1I PREFETCH  ACCESS:          0  HIT:          0  MISS:          0
cpu0_L1I WRITEBACK ACCESS:          0  HIT:          0  MISS:          0
cpu0_STLB TOTAL     ACCESS:    1277016  HIT:     218045  MISS:    1058971
cpu0_STLB LOAD      ACCESS:     298828  HIT:     213585  MISS:      85243
cpu0_STLB RFO       ACCESS:     978188  HIT:       4460  MISS:     973728
cpu0_STLB PREFETCH  ACCESS:          0  HIT:          0  MISS:          0
cpu0_STLB WRITEBACK ACCESS:          0  HIT:          0  MISS:          0
cpu0_L1D TOTAL     ACCESS:   23190873  HIT:   19157689  MISS:    4033184
cpu0_L1D LOAD      ACCESS:   13440670  HIT:   11401765  MISS:    2038905
cpu0_L1D RFO       ACCESS:    8691888  HIT:    6767421  MISS:    1924467
cpu0_L1D PREFETCH  ACCESS:          0  HIT:          0  MISS:          0
cpu0_L1D WRITEBACK ACCESS:          0  HIT:          0  MISS:          0
cpu0_L2C TOTAL     ACCESS:    7996555  HIT:    4292557  MISS:    3703998
cpu0_L2C LOAD      ACCESS:    2038880  HIT:     264841  MISS:    1774039
cpu0_L2C RFO       ACCESS:    1924468  HIT:        316  MISS:    1924152
cpu0_L2C PREFETCH  ACCESS:          0  HIT:          0  MISS:          0
cpu0_L2C WRITEBACK ACCESS:    3963395  HIT:    3962328  MISS:       1067
LLC TOTAL     ACCESS:    7401289  HIT:    3926185  MISS:    3475104
LLC LOAD      ACCESS:    1773988  HIT:     616705  MISS:    1157283
LLC RFO       ACCESS:    1924152  HIT:      32882  MISS:    1891270
LLC PREFETCH  ACCESS:          0  HIT:          0  MISS:          0
LLC WRITEBACK ACCESS:    3698409  HIT:    3273424  MISS:     424985
Heartbeat CPU 0 instructions: 96000003 cycles: 366298821 heartbeat IPC: 0.131545 cumulative IPC: 0.131879 (Simulation time: 3 hr 33 min 14 sec) 

Region of Interest Statistics
cpu0_DTLB TOTAL     ACCESS:   27105217  HIT:   25770445  MISS:    1334772
cpu0_DTLB LOAD      ACCESS:   13033940  HIT:   12721535  MISS:     312405
cpu0_DTLB RFO       ACCESS:   14071277  HIT:   13048910  MISS:    1022367
cpu0_DTLB PREFETCH  ACCESS:          0  HIT:          0  MISS:          0
cpu0_DTLB WRITEBACK ACCESS:          0  HIT:          0  MISS:          0
cpu0_ITLB TOTAL     ACCESS:    4589791  HIT:    4589791  MISS:          0
cpu0_ITLB LOAD      ACCESS:    4589791  HIT:    4589791  MISS:          0
cpu0_ITLB RFO       ACCESS:          0  HIT:          0  MISS:          0
cpu0_ITLB PREFETCH  ACCESS:          0  HIT:          0  MISS:          0
cpu0_ITLB WRITEBACK ACCESS:          0  HIT:          0  MISS:          0
cpu0_L1I TOTAL     ACCESS:     705755  HIT:     705755  MISS:          0
cpu0_L1I LOAD      ACCESS:     705755  HIT:     705755  MISS:          0
cpu0_L1I RFO       ACCESS:          0  HIT:          0  MISS:          0
cpu0_L1I PREFETCH  ACCESS:          0  HIT:          0  MISS:          0
cpu0_L1I WRITEBACK ACCESS:          0  HIT:          0  MISS:          0
cpu0_STLB TOTAL     ACCESS:    1334772  HIT:     227325  MISS:    1107447
cpu0_STLB LOAD      ACCESS:     312405  HIT:     222630  MISS:      89775
cpu0_STLB RFO       ACCESS:    1022367  HIT:       4695  MISS:    1017672
cpu0_STLB PREFETCH  ACCESS:          0  HIT:          0  MISS:          0
cpu0_STLB WRITEBACK ACCESS:          0  HIT:          0  MISS:          0
cpu0_L1D TOTAL     ACCESS:   24238126  HIT:   20022798  MISS:    4215328
cpu0_L1D LOAD      ACCESS:   14047568  HIT:   11916716  MISS:    2130852
cpu0_L1D RFO       ACCESS:    9083795  HIT:    7072312  MISS:    2011483
cpu0_L1D PREFETCH  ACCESS:          0  HIT:          0  MISS:          0
cpu0_L1D WRITEBACK ACCESS:          0  HIT:          0  MISS:          0
cpu0_L2C TOTAL     ACCESS:    8357668  HIT:    4483857  MISS:    3873811
cpu0_L2C LOAD      ACCESS:    2130827  HIT:     274245  MISS:    1856582
cpu0_L2C RFO       ACCESS:    2011484  HIT:        318  MISS:    2011166
cpu0_L2C PREFETCH  ACCESS:          0  HIT:          0  MISS:          0
cpu0_L2C WRITEBACK ACCESS:    4142364  HIT:    4141240  MISS:       1124
LLC TOTAL     ACCESS:    7740606  HIT:    4105953  MISS:    3634653
LLC LOAD      ACCESS:    1856525  HIT:     646300  MISS:    1210225
LLC RFO       ACCESS:    2011166  HIT:      33110  MISS:    1978056
LLC PREFETCH  ACCESS:          0  HIT:          0  MISS:          0
LLC WRITEBACK ACCESS:    3867976  HIT:    3423243  MISS:     444733
Heartbeat CPU 0 instructions: 98000001 cycles: 381666367 heartbeat IPC: 0.130144 cumulative IPC: 0.131806 (Simulation time: 3 hr 40 min 21 sec) 

Region of Interest Statistics
cpu0_DTLB TOTAL     ACCESS:   28285000  HIT:   26892120  MISS:    1392880
cpu0_DTLB LOAD      ACCESS:   13600997  HIT:   13274956  MISS:     326041
cpu0_DTLB RFO       ACCESS:   14684003  HIT:   13617164  MISS:    1066839
cpu0_DTLB PREFETCH  ACCESS:          0  HIT:          0  MISS:          0
cpu0_DTLB WRITEBACK ACCESS:          0  HIT:          0  MISS:          0
cpu0_ITLB TOTAL     ACCESS:    4787554  HIT:    4787554  MISS:          0
cpu0_ITLB LOAD      ACCESS:    4787554  HIT:    4787554  MISS:          0
cpu0_ITLB RFO       ACCESS:          0  HIT:          0  MISS:          0
cpu0_ITLB PREFETCH  ACCESS:          0  HIT:          0  MISS:          0
cpu0_ITLB WRITEBACK ACCESS:          0  HIT:          0  MISS:          0
cpu0_L1I TOTAL     ACCESS:     739917  HIT:     739917  MISS:          0
cpu0_L1I LOAD      ACCESS:     739917  HIT:     739917  MISS:          0
cpu0_L1I RFO       ACCESS:          0  HIT:          0  MISS:          0
cpu0_L1I PREFETCH  ACCESS:          0  HIT:          0  MISS:          0
cpu0_L1I WRITEBACK ACCESS:          0  HIT:          0  MISS:          0
cpu0_STLB TOTAL     ACCESS:    1392880  HIT:     236617  MISS:    1156263
cpu0_STLB LOAD      ACCESS:     326041  HIT:     231726  MISS:      94315
cpu0_STLB RFO       ACCESS:    1066839  HIT:       4891  MISS:    1061948
cpu0_STLB PREFETCH  ACCESS:          0  HIT:          0  MISS:          0
cpu0_STLB WRITEBACK ACCESS:          0  HIT:          0  MISS:          0
cpu0_L1D TOTAL     ACCESS:   25292074  HIT:   20893754  MISS:    4398320
cpu0_L1D LOAD      ACCESS:   14658025  HIT:   12434926  MISS:    2223099
cpu0_L1D RFO       ACCESS:    9478498  HIT:    7379436  MISS:    2099062
cpu0_L1D PREFETCH  ACCESS:          0  HIT:          0  MISS:          0
cpu0_L1D WRITEBACK ACCESS:          0  HIT:          0  MISS:          0
cpu0_L2C TOTAL     ACCESS:    8720473  HIT:    4676450  MISS:    4044023
cpu0_L2C LOAD      ACCESS:    2223068  HIT:     284139  MISS:    1938929
cpu0_L2C RFO       ACCESS:    2099062  HIT:        320  MISS:    2098742
cpu0_L2C PREFETCH  ACCESS:          0  HIT:          0  MISS:          0
cpu0_L2C WRITEBACK ACCESS:    4322184  HIT:    4321010  MISS:       1174
LLC TOTAL     ACCESS:    8080707  HIT:    4286344  MISS:    3794363
LLC LOAD      ACCESS:    1938871  HIT:     675247  MISS:    1263624
LLC RFO       ACCESS:    2098742  HIT:      33860  MISS:    2064882
LLC PREFETCH  ACCESS:          0  HIT:          0  MISS:          0
LLC WRITEBACK ACCESS:    4037916  HIT:    3573777  MISS:     464139
Heartbeat CPU 0 instructions: 100000001 cycles: 397099772 heartbeat IPC: 0.129589 cumulative IPC: 0.131715 (Simulation time: 3 hr 47 min 20 sec) 

Region of Interest Statistics
cpu0_DTLB TOTAL     ACCESS:   29464601  HIT:   28013163  MISS:    1451438
cpu0_DTLB LOAD      ACCESS:   14167960  HIT:   13827856  MISS:     340104
cpu0_DTLB RFO       ACCESS:   15296641  HIT:   14185307  MISS:    1111334
cpu0_DTLB PREFETCH  ACCESS:          0  HIT:          0  MISS:          0
cpu0_DTLB WRITEBACK ACCESS:          0  HIT:          0  MISS:          0
cpu0_ITLB TOTAL     ACCESS:    4989678  HIT:    4989678  MISS:          0
cpu0_ITLB LOAD      ACCESS:    4989678  HIT:    4989678  MISS:          0
cpu0_ITLB RFO       ACCESS:          0  HIT:          0  MISS:          0
cpu0_ITLB PREFETCH  ACCESS:          0  HIT:          0  MISS:          0
cpu0_ITLB WRITEBACK ACCESS:          0  HIT:          0  MISS:          0
cpu0_L1I TOTAL     ACCESS:     766834  HIT:     766834  MISS:          0
cpu0_L1I LOAD      ACCESS:     766834  HIT:     766834  MISS:          0
cpu0_L1I RFO       ACCESS:          0  HIT:          0  MISS:          0
cpu0_L1I PREFETCH  ACCESS:          0  HIT:          0  MISS:          0
cpu0_L1I WRITEBACK ACCESS:          0  HIT:          0  MISS:          0
cpu0_STLB TOTAL     ACCESS:    1451438  HIT:     246156  MISS:    1205282
cpu0_STLB LOAD      ACCESS:     340104  HIT:     241109  MISS:      98995
cpu0_STLB RFO       ACCESS:    1111334  HIT:       5047  MISS:    1106287
cpu0_STLB PREFETCH  ACCESS:          0  HIT:          0  MISS:          0
cpu0_STLB WRITEBACK ACCESS:          0  HIT:          0  MISS:          0
cpu0_L1D TOTAL     ACCESS:   26348926  HIT:   21767598  MISS:    4581328
cpu0_L1D LOAD      ACCESS:   15270574  HIT:   12955262  MISS:    2315312
cpu0_L1D RFO       ACCESS:    9873813  HIT:    7687172  MISS:    2186641
cpu0_L1D PREFETCH  ACCESS:          0  HIT:          0  MISS:          0
cpu0_L1D WRITEBACK ACCESS:          0  HIT:          0  MISS:          0
cpu0_L2C TOTAL     ACCESS:    9083275  HIT:    4868698  MISS:    4214577
cpu0_L2C LOAD      ACCESS:    2315278  HIT:     293664  MISS:    2021614
cpu0_L2C RFO       ACCESS:    2186641  HIT:        320  MISS:    2186321
cpu0_L2C PREFETCH  ACCESS:          0  HIT:          0  MISS:          0
cpu0_L2C WRITEBACK ACCESS:    4501981  HIT:    4500756  MISS:       1225
LLC TOTAL     ACCESS:    8421478  HIT:    4466806  MISS:    3954672
LLC LOAD      ACCESS:    2021555  HIT:     704299  MISS:    1317256
LLC RFO       ACCESS:    2186321  HIT:      34712  MISS:    2151609
LLC PREFETCH  ACCESS:          0  HIT:          0  MISS:          0
LLC WRITEBACK ACCESS:    4208185  HIT:    3724173  MISS:     484012
Heartbeat CPU 0 instructions: 102000000 cycles: 412491508 heartbeat IPC: 0.12994 cumulative IPC: 0.131646 (Simulation time: 3 hr 54 min 9 sec) 

Region of Interest Statistics
cpu0_DTLB TOTAL     ACCESS:   30642307  HIT:   29133963  MISS:    1508344
cpu0_DTLB LOAD      ACCESS:   14734671  HIT:   14381948  MISS:     352723
cpu0_DTLB RFO       ACCESS:   15907636  HIT:   14752015  MISS:    1155621
cpu0_DTLB PREFETCH  ACCESS:          0  HIT:          0  MISS:          0
cpu0_DTLB WRITEBACK ACCESS:          0  HIT:          0  MISS:          0
cpu0_ITLB TOTAL     ACCESS:    5192502  HIT:    5192502  MISS:          0
cpu0_ITLB LOAD      ACCESS:    5192502  HIT:    5192502  MISS:          0
cpu0_ITLB RFO       ACCESS:          0  HIT:          0  MISS:          0
cpu0_ITLB PREFETCH  ACCESS:          0  HIT:          0  MISS:          0
cpu0_ITLB WRITEBACK ACCESS:          0  HIT:          0  MISS:          0
cpu0_L1I TOTAL     ACCESS:     791663  HIT:     791663  MISS:          0
cpu0_L1I LOAD      ACCESS:     791663  HIT:     791663  MISS:          0
cpu0_L1I RFO       ACCESS:          0  HIT:          0  MISS:          0
cpu0_L1I PREFETCH  ACCESS:          0  HIT:          0  MISS:          0
cpu0_L1I WRITEBACK ACCESS:          0  HIT:          0  MISS:          0
cpu0_STLB TOTAL     ACCESS:    1508344  HIT:     254207  MISS:    1254137
cpu0_STLB LOAD      ACCESS:     352723  HIT:     248930  MISS:     103793
cpu0_STLB RFO       ACCESS:    1155621  HIT:       5277  MISS:    1150344
cpu0_STLB PREFETCH  ACCESS:          0  HIT:          0  MISS:          0
cpu0_STLB WRITEBACK ACCESS:          0  HIT:          0  MISS:          0
cpu0_L1D TOTAL     ACCESS:   27403576  HIT:   22639387  MISS:    4764189
cpu0_L1D LOAD      ACCESS:   15883113  HIT:   13475479  MISS:    2407634
cpu0_L1D RFO       ACCESS:   10267094  HIT:    7993117  MISS:    2273977
cpu0_L1D PREFETCH  ACCESS:          0  HIT:          0  MISS:          0
cpu0_L1D WRITEBACK ACCESS:          0  HIT:          0  MISS:          0
cpu0_L2C TOTAL     ACCESS:    9445780  HIT:    5060962  MISS:    4384818
cpu0_L2C LOAD      ACCESS:    2407598  HIT:     303379  MISS:    2104219
cpu0_L2C RFO       ACCESS:    2273977  HIT:        320  MISS:    2273657
cpu0_L2C PREFETCH  ACCESS:          0  HIT:          0  MISS:          0
cpu0_L2C WRITEBACK ACCESS:    4681627  HIT:    4680342  MISS:       1285
LLC TOTAL     ACCESS:    8761607  HIT:    4646439  MISS:    4115168
LLC LOAD      ACCESS:    2104160  HIT:     733491  MISS:    1370669
LLC RFO       ACCESS:    2273657  HIT:      34844  MISS:    2238813
LLC PREFETCH  ACCESS:          0  HIT:          0  MISS:          0
LLC WRITEBACK ACCESS:    4378133  HIT:    3874304  MISS:     503829
Heartbeat CPU 0 instructions: 104000000 cycles: 427705319 heartbeat IPC: 0.13146 cumulative IPC: 0.131639 (Simulation time: 4 hr 1 min 39 sec) 

Region of Interest Statistics
cpu0_DTLB TOTAL     ACCESS:   31818980  HIT:   30252236  MISS:    1566744
cpu0_DTLB LOAD      ACCESS:   15300432  HIT:   14933714  MISS:     366718
cpu0_DTLB RFO       ACCESS:   16518548  HIT:   15318522  MISS:    1200026
cpu0_DTLB PREFETCH  ACCESS:          0  HIT:          0  MISS:          0
cpu0_DTLB WRITEBACK ACCESS:          0  HIT:          0  MISS:          0
cpu0_ITLB TOTAL     ACCESS:    5382561  HIT:    5382561  MISS:          0
cpu0_ITLB LOAD      ACCESS:    5382561  HIT:    5382561  MISS:          0
cpu0_ITLB RFO       ACCESS:          0  HIT:          0  MISS:          0
cpu0_ITLB PREFETCH  ACCESS:          0  HIT:          0  MISS:          0
cpu0_ITLB WRITEBACK ACCESS:          0  HIT:          0  MISS:          0
cpu0_L1I TOTAL     ACCESS:     837518  HIT:     837518  MISS:          0
cpu0_L1I LOAD      ACCESS:     837518  HIT:     837518  MISS:          0
cpu0_L1I RFO       ACCESS:          0  HIT:          0  MISS:          0
cpu0_L1I PREFETCH  ACCESS:          0  HIT:          0  MISS:          0
cpu0_L1I WRITEBACK ACCESS:          0  HIT:          0  MISS:          0
cpu0_STLB TOTAL     ACCESS:    1566744  HIT:     263658  MISS:    1303086
cpu0_STLB LOAD      ACCESS:     366718  HIT:     258193  MISS:     108525
cpu0_STLB RFO       ACCESS:    1200026  HIT:       5465  MISS:    1194561
cpu0_STLB PREFETCH  ACCESS:          0  HIT:          0  MISS:          0
cpu0_STLB WRITEBACK ACCESS:          0  HIT:          0  MISS:          0
cpu0_L1D TOTAL     ACCESS:   28452545  HIT:   23505607  MISS:    4946938
cpu0_L1D LOAD      ACCESS:   16488318  HIT:   13988491  MISS:    2499827
cpu0_L1D RFO       ACCESS:   10661947  HIT:    8300645  MISS:    2361302
cpu0_L1D PREFETCH  ACCESS:          0  HIT:          0  MISS:          0
cpu0_L1D WRITEBACK ACCESS:          0  HIT:          0  MISS:          0
cpu0_L2C TOTAL     ACCESS:    9808048  HIT:    5254731  MISS:    4553317
cpu0_L2C LOAD      ACCESS:    2499789  HIT:     314669  MISS:    2185120
cpu0_L2C RFO       ACCESS:    2361302  HIT:        332  MISS:    2360970
cpu0_L2C PREFETCH  ACCESS:          0  HIT:          0  MISS:          0
cpu0_L2C WRITEBACK ACCESS:    4861148  HIT:    4859811  MISS:       1337
LLC TOTAL     ACCESS:    9098283  HIT:    4824931  MISS:    4273352
LLC LOAD      ACCESS:    2185059  HIT:     760813  MISS:    1424246
LLC RFO       ACCESS:    2360970  HIT:      37065  MISS:    2323905
LLC PREFETCH  ACCESS:          0  HIT:          0  MISS:          0
LLC WRITEBACK ACCESS:    4546364  HIT:    4023093  MISS:     523271
Heartbeat CPU 0 instructions: 106000003 cycles: 443145935 heartbeat IPC: 0.129529 cumulative IPC: 0.131563 (Simulation time: 4 hr 8 min 41 sec) 

Region of Interest Statistics
cpu0_DTLB TOTAL     ACCESS:   32998653  HIT:   31373813  MISS:    1624840
cpu0_DTLB LOAD      ACCESS:   15868008  HIT:   15487621  MISS:     380387
cpu0_DTLB RFO       ACCESS:   17130645  HIT:   15886192  MISS:    1244453
cpu0_DTLB PREFETCH  ACCESS:          0  HIT:          0  MISS:          0
cpu0_DTLB WRITEBACK ACCESS:          0  HIT:          0  MISS:          0
cpu0_ITLB TOTAL     ACCESS:    5580755  HIT:    5580755  MISS:          0
cpu0_ITLB LOAD      ACCESS:    5580755  HIT:    5580755  MISS:          0
cpu0_ITLB RFO       ACCESS:          0  HIT:          0  MISS:          0
cpu0_ITLB PREFETCH  ACCESS:          0  HIT:          0  MISS:          0
cpu0_ITLB WRITEBACK ACCESS:          0  HIT:          0  MISS:          0
cpu0_L1I TOTAL     ACCESS:     870666  HIT:     870666  MISS:          0
cpu0_L1I LOAD      ACCESS:     870666  HIT:     870666  MISS:          0
cpu0_L1I RFO       ACCESS:          0  HIT:          0  MISS:          0
cpu0_L1I PREFETCH  ACCESS:          0  HIT:          0  MISS:          0
cpu0_L1I WRITEBACK ACCESS:          0  HIT:          0  MISS:          0
cpu0_STLB TOTAL     ACCESS:    1624840  HIT:     272707  MISS:    1352133
cpu0_STLB LOAD      ACCESS:     380387  HIT:     267081  MISS:     113306
cpu0_STLB RFO       ACCESS:    1244453  HIT:       5626  MISS:    1238827
cpu0_STLB PREFETCH  ACCESS:          0  HIT:          0  MISS:          0
cpu0_STLB WRITEBACK ACCESS:          0  HIT:          0  MISS:          0
cpu0_L1D TOTAL     ACCESS:   29507703  HIT:   24377401  MISS:    5130302
cpu0_L1D LOAD      ACCESS:   17099576  HIT:   14507204  MISS:    2592372
cpu0_L1D RFO       ACCESS:   11056825  HIT:    8608026  MISS:    2448799
cpu0_L1D PREFETCH  ACCESS:          0  HIT:          0  MISS:          0
cpu0_L1D WRITEBACK ACCESS:          0  HIT:          0  MISS:          0
cpu0_L2C TOTAL     ACCESS:   10171445  HIT:    5448555  MISS:    4722890
cpu0_L2C LOAD      ACCESS:    2592334  HIT:     325387  MISS:    2266947
cpu0_L2C RFO       ACCESS:    2448799  HIT:        332  MISS:    2448467
cpu0_L2C PREFETCH  ACCESS:          0  HIT:          0  MISS:          0
[...]
cpu0_STLB LOAD      ACCESS:    8685851  HIT:    7794916  MISS:     890935
cpu0_STLB RFO       ACCESS:   10186804  HIT:    1191112  MISS:    8995692
cpu0_STLB PREFETCH  ACCESS:          0  HIT:          0  MISS:          0
cpu0_STLB WRITEBACK ACCESS:          0  HIT:          0  MISS:          0
cpu0_STLB TRANSLATION ACCESS:          0  HIT:          0  MISS:          0
cpu0_STLB PREFETCH  REQUESTED:          0  ISSUED:          0  USEFUL:          0  USELESS:          0
cpu0_STLB AVERAGE MISS LATENCY: 13.6099 cycles
cpu0_L1D TOTAL     ACCESS:  606073894  HIT:  537339615  MISS:   68734279
cpu0_L1D LOAD      ACCESS:  409650380  HIT:  363265803  MISS:   46384577
cpu0_L1D RFO       ACCESS:  186542714  HIT:  164848246  MISS:   21694468
cpu0_L1D PREFETCH  ACCESS:          0  HIT:          0  MISS:          0
cpu0_L1D WRITEBACK ACCESS:          0  HIT:          0  MISS:          0
cpu0_L1D TRANSLATION ACCESS:    9880800  HIT:    9225566  MISS:     655234
cpu0_L1D PREFETCH  REQUESTED:          0  ISSUED:          0  USEFUL:          0  USELESS:          0
cpu0_L1D AVERAGE MISS LATENCY: 331.088 cycles
cpu0_L2C TOTAL     ACCESS:  109659267  HIT:   62058706  MISS:   47600561
cpu0_L2C LOAD      ACCESS:   46384142  HIT:   17740384  MISS:   28643758
cpu0_L2C RFO       ACCESS:   21694045  HIT:    2797365  MISS:   18896680
cpu0_L2C PREFETCH  ACCESS:          0  HIT:          0  MISS:          0
cpu0_L2C WRITEBACK ACCESS:   40925846  HIT:   40915621  MISS:      10225
cpu0_L2C TRANSLATION ACCESS:     655234  HIT:     605336  MISS:      49898
cpu0_L2C PREFETCH  REQUESTED:          0  ISSUED:          0  USEFUL:          0  USELESS:          0
cpu0_L2C AVERAGE MISS LATENCY: 462.137 cycles
LLC TOTAL     ACCESS:   82825933  HIT:   46540803  MISS:   36285130
LLC LOAD      ACCESS:   28643308  HIT:   13572253  MISS:   15071055
LLC RFO       ACCESS:   18896391  HIT:    1541522  MISS:   17354869
LLC PREFETCH  ACCESS:          0  HIT:          0  MISS:          0
LLC WRITEBACK ACCESS:   35236336  HIT:   31391293  MISS:    3845043
LLC TRANSLATION ACCESS:      49898  HIT:      35735  MISS:      14163
LLC PREFETCH  REQUESTED:          0  ISSUED:          0  USEFUL:          0  USELESS:          0
LLC AVERAGE MISS LATENCY: 578.703 cycles
~~~~~~~~~~Reuse Distance Profiler output~~~~~~~~~~
0	90430736	60897696
1	48823248	24072848
2	37554304	22392976
3	36258352	24559328
4	32289872	23462896
5	29626080	21856144
6	25323440	18970128
7	20851488	15116592
8	16873504	13053968
9	14882224	10901152
10	12751872	9310592
11	10698592	7430784
12	10071120	7283808
13	9062416	6396144
14	9164784	5254480
15	8399904	4808848
16	7424560	4180800
17	5963312	3379872
18	5124912	3036352
19	4379840	2700624
20	4100160	2621904
21	3835696	2411840
22	3840288	2360352
23	3511680	2213264
24	3066800	2006992
25	3038912	2045760
26	3008864	2089776
27	2818176	1958000
28	2463440	1701488
29	2206080	1468288
30	1973840	1303632
31	1657424	1054368
32	1483088	885680
33	1254000	728624
34	1187040	706800
35	1079696	637728
36	996768	625392
37	933872	603792
38	923824	617424
39	828336	539488
40	787712	487216
41	774256	473456
42	718576	471808
43	693024	453856
44	647936	425216
45	606480	371824
46	596048	377056
47	537040	349264
48	504656	332864
49	490656	324144
50	462656	306576
51	431872	288512
52	395728	275648
53	362096	255408
54	358592	256800
55	353936	262752
56	320368	231632
57	315712	229184
58	296080	212624
59	285280	204336
60	278816	197552
61	280496	199008
62	259520	179840
63	245392	168512
64	474320	323808
66	447936	317120
68	401504	298464
70	380688	293568
72	357568	286480
74	367472	303840
76	328416	264816
78	320128	240352
80	344144	231168
82	348464	206880
84	362256	213712
86	334352	202912
88	310016	198064
90	295504	203808
92	286656	206624
94	270656	189104
96	273776	188304
98	273216	185200
100	271664	181344
102	270544	182384
104	267168	179568
106	267296	173952
108	289680	176480
110	317696	173424
112	325664	165632
114	321920	156384
116	325584	155776
118	304064	148928
120	285456	150640
122	258736	144848
124	235104	140544
126	212896	136160
128	388640	286656
132	336320	281008
136	324768	295136
140	310448	290384
144	297888	281776
148	295104	278352
152	291056	271664
156	282672	265280
160	275552	258960
164	280496	263056
168	273744	255936
172	276032	257520
176	273248	253968
180	261536	243552
184	258416	240912
188	258752	240064
192	244240	226816
196	241920	222640
200	244016	225056
204	240576	221280
208	241728	222368
212	238704	221568
216	233344	214816
220	229056	210944
224	222064	204400
228	219744	201872
232	219120	202160
236	221440	203440
240	215344	198576
244	215536	198448
248	216240	199456
252	212544	195264
256	421024	386192
264	405392	372560
272	395392	361344
280	377504	346048
288	371936	341488
296	362976	332096
304	354048	325104
312	342224	314032
320	335632	307760
328	326656	298144
336	307840	279920
344	300800	273296
352	293376	267856
360	277200	253984
368	259936	236832
376	251872	231040
384	235504	215328
392	229824	211744
400	220880	203088
408	215424	197296
416	207264	190096
424	197888	182448
432	190368	175280
440	182464	167696
448	176240	163024
456	174240	160592
464	166288	152832
472	163408	150448
480	158240	146016
488	150528	138992
496	148688	137056
504	142352	131120
512	279200	256160
528	270592	249600
544	260256	239776
560	252672	232304
576	247344	227712
592	240752	220752
608	231648	211504
624	226464	205600
640	221664	203152
656	214560	195776
672	209232	189856
688	204144	186336
704	201760	184448
720	199712	182336
736	192672	175376
752	190672	174224
768	186560	169648
784	181008	164928
800	174416	159248
816	169152	154912
832	166192	150880
848	163376	149488
864	156304	142816
880	155152	140272
896	151856	137376
912	148544	134016
928	144896	130688
944	143552	130656
960	138336	125088
976	139168	125600
992	135088	122272
1008	137088	123664
1024	268960	242704
1056	259520	233552
1088	250976	226352
1120	240832	216544
1152	236608	213104
1184	229072	205024
1216	220128	197392
1248	209520	188256
1280	202032	179712
1312	198800	179008
1344	192864	173600
1376	188336	168624
1408	186960	166800
1440	181120	161392
1472	172912	154800
1504	172480	153376
1536	167264	149424
1568	168800	150416
1600	166384	148176
1632	162576	144864
1664	160016	142432
1696	156848	139744
1728	155408	137248
1760	151616	134352
1792	150416	133712
1824	146624	129968
1856	142992	126800
1888	137840	121504
1920	137968	122288
1952	136752	121040
1984	133760	118736
2016	131696	117152
2048	253888	224928
2112	248752	219824
2176	239280	211152
2240	234240	206576
2304	232560	205392
2368	232128	204912
2432	228320	200400
2496	217696	191184
2560	212368	188336
2624	207488	183872
2688	207552	182656
2752	207744	183072
2816	213776	189088
2880	208544	184432
2944	201696	178576
3008	198464	176496
3072	197360	176720
3136	197024	177232
3200	193040	172320
3264	184624	164832
3328	176464	156912
3392	173008	153712
3456	167168	148864
3520	161616	143168
3584	156944	139504
3648	147360	130272
3712	140640	124000
3776	137744	121600
3840	138512	121984
3904	130896	114672
3968	131792	114448
4032	126848	110928
4096	252016	218768
4224	245360	212912
4352	244720	211616
4480	231840	201056
4608	235264	205520
4736	230144	199776
4864	222816	194320
4992	221216	192832
5120	233248	204800
5248	234288	207296
5376	228400	202032
5504	223808	195120
5632	213680	185616
5760	209744	182976
5888	206672	180560
6016	198320	172704
6144	200064	173616
6272	194592	169968
6400	192432	168656
6528	191952	169536
6656	196928	173616
6784	193056	169184
6912	191888	168512
7040	184720	162336
7168	183664	160752
7296	176688	153648
7424	166832	143728
7552	157264	135568
7680	155120	134352
7808	151152	130304
7936	149664	129440
8064	152624	132384
8192	295856	256016
8448	286224	247792
8704	281008	244304
8960	274736	238416
9216	268320	232576
9472	259728	224112
9728	249936	216592
9984	255792	222080
10240	259888	227440
10496	244448	214160
10752	242864	213168
11008	247024	218224
11264	269632	238928
11520	267680	238400
11776	258736	230608
12032	224016	197280
12288	213664	186752
12544	205472	178800
12800	200480	174832
13056	196176	172336
13312	189232	165888
13568	191600	168256
13824	188416	166368
14080	197760	175744
14336	198832	177584
14592	203760	182656
14848	195952	175696
15104	183520	163200
15360	172288	152080
15616	163600	144064
15872	156336	137200
16128	157296	139488
16384	300864	266192
16896	290128	256912
17408	280704	248928
17920	266912	237872
18432	260880	234064
18944	255792	228480
19456	244720	220224
19968	247040	223968
20480	241152	218832
20992	232848	212448
21504	220352	199632
22016	212896	195664
22528	223040	206560
23040	215696	201536
23552	209344	194448
24064	168512	155472
24576	161712	150336
25088	163200	151696
25600	159600	148912
26112	171488	160352
26624	174832	163840
27136	179888	168976
27648	172224	162432
28160	167104	158720
28672	164560	156736
29184	162864	154784
29696	162432	155568
30208	155920	149040
30720	145312	139344
31232	138240	131328
31744	125312	119120
32256	116144	109776
32768	215904	201504
33792	216544	191376
34816	211520	180928
35840	207360	176448
36864	198656	170208
37888	182640	160320
38912	173968	150976
39936	165952	143408
40960	161408	142000
41984	153344	134656
43008	144864	126720
44032	146896	129552
45056	145760	127616
46080	138464	120096
47104	139376	121952
48128	140832	125136
49152	139808	127296
50176	138224	126640
51200	157920	134816
52224	305168	148864
53248	177872	129776
54272	168496	122048
55296	158960	118064
56320	136272	125600
57344	127952	114752
58368	117584	105104
59392	115264	103856
60416	116144	104608
61440	112176	100480
62464	106352	95648
63488	103584	93024
64512	96288	87264
65536	194736	178864
67584	198320	182464
69632	185280	169664
71680	186816	168992
73728	186144	167024
75776	172432	156192
77824	174688	158768
79872	169776	154832
81920	162880	147008
83968	167760	151952
86016	169168	152944
88064	164448	150384
90112	159632	146160
92160	157584	145200
94208	159568	147296
96256	149968	138560
98304	150832	137760
100352	144272	131008
102400	139296	126096
104448	151568	138192
106496	142560	127552
108544	139936	126928
110592	150368	137264
112640	152512	138240
114688	155072	141888
116736	165024	151184
118784	158384	145104
120832	156016	143728
122880	143504	132720
124928	137792	124976
126976	126640	113648
129024	114848	104384
131072	226880	203168
135168	229136	205232
139264	221552	199360
143360	210544	187264
147456	212800	190736
151552	216016	192864
155648	304352	281424
159744	213424	192080
163840	176864	156832
167936	189360	171520
172032	150336	132432
176128	149136	132208
180224	148352	132960
184320	142096	124944
188416	137152	117232
192512	117584	101248
196608	119536	104128
200704	120736	107392
204800	129712	118320
208896	124960	115712
212992	116800	107152
217088	112368	103296
221184	117392	106752
225280	109872	97840
229376	106608	94016
233472	100560	86640
237568	100848	86544
241664	108048	94096
245760	106160	93520
249856	105536	92448
253952	99200	89232
258048	111312	100800
262144	231744	211264
270336	234928	213520
278528	197984	175520
286720	168912	151376
294912	154160	135904
303104	153376	139280
311296	153280	138128
319488	152400	138544
327680	135888	124128
335872	139952	129200
344064	129040	117200
352256	126224	116960
360448	137232	128272
368640	124864	117360
376832	125312	118208
385024	121600	113616
393216	114368	106976
401408	94496	88016
409600	104528	98992
417792	105680	100048
425984	105232	98224
434176	81840	75664
442368	127696	121824
450560	110720	104576
458752	97312	92128
466944	84992	79312
475136	71968	67360
483328	73520	66240
491520	72048	65792
499712	106768	100272
507904	150912	145920
516096	293520	288768
524288	1184576	1173296
540672	818832	804976
557056	201088	191072
573440	33904	25376
589824	26224	16960
606208	25568	16784
622592	36896	24880
638976	33328	22800
655360	33808	22112
671744	33680	22592
688128	31120	20016
704512	32208	18224
720896	30832	18960
737280	28912	16624
753664	26640	16112
770048	28368	17232
786432	29152	17760
802816	27616	13872
819200	26208	15936
835584	21088	12176
851968	20288	11264
868352	23792	12048
884736	23104	13568
901120	24368	13552
917504	21504	11424
933888	23584	12624
950272	26208	14080
966656	21328	10704
983040	18016	9184
999424	21552	11440
1015808	25424	15328
1032192	43744	34192
1048576	199136	179600
1081344	142512	125776
1114112	48400	27088
1146880	34992	15120
1179648	29632	14224
1212416	34672	13984
1245184	26512	9856
1277952	27920	10928
1310720	31584	12528
1343488	30976	11184
1376256	26288	8192
1409024	27792	12208
1441792	24288	11184
1474560	26096	8720
1507328	23744	7200
1540096	31280	13792
1572864	82992	62848
1605632	112016	93616
1638400	52544	36384
1671168	24080	10144
1703936	23200	5952
1736704	22096	5056
1769472	18112	5088
1802240	21504	5936
1835008	19776	6400
1867776	21312	6224
1900544	22432	5520
1933312	19472	4912
1966080	17360	4960
1998848	18752	4144
2031616	15776	4304
2064384	19200	6928
2097152	99168	73296
2162688	81792	52704
2228224	33648	9728
2293760	26704	6448
2359296	30064	7712
2424832	23168	6128
2490368	23072	4480
2555904	27056	6096
2621440	58048	35648
2686976	67376	47584
2752512	29808	9872
2818048	22784	4352
2883584	26400	4592
2949120	27104	3792
3014656	24832	4128
3080192	23568	3952
3145728	38656	19776
3211264	55552	35968
3276800	35392	12288
3342336	25680	4864
3407872	27088	2848
3473408	22912	2144
3538944	21984	2912
3604480	21760	2928
3670016	35760	12960
3735552	46848	27744
3801088	34592	14880
3866624	25344	2960
3932160	21216	1904
3997696	23984	1984
4063232	20896	2192
4128768	20368	1824
4194304	58672	23056
4325376	56576	17072
4456448	39712	3344
4587520	40240	3680
4718592	53328	18320
4849664	53344	18224
4980736	37600	7840
5111808	38640	9536
5242880	49456	21312
5373952	52752	23456
5505024	37856	9104
5636096	34912	5680
5767168	38704	10016
5898240	41536	13072
6029312	33520	3760
6160384	37904	3040
6291456	43136	8464
6422528	45072	12816
6553600	36032	4480
6684672	33632	2320
6815744	37456	4944
6946816	40672	9280
7077888	33232	4944
7208960	30400	1920
7340032	29136	3808
7471104	31424	7664
7602176	32976	5664
7733248	27600	1712
7864320	28944	2736
7995392	31488	5808
8126464	31280	5264
8257536	25504	1520
8388608	51024	7648
8650752	50544	5520
8912896	49184	6752
9175040	49232	5616
9437184	45968	5904
9699328	43200	4816
9961472	48592	4384
10223616	43232	5632
10485760	39552	3616
10747904	40256	4880
11010048	41856	3696
11272192	40608	4336
11534336	35280	3424
11796480	34208	4240
12058624	30048	3216
12320768	29184	3168
12582912	23456	2960
12845056	26240	4224
13107200	22032	2832
13369344	24448	3680
13631488	22416	2720
13893632	22672	3440
14155776	22272	2256
14417920	20400	2560
14680064	21840	2352
14942208	22384	2736
15204352	23088	2736
15466496	20944	2544
15728640	18176	2624
15990784	16672	1984
16252928	15712	2320
16515072	17248	2704
16777216	33136	4480
17301504	28592	4800
17825792	27648	4208
18350080	27024	3920
18874368	27200	4288
19398656	26224	3936
19922944	25312	3904
20447232	26400	3920
20971520	22704	3536
21495808	23280	3936
22020096	21968	6064
22544384	18832	3792
23068672	18192	2848
23592960	18464	3264
24117248	23536	4480
24641536	19600	2608
25165824	16960	3056
25690112	17168	2640
26214400	17184	2672
26738688	17088	3344
27262976	15536	3360
27787264	14880	2384
28311552	11504	2544
28835840	13648	3744
29360128	11328	2480
29884416	9664	2592
30408704	12560	2720
30932992	13392	2592
31457280	13584	2976
31981568	12688	2272
32505856	11840	2496
33030144	11472	2816
33554432	24160	5152
34603008	21904	5632
35651584	19792	4944
36700160	20960	5328
37748736	19760	5120
38797312	21344	5072
39845888	18912	4992
40894464	16464	4560
41943040	15488	4560
42991616	15984	5296
44040192	15680	4768
45088768	15344	5296
46137344	13680	4912
47185920	13712	4928
48234496	13216	6080
49283072	13968	4768
50331648	15152	4640
51380224	15840	5024
52428800	16752	5280
53477376	18432	5664
54525952	19376	5136
55574528	23472	4896
56623104	28352	5712
57671680	29904	6272
58720256	29296	5984
59768832	29808	6704
60817408	33568	6720
61865984	36864	6304
62914560	38752	6304
63963136	36960	6592
65011712	42928	6992
66060288	41184	7440
67108864	53904	11312
69206016	60992	11792
71303168	67472	11312
73400320	69552	11456
75497472	72848	12096
77594624	74544	11584
79691776	80672	12576
81788928	75376	11632
83886080	76432	12144
85983232	73776	12032
88080384	82304	13008
90177536	83616	12608
92274688	84672	12848
94371840	82944	13008
96468992	84032	13504
98566144	83520	13648
100663296	82704	13696
102760448	92960	18672
104857600	92544	18768
106954752	86448	13360
109051904	81696	14288
111149056	81088	13840
113246208	81616	14576
115343360	83968	14720
117440512	86160	14608
119537664	76128	14464
121634816	85856	15264
123731968	89616	15200
125829120	86560	15152
127926272	84576	15824
130023424	89168	16816
132120576	87488	16304
134217728	176304	32768
138412032	174080	32560
142606336	95536	33440
146800640	47952	29120
150994944	40320	31104
155189248	38464	32176
159383552	36656	31152
163577856	34496	29616
167772160	35808	30992
171966464	37088	30960
176160768	38656	31440
180355072	43872	31840
184549376	49600	31552
188743680	52960	32192
192937984	56864	33936
197132288	62160	33168
201326592	71632	33520
205520896	74464	35632
209715200	46720	35536
213909504	37040	36624
218103808	35600	35600
222298112	35088	35088
226492416	36512	36480
230686720	34336	34320
234881024	33200	33184
239075328	32288	32288
243269632	33152	33136
247463936	33088	33088
251658240	32528	32496
255852544	31808	31808
260046848	32080	32080
264241152	32304	32304
268435456	64352	64304
276824064	62640	62624
285212672	61344	61328
293601280	62016	62016
301989888	62880	62816
310378496	61696	61696
318767104	59648	59616
327155712	60528	60512
335544320	60144	60112
343932928	59312	59280
352321536	60976	60960
360710144	60016	59968
369098752	61856	61856
377487360	60128	60080
385875968	60112	60112
394264576	59552	59536
402653184	55392	55392
411041792	52912	52912
419430400	49168	49168
427819008	46224	46224
436207616	42816	42816
444596224	40128	40128
452984832	38448	38448
461373440	37088	37088
469762048	35120	35120
478150656	32096	32096
486539264	30096	30096
494927872	25936	25936
503316480	24528	24528
511705088	21056	21056
520093696	20096	20096
528482304	18048	18048
536870912	30768	30768
553648128	23824	23824
570425344	16976	16976
587202560	8976	8976
603979776	1760	1760
620756992	0	0
637534208	0	0
654311424	0	0
671088640	0	0
687865856	0	0
704643072	0	0
721420288	0	0
738197504	0	0
754974720	0	0
771751936	0	0
788529152	0	0
805306368	0	0
822083584	0	0
838860800	0	0
855638016	0	0
872415232	0	0
889192448	0	0
905969664	0	0
922746880	0	0
939524096	0	0
956301312	0	0
973078528	0	0
989855744	0	0
1006632960	0	0
1023410176	0	0
1040187392	0	0
1056964608	0	0
1073741824	0	0
1107296256	0	0
1140850688	0	0
1174405120	0	0
1207959552	0	0
1241513984	0	0
1275068416	0	0
1308622848	0	0
1342177280	0	0
1375731712	0	0
1409286144	0	0
1442840576	0	0
1476395008	0	0
1509949440	0	0
1543503872	0	0
1577058304	0	0
1610612736	0	0
1644167168	0	0
1677721600	0	0
1711276032	0	0
1744830464	0	0
1778384896	0	0
1811939328	0	0
1845493760	0	0
1879048192	0	0
1912602624	0	0
1946157056	0	0
1979711488	0	0
2013265920	0	0
2046820352	0	0
2080374784	0	0
2113929216	0	0
2147483648	0	0
2214592512	0	0
2281701376	0	0
2348810240	0	0
2415919104	0	0
2483027968	0	0
2550136832	0	0
2617245696	0	0
2684354560	0	0
2751463424	0	0
2818572288	0	0
2885681152	0	0
2952790016	0	0
3019898880	0	0
3087007744	0	0
3154116608	0	0
3221225472	0	0
3288334336	0	0
3355443200	0	0
3422552064	0	0
3489660928	0	0
3556769792	0	0
3623878656	0	0
3690987520	0	0
3758096384	0	0
3825205248	0	0
3892314112	0	0
3959422976	0	0
4026531840	0	0
4093640704	0	0
4160749568	0	0
4227858432	0	0
~~~~~~~~~~Reuse Distance Profiler output end~~~~~~~~~~

Sampler size:1507848

DRAM Statistics
 CHANNEL 0
 RQ ROW_BUFFER_HIT:    3253772  ROW_BUFFER_MISS:   29185090
 DBUS AVG_CONGESTED_CYCLE:    3.99057
 WQ ROW_BUFFER_HIT:      30593  ROW_BUFFER_MISS:   27818037  FULL:          0


CPU 0 Branch Prediction Accuracy: 94.5645% MPKI: 11.6727 Average ROB Occupancy at Mispredict: 38.2383
Branch type MPKI
BRANCH_DIRECT_JUMP: 3.33333e-05
BRANCH_INDIRECT: 1.33333e-06
BRANCH_CONDITIONAL: 11.6716
BRANCH_DIRECT_CALL: 2.8e-05
BRANCH_INDIRECT_CALL: 0.00102533
BRANCH_RETURN: 2.6e-05

