
*** ChampSim Multicore Out-of-Order Simulator ***

Warmup Instructions: 50000000
Simulation Instructions: 1500000000
Number of CPUs: 1
Off-chip DRAM Size: 4 GiB Channels: 1 Width: 64-bit Data Rate: 3200 MT/s

VirtualMemory physical capacity: 8588881920 num_ppages: 2096895
VirtualMemory page size: 4096 log2_page_size: 12

CPU 0 runs /s/traces/champsim_traces/605.mcf_s-782B.champsimtrace.xz
CPU 0 Bimodal branch predictor
Basic BTB sets: 1024 ways: 8 indirect buffer size: 4096 RAS size: 64
Initializing LRU.
Initializing LRU.
Initializing LRU.
Initializing LRU.
Initializing rdLRU.
Initializing LRU.
Heartbeat CPU 0 instructions: 2000003 cycles: 687077 heartbeat IPC: 2.91089 cumulative IPC: 2.91089 (Simulation time: 0 hr 1 min 38 sec) 
Heartbeat CPU 0 instructions: 4000003 cycles: 1365587 heartbeat IPC: 2.94764 cumulative IPC: 2.92915 (Simulation time: 0 hr 3 min 18 sec) 
Heartbeat CPU 0 instructions: 6000000 cycles: 2044204 heartbeat IPC: 2.94717 cumulative IPC: 2.93513 (Simulation time: 0 hr 4 min 55 sec) 
Heartbeat CPU 0 instructions: 8000001 cycles: 2730385 heartbeat IPC: 2.91468 cumulative IPC: 2.92999 (Simulation time: 0 hr 6 min 31 sec) 
Heartbeat CPU 0 instructions: 10000000 cycles: 3422740 heartbeat IPC: 2.88869 cumulative IPC: 2.92164 (Simulation time: 0 hr 8 min 6 sec) 
Heartbeat CPU 0 instructions: 12000003 cycles: 4105177 heartbeat IPC: 2.93068 cumulative IPC: 2.92314 (Simulation time: 0 hr 9 min 41 sec) 
Heartbeat CPU 0 instructions: 14000004 cycles: 4794600 heartbeat IPC: 2.90098 cumulative IPC: 2.91995 (Simulation time: 0 hr 11 min 17 sec) 
Heartbeat CPU 0 instructions: 16000002 cycles: 5477783 heartbeat IPC: 2.92747 cumulative IPC: 2.92089 (Simulation time: 0 hr 12 min 54 sec) 
Heartbeat CPU 0 instructions: 18000000 cycles: 6170755 heartbeat IPC: 2.88612 cumulative IPC: 2.91699 (Simulation time: 0 hr 14 min 35 sec) 
Heartbeat CPU 0 instructions: 20000001 cycles: 6865169 heartbeat IPC: 2.88013 cumulative IPC: 2.91326 (Simulation time: 0 hr 16 min 18 sec) 
Heartbeat CPU 0 instructions: 22000002 cycles: 7565790 heartbeat IPC: 2.85461 cumulative IPC: 2.90783 (Simulation time: 0 hr 17 min 59 sec) 
Heartbeat CPU 0 instructions: 24000001 cycles: 8259181 heartbeat IPC: 2.88437 cumulative IPC: 2.90586 (Simulation time: 0 hr 19 min 42 sec) 
Heartbeat CPU 0 instructions: 26000001 cycles: 8954233 heartbeat IPC: 2.87748 cumulative IPC: 2.90365 (Simulation time: 0 hr 21 min 23 sec) 
Heartbeat CPU 0 instructions: 28000000 cycles: 9661039 heartbeat IPC: 2.82963 cumulative IPC: 2.89824 (Simulation time: 0 hr 23 min 2 sec) 
Heartbeat CPU 0 instructions: 30000001 cycles: 10375061 heartbeat IPC: 2.80104 cumulative IPC: 2.89155 (Simulation time: 0 hr 24 min 39 sec) 
Heartbeat CPU 0 instructions: 32000003 cycles: 11061364 heartbeat IPC: 2.91417 cumulative IPC: 2.89295 (Simulation time: 0 hr 26 min 13 sec) 
Heartbeat CPU 0 instructions: 34000001 cycles: 11740961 heartbeat IPC: 2.94292 cumulative IPC: 2.89584 (Simulation time: 0 hr 27 min 45 sec) 
Heartbeat CPU 0 instructions: 36000000 cycles: 12445443 heartbeat IPC: 2.83896 cumulative IPC: 2.89263 (Simulation time: 0 hr 29 min 19 sec) 
Heartbeat CPU 0 instructions: 38000001 cycles: 13140624 heartbeat IPC: 2.87695 cumulative IPC: 2.8918 (Simulation time: 0 hr 30 min 52 sec) 
Heartbeat CPU 0 instructions: 40000000 cycles: 13836428 heartbeat IPC: 2.87437 cumulative IPC: 2.89092 (Simulation time: 0 hr 32 min 22 sec) 
Heartbeat CPU 0 instructions: 42000002 cycles: 14526202 heartbeat IPC: 2.8995 cumulative IPC: 2.89133 (Simulation time: 0 hr 33 min 52 sec) 
Heartbeat CPU 0 instructions: 44000003 cycles: 15220382 heartbeat IPC: 2.8811 cumulative IPC: 2.89086 (Simulation time: 0 hr 35 min 24 sec) 
Heartbeat CPU 0 instructions: 46000003 cycles: 15922118 heartbeat IPC: 2.85007 cumulative IPC: 2.88906 (Simulation time: 0 hr 36 min 58 sec) 
Heartbeat CPU 0 instructions: 48000003 cycles: 16623746 heartbeat IPC: 2.85051 cumulative IPC: 2.88744 (Simulation time: 0 hr 38 min 32 sec) 
Heartbeat CPU 0 instructions: 50000004 cycles: 17324494 heartbeat IPC: 2.85409 cumulative IPC: 2.88609 (Simulation time: 0 hr 40 min 6 sec) 

Warmup complete CPU 0 instructions: 50000004 cycles: 17324494 (Simulation time: 0 hr 40 min 6 sec) 

Heartbeat CPU 0 instructions: 52000000 cycles: 27922510 heartbeat IPC: 0.188714 cumulative IPC: 0.188714 (Simulation time: 0 hr 44 min 23 sec) 

Region of Interest Statistics
cpu0_DTLB TOTAL     ACCESS:     415136  HIT:     251125  MISS:     164011
cpu0_DTLB LOAD      ACCESS:     390836  HIT:     227326  MISS:     163510
cpu0_DTLB RFO       ACCESS:      24300  HIT:      23799  MISS:        501
cpu0_DTLB PREFETCH  ACCESS:          0  HIT:          0  MISS:          0
cpu0_DTLB WRITEBACK ACCESS:          0  HIT:          0  MISS:          0
cpu0_ITLB TOTAL     ACCESS:     182266  HIT:     182266  MISS:          0
cpu0_ITLB LOAD      ACCESS:     182266  HIT:     182266  MISS:          0
cpu0_ITLB RFO       ACCESS:          0  HIT:          0  MISS:          0
cpu0_ITLB PREFETCH  ACCESS:          0  HIT:          0  MISS:          0
cpu0_ITLB WRITEBACK ACCESS:          0  HIT:          0  MISS:          0
cpu0_L1I TOTAL     ACCESS:       3553  HIT:       3553  MISS:          0
cpu0_L1I LOAD      ACCESS:       3553  HIT:       3553  MISS:          0
cpu0_L1I RFO       ACCESS:          0  HIT:          0  MISS:          0
cpu0_L1I PREFETCH  ACCESS:          0  HIT:          0  MISS:          0
cpu0_L1I WRITEBACK ACCESS:          0  HIT:          0  MISS:          0
cpu0_STLB TOTAL     ACCESS:     164011  HIT:     161728  MISS:       2283
cpu0_STLB LOAD      ACCESS:     163510  HIT:     161262  MISS:       2248
cpu0_STLB RFO       ACCESS:        501  HIT:        466  MISS:         35
cpu0_STLB PREFETCH  ACCESS:          0  HIT:          0  MISS:          0
cpu0_STLB WRITEBACK ACCESS:          0  HIT:          0  MISS:          0
cpu0_L1D TOTAL     ACCESS:     451612  HIT:     164752  MISS:     286860
cpu0_L1D LOAD      ACCESS:     405147  HIT:     119221  MISS:     285926
cpu0_L1D RFO       ACCESS:      44195  HIT:      43503  MISS:        692
cpu0_L1D PREFETCH  ACCESS:          0  HIT:          0  MISS:          0
cpu0_L1D WRITEBACK ACCESS:          0  HIT:          0  MISS:          0
cpu0_L2C TOTAL     ACCESS:     291386  HIT:      39675  MISS:     251711
cpu0_L2C LOAD      ACCESS:     285923  HIT:      34965  MISS:     250958
cpu0_L2C RFO       ACCESS:        692  HIT:         34  MISS:        658
cpu0_L2C PREFETCH  ACCESS:          0  HIT:          0  MISS:          0
cpu0_L2C WRITEBACK ACCESS:       4529  HIT:       4529  MISS:          0
LLC TOTAL     ACCESS:     255829  HIT:      94525  MISS:     161304
LLC LOAD      ACCESS:     250958  HIT:      89747  MISS:     161211
LLC RFO       ACCESS:        658  HIT:        600  MISS:         58
LLC PREFETCH  ACCESS:          0  HIT:          0  MISS:          0
LLC WRITEBACK ACCESS:       4118  HIT:       4107  MISS:         11
Heartbeat CPU 0 instructions: 54000004 cycles: 39001785 heartbeat IPC: 0.180518 cumulative IPC: 0.184525 (Simulation time: 0 hr 48 min 52 sec) 

Region of Interest Statistics
cpu0_DTLB TOTAL     ACCESS:     825116  HIT:     488589  MISS:     336527
cpu0_DTLB LOAD      ACCESS:     779713  HIT:     444219  MISS:     335494
cpu0_DTLB RFO       ACCESS:      45403  HIT:      44370  MISS:       1033
cpu0_DTLB PREFETCH  ACCESS:          0  HIT:          0  MISS:          0
cpu0_DTLB WRITEBACK ACCESS:          0  HIT:          0  MISS:          0
cpu0_ITLB TOTAL     ACCESS:     360128  HIT:     360128  MISS:          0
cpu0_ITLB LOAD      ACCESS:     360128  HIT:     360128  MISS:          0
cpu0_ITLB RFO       ACCESS:          0  HIT:          0  MISS:          0
cpu0_ITLB PREFETCH  ACCESS:          0  HIT:          0  MISS:          0
cpu0_ITLB WRITEBACK ACCESS:          0  HIT:          0  MISS:          0
cpu0_L1I TOTAL     ACCESS:       6902  HIT:       6902  MISS:          0
cpu0_L1I LOAD      ACCESS:       6902  HIT:       6902  MISS:          0
cpu0_L1I RFO       ACCESS:          0  HIT:          0  MISS:          0
cpu0_L1I PREFETCH  ACCESS:          0  HIT:          0  MISS:          0
cpu0_L1I WRITEBACK ACCESS:          0  HIT:          0  MISS:          0
cpu0_STLB TOTAL     ACCESS:     336527  HIT:     331799  MISS:       4728
cpu0_STLB LOAD      ACCESS:     335494  HIT:     330825  MISS:       4669
cpu0_STLB RFO       ACCESS:       1033  HIT:        974  MISS:         59
cpu0_STLB PREFETCH  ACCESS:          0  HIT:          0  MISS:          0
cpu0_STLB WRITEBACK ACCESS:          0  HIT:          0  MISS:          0
cpu0_L1D TOTAL     ACCESS:     892140  HIT:     305143  MISS:     586997
cpu0_L1D LOAD      ACCESS:     804751  HIT:     219543  MISS:     585208
cpu0_L1D RFO       ACCESS:      82703  HIT:      81380  MISS:       1323
cpu0_L1D PREFETCH  ACCESS:          0  HIT:          0  MISS:          0
cpu0_L1D WRITEBACK ACCESS:          0  HIT:          0  MISS:          0
cpu0_L2C TOTAL     ACCESS:     595416  HIT:      80928  MISS:     514488
cpu0_L2C LOAD      ACCESS:     585205  HIT:      72155  MISS:     513050
cpu0_L2C RFO       ACCESS:       1323  HIT:         82  MISS:       1241
cpu0_L2C PREFETCH  ACCESS:          0  HIT:          0  MISS:          0
cpu0_L2C WRITEBACK ACCESS:       8422  HIT:       8422  MISS:          0
LLC TOTAL     ACCESS:     522089  HIT:     190404  MISS:     331685
LLC LOAD      ACCESS:     513050  HIT:     181565  MISS:     331485
LLC RFO       ACCESS:       1241  HIT:       1118  MISS:        123
LLC PREFETCH  ACCESS:          0  HIT:          0  MISS:          0
LLC WRITEBACK ACCESS:       7601  HIT:       7576  MISS:         25
Heartbeat CPU 0 instructions: 56000002 cycles: 51010541 heartbeat IPC: 0.166545 cumulative IPC: 0.178115 (Simulation time: 0 hr 53 min 35 sec) 

Region of Interest Statistics
cpu0_DTLB TOTAL     ACCESS:    1230096  HIT:     710594  MISS:     519502
cpu0_DTLB LOAD      ACCESS:    1169728  HIT:     652240  MISS:     517488
cpu0_DTLB RFO       ACCESS:      60368  HIT:      58354  MISS:       2014
cpu0_DTLB PREFETCH  ACCESS:          0  HIT:          0  MISS:          0
cpu0_DTLB WRITEBACK ACCESS:          0  HIT:          0  MISS:          0
cpu0_ITLB TOTAL     ACCESS:     534040  HIT:     534040  MISS:          0
cpu0_ITLB LOAD      ACCESS:     534040  HIT:     534040  MISS:          0
cpu0_ITLB RFO       ACCESS:          0  HIT:          0  MISS:          0
cpu0_ITLB PREFETCH  ACCESS:          0  HIT:          0  MISS:          0
cpu0_ITLB WRITEBACK ACCESS:          0  HIT:          0  MISS:          0
cpu0_L1I TOTAL     ACCESS:       9455  HIT:       9455  MISS:          0
cpu0_L1I LOAD      ACCESS:       9455  HIT:       9455  MISS:          0
cpu0_L1I RFO       ACCESS:          0  HIT:          0  MISS:          0
cpu0_L1I PREFETCH  ACCESS:          0  HIT:          0  MISS:          0
cpu0_L1I WRITEBACK ACCESS:          0  HIT:          0  MISS:          0
cpu0_STLB TOTAL     ACCESS:     519502  HIT:     512225  MISS:       7277
cpu0_STLB LOAD      ACCESS:     517488  HIT:     510300  MISS:       7188
cpu0_STLB RFO       ACCESS:       2014  HIT:       1925  MISS:         89
cpu0_STLB PREFETCH  ACCESS:          0  HIT:          0  MISS:          0
cpu0_STLB WRITEBACK ACCESS:          0  HIT:          0  MISS:          0
cpu0_L1D TOTAL     ACCESS:    1317962  HIT:     409952  MISS:     908010
cpu0_L1D LOAD      ACCESS:    1203079  HIT:     297479  MISS:     905600
cpu0_L1D RFO       ACCESS:     107691  HIT:     105953  MISS:       1738
cpu0_L1D PREFETCH  ACCESS:          0  HIT:          0  MISS:          0
cpu0_L1D WRITEBACK ACCESS:          0  HIT:          0  MISS:          0
cpu0_L2C TOTAL     ACCESS:     920551  HIT:     124569  MISS:     795982
cpu0_L2C LOAD      ACCESS:     905597  HIT:     111548  MISS:     794049
cpu0_L2C RFO       ACCESS:       1738  HIT:         95  MISS:       1643
cpu0_L2C PREFETCH  ACCESS:          0  HIT:          0  MISS:          0
cpu0_L2C WRITEBACK ACCESS:      12544  HIT:      12544  MISS:          0
LLC TOTAL     ACCESS:     807453  HIT:     292088  MISS:     515365
LLC LOAD      ACCESS:     794049  HIT:     279056  MISS:     514993
LLC RFO       ACCESS:       1643  HIT:       1408  MISS:        235
LLC PREFETCH  ACCESS:          0  HIT:          0  MISS:          0
LLC WRITEBACK ACCESS:      11471  HIT:      11420  MISS:         51
Heartbeat CPU 0 instructions: 58000000 cycles: 62169803 heartbeat IPC: 0.179223 cumulative IPC: 0.178391 (Simulation time: 0 hr 58 min 1 sec) 

Region of Interest Statistics
cpu0_DTLB TOTAL     ACCESS:    1639272  HIT:     949608  MISS:     689664
cpu0_DTLB LOAD      ACCESS:    1557919  HIT:     870880  MISS:     687039
cpu0_DTLB RFO       ACCESS:      81353  HIT:      78728  MISS:       2625
cpu0_DTLB PREFETCH  ACCESS:          0  HIT:          0  MISS:          0
cpu0_DTLB WRITEBACK ACCESS:          0  HIT:          0  MISS:          0
cpu0_ITLB TOTAL     ACCESS:     712123  HIT:     712123  MISS:          0
cpu0_ITLB LOAD      ACCESS:     712123  HIT:     712123  MISS:          0
cpu0_ITLB RFO       ACCESS:          0  HIT:          0  MISS:          0
cpu0_ITLB PREFETCH  ACCESS:          0  HIT:          0  MISS:          0
cpu0_ITLB WRITEBACK ACCESS:          0  HIT:          0  MISS:          0
cpu0_L1I TOTAL     ACCESS:      13188  HIT:      13188  MISS:          0
cpu0_L1I LOAD      ACCESS:      13188  HIT:      13188  MISS:          0
cpu0_L1I RFO       ACCESS:          0  HIT:          0  MISS:          0
cpu0_L1I PREFETCH  ACCESS:          0  HIT:          0  MISS:          0
cpu0_L1I WRITEBACK ACCESS:          0  HIT:          0  MISS:          0
cpu0_STLB TOTAL     ACCESS:     689664  HIT:     680074  MISS:       9590
cpu0_STLB LOAD      ACCESS:     687039  HIT:     677563  MISS:       9476
cpu0_STLB RFO       ACCESS:       2625  HIT:       2511  MISS:        114
cpu0_STLB PREFETCH  ACCESS:          0  HIT:          0  MISS:          0
cpu0_STLB WRITEBACK ACCESS:          0  HIT:          0  MISS:          0
cpu0_L1D TOTAL     ACCESS:    1758957  HIT:     554586  MISS:    1204371
cpu0_L1D LOAD      ACCESS:    1602742  HIT:     401629  MISS:    1201113
cpu0_L1D RFO       ACCESS:     146739  HIT:     144389  MISS:       2350
cpu0_L1D PREFETCH  ACCESS:          0  HIT:          0  MISS:          0
cpu0_L1D WRITEBACK ACCESS:          0  HIT:          0  MISS:          0
cpu0_L2C TOTAL     ACCESS:    1220626  HIT:     165289  MISS:    1055337
cpu0_L2C LOAD      ACCESS:    1201109  HIT:     148385  MISS:    1052724
cpu0_L2C RFO       ACCESS:       2350  HIT:        129  MISS:       2221
cpu0_L2C PREFETCH  ACCESS:          0  HIT:          0  MISS:          0
cpu0_L2C WRITEBACK ACCESS:      16259  HIT:      16259  MISS:          0
LLC TOTAL     ACCESS:    1070314  HIT:     386981  MISS:     683333
LLC LOAD      ACCESS:    1052724  HIT:     369873  MISS:     682851
LLC RFO       ACCESS:       2221  HIT:       1921  MISS:        300
LLC PREFETCH  ACCESS:          0  HIT:          0  MISS:          0
LLC WRITEBACK ACCESS:      14977  HIT:      14909  MISS:         68
Heartbeat CPU 0 instructions: 60000000 cycles: 72815168 heartbeat IPC: 0.187875 cumulative IPC: 0.18021 (Simulation time: 1 hr 2 min 13 sec) 

Region of Interest Statistics
cpu0_DTLB TOTAL     ACCESS:    2053249  HIT:    1199017  MISS:     854232
cpu0_DTLB LOAD      ACCESS:    1946871  HIT:    1095790  MISS:     851081
cpu0_DTLB RFO       ACCESS:     106378  HIT:     103227  MISS:       3151
cpu0_DTLB PREFETCH  ACCESS:          0  HIT:          0  MISS:          0
cpu0_DTLB WRITEBACK ACCESS:          0  HIT:          0  MISS:          0
cpu0_ITLB TOTAL     ACCESS:     891943  HIT:     891943  MISS:          0
cpu0_ITLB LOAD      ACCESS:     891943  HIT:     891943  MISS:          0
cpu0_ITLB RFO       ACCESS:          0  HIT:          0  MISS:          0
cpu0_ITLB PREFETCH  ACCESS:          0  HIT:          0  MISS:          0
cpu0_ITLB WRITEBACK ACCESS:          0  HIT:          0  MISS:          0
cpu0_L1I TOTAL     ACCESS:      17201  HIT:      17201  MISS:          0
cpu0_L1I LOAD      ACCESS:      17201  HIT:      17201  MISS:          0
cpu0_L1I RFO       ACCESS:          0  HIT:          0  MISS:          0
cpu0_L1I PREFETCH  ACCESS:          0  HIT:          0  MISS:          0
cpu0_L1I WRITEBACK ACCESS:          0  HIT:          0  MISS:          0
cpu0_STLB TOTAL     ACCESS:     854232  HIT:     842419  MISS:      11813
cpu0_STLB LOAD      ACCESS:     851081  HIT:     839409  MISS:      11672
cpu0_STLB RFO       ACCESS:       3151  HIT:       3010  MISS:        141
cpu0_STLB PREFETCH  ACCESS:          0  HIT:          0  MISS:          0
cpu0_STLB WRITEBACK ACCESS:          0  HIT:          0  MISS:          0
cpu0_L1D TOTAL     ACCESS:    2209486  HIT:     719498  MISS:    1489988
cpu0_L1D LOAD      ACCESS:    2004670  HIT:     518949  MISS:    1485721
cpu0_L1D RFO       ACCESS:     193125  HIT:     190005  MISS:       3120
cpu0_L1D PREFETCH  ACCESS:          0  HIT:          0  MISS:          0
cpu0_L1D WRITEBACK ACCESS:          0  HIT:          0  MISS:          0
cpu0_L2C TOTAL     ACCESS:    1510518  HIT:     204387  MISS:    1306131
cpu0_L2C LOAD      ACCESS:    1485717  HIT:     182998  MISS:    1302719
cpu0_L2C RFO       ACCESS:       3120  HIT:        199  MISS:       2921
cpu0_L2C PREFETCH  ACCESS:          0  HIT:          0  MISS:          0
cpu0_L2C WRITEBACK ACCESS:      20534  HIT:      20534  MISS:          0
LLC TOTAL     ACCESS:    1324891  HIT:     480249  MISS:     844642
LLC LOAD      ACCESS:    1302719  HIT:     458693  MISS:     844026
LLC RFO       ACCESS:       2921  HIT:       2527  MISS:        394
LLC PREFETCH  ACCESS:          0  HIT:          0  MISS:          0
LLC WRITEBACK ACCESS:      18760  HIT:      18680  MISS:         80
Heartbeat CPU 0 instructions: 62000003 cycles: 83606292 heartbeat IPC: 0.185338 cumulative IPC: 0.181045 (Simulation time: 1 hr 6 min 35 sec) 

Region of Interest Statistics
cpu0_DTLB TOTAL     ACCESS:    2464799  HIT:    1445148  MISS:    1019651
cpu0_DTLB LOAD      ACCESS:    2334458  HIT:    1318468  MISS:    1015990
cpu0_DTLB RFO       ACCESS:     130341  HIT:     126680  MISS:       3661
cpu0_DTLB PREFETCH  ACCESS:          0  HIT:          0  MISS:          0
cpu0_DTLB WRITEBACK ACCESS:          0  HIT:          0  MISS:          0
cpu0_ITLB TOTAL     ACCESS:    1070901  HIT:    1070901  MISS:          0
cpu0_ITLB LOAD      ACCESS:    1070901  HIT:    1070901  MISS:          0
cpu0_ITLB RFO       ACCESS:          0  HIT:          0  MISS:          0
cpu0_ITLB PREFETCH  ACCESS:          0  HIT:          0  MISS:          0
cpu0_ITLB WRITEBACK ACCESS:          0  HIT:          0  MISS:          0
cpu0_L1I TOTAL     ACCESS:      21874  HIT:      21874  MISS:          0
cpu0_L1I LOAD      ACCESS:      21874  HIT:      21874  MISS:          0
cpu0_L1I RFO       ACCESS:          0  HIT:          0  MISS:          0
cpu0_L1I PREFETCH  ACCESS:          0  HIT:          0  MISS:          0
cpu0_L1I WRITEBACK ACCESS:          0  HIT:          0  MISS:          0
cpu0_STLB TOTAL     ACCESS:    1019651  HIT:    1005637  MISS:      14014
cpu0_STLB LOAD      ACCESS:    1015990  HIT:    1002148  MISS:      13842
cpu0_STLB RFO       ACCESS:       3661  HIT:       3489  MISS:        172
cpu0_STLB PREFETCH  ACCESS:          0  HIT:          0  MISS:          0
cpu0_STLB WRITEBACK ACCESS:          0  HIT:          0  MISS:          0
cpu0_L1D TOTAL     ACCESS:    2657297  HIT:     879645  MISS:    1777652
cpu0_L1D LOAD      ACCESS:    2404828  HIT:     632383  MISS:    1772445
cpu0_L1D RFO       ACCESS:     238597  HIT:     234738  MISS:       3859
cpu0_L1D PREFETCH  ACCESS:          0  HIT:          0  MISS:          0
cpu0_L1D WRITEBACK ACCESS:          0  HIT:          0  MISS:          0
cpu0_L2C TOTAL     ACCESS:    1802037  HIT:     242668  MISS:    1559369
cpu0_L2C LOAD      ACCESS:    1772441  HIT:     217234  MISS:    1555207
cpu0_L2C RFO       ACCESS:       3859  HIT:        268  MISS:       3591
cpu0_L2C PREFETCH  ACCESS:          0  HIT:          0  MISS:          0
cpu0_L2C WRITEBACK ACCESS:      24389  HIT:      24389  MISS:          0
LLC TOTAL     ACCESS:    1581627  HIT:     573835  MISS:    1007792
LLC LOAD      ACCESS:    1555207  HIT:     548142  MISS:    1007065
LLC RFO       ACCESS:       3591  HIT:       3128  MISS:        463
LLC PREFETCH  ACCESS:          0  HIT:          0  MISS:          0
LLC WRITEBACK ACCESS:      22258  HIT:      22164  MISS:         94
Heartbeat CPU 0 instructions: 64000001 cycles: 94701236 heartbeat IPC: 0.180262 cumulative IPC: 0.180933 (Simulation time: 1 hr 10 min 59 sec) 

Region of Interest Statistics
cpu0_DTLB TOTAL     ACCESS:    2875473  HIT:    1685727  MISS:    1189746
cpu0_DTLB LOAD      ACCESS:    2722231  HIT:    1536855  MISS:    1185376
cpu0_DTLB RFO       ACCESS:     153242  HIT:     148872  MISS:       4370
cpu0_DTLB PREFETCH  ACCESS:          0  HIT:          0  MISS:          0
cpu0_DTLB WRITEBACK ACCESS:          0  HIT:          0  MISS:          0
cpu0_ITLB TOTAL     ACCESS:    1246362  HIT:    1246362  MISS:          0
cpu0_ITLB LOAD      ACCESS:    1246362  HIT:    1246362  MISS:          0
cpu0_ITLB RFO       ACCESS:          0  HIT:          0  MISS:          0
cpu0_ITLB PREFETCH  ACCESS:          0  HIT:          0  MISS:          0
cpu0_ITLB WRITEBACK ACCESS:          0  HIT:          0  MISS:          0
cpu0_L1I TOTAL     ACCESS:      26741  HIT:      26741  MISS:          0
cpu0_L1I LOAD      ACCESS:      26741  HIT:      26741  MISS:          0
cpu0_L1I RFO       ACCESS:          0  HIT:          0  MISS:          0
cpu0_L1I PREFETCH  ACCESS:          0  HIT:          0  MISS:          0
cpu0_L1I WRITEBACK ACCESS:          0  HIT:          0  MISS:          0
cpu0_STLB TOTAL     ACCESS:    1189746  HIT:    1173489  MISS:      16257
cpu0_STLB LOAD      ACCESS:    1185376  HIT:    1169321  MISS:      16055
cpu0_STLB RFO       ACCESS:       4370  HIT:       4168  MISS:        202
cpu0_STLB PREFETCH  ACCESS:          0  HIT:          0  MISS:          0
cpu0_STLB WRITEBACK ACCESS:          0  HIT:          0  MISS:          0
cpu0_L1D TOTAL     ACCESS:    3101978  HIT:    1029571  MISS:    2072407
cpu0_L1D LOAD      ACCESS:    2804239  HIT:     737942  MISS:    2066297
cpu0_L1D RFO       ACCESS:     281629  HIT:     277074  MISS:       4555
cpu0_L1D PREFETCH  ACCESS:          0  HIT:          0  MISS:          0
cpu0_L1D WRITEBACK ACCESS:          0  HIT:          0  MISS:          0
cpu0_L2C TOTAL     ACCESS:    2101009  HIT:     282590  MISS:    1818419
cpu0_L2C LOAD      ACCESS:    2066293  HIT:     252757  MISS:    1813536
cpu0_L2C RFO       ACCESS:       4555  HIT:        295  MISS:       4260
cpu0_L2C PREFETCH  ACCESS:          0  HIT:          0  MISS:          0
cpu0_L2C WRITEBACK ACCESS:      28606  HIT:      28606  MISS:          0
LLC TOTAL     ACCESS:    1844489  HIT:     669361  MISS:    1175128
LLC LOAD      ACCESS:    1813535  HIT:     639248  MISS:    1174287
LLC RFO       ACCESS:       4260  HIT:       3724  MISS:        536
LLC PREFETCH  ACCESS:          0  HIT:          0  MISS:          0
LLC WRITEBACK ACCESS:      26071  HIT:      25959  MISS:        112
Heartbeat CPU 0 instructions: 66000000 cycles: 106050842 heartbeat IPC: 0.176217 cumulative IPC: 0.18033 (Simulation time: 1 hr 15 min 29 sec) 

Region of Interest Statistics
cpu0_DTLB TOTAL     ACCESS:    3284443  HIT:    1920512  MISS:    1363931
cpu0_DTLB LOAD      ACCESS:    3111122  HIT:    1752314  MISS:    1358808
cpu0_DTLB RFO       ACCESS:     173321  HIT:     168198  MISS:       5123
cpu0_DTLB PREFETCH  ACCESS:          0  HIT:          0  MISS:          0
cpu0_DTLB WRITEBACK ACCESS:          0  HIT:          0  MISS:          0
cpu0_ITLB TOTAL     ACCESS:    1420970  HIT:    1420970  MISS:          0
cpu0_ITLB LOAD      ACCESS:    1420970  HIT:    1420970  MISS:          0
cpu0_ITLB RFO       ACCESS:          0  HIT:          0  MISS:          0
cpu0_ITLB PREFETCH  ACCESS:          0  HIT:          0  MISS:          0
cpu0_ITLB WRITEBACK ACCESS:          0  HIT:          0  MISS:          0
cpu0_L1I TOTAL     ACCESS:      31726  HIT:      31726  MISS:          0
cpu0_L1I LOAD      ACCESS:      31726  HIT:      31726  MISS:          0
cpu0_L1I RFO       ACCESS:          0  HIT:          0  MISS:          0
cpu0_L1I PREFETCH  ACCESS:          0  HIT:          0  MISS:          0
cpu0_L1I WRITEBACK ACCESS:          0  HIT:          0  MISS:          0
cpu0_STLB TOTAL     ACCESS:    1363931  HIT:    1345378  MISS:      18553
cpu0_STLB LOAD      ACCESS:    1358808  HIT:    1340480  MISS:      18328
cpu0_STLB RFO       ACCESS:       5123  HIT:       4898  MISS:        225
cpu0_STLB PREFETCH  ACCESS:          0  HIT:          0  MISS:          0
cpu0_STLB WRITEBACK ACCESS:          0  HIT:          0  MISS:          0
cpu0_L1D TOTAL     ACCESS:    3540419  HIT:    1165531  MISS:    2374888
cpu0_L1D LOAD      ACCESS:    3203804  HIT:     835838  MISS:    2367966
cpu0_L1D RFO       ACCESS:     318221  HIT:     313073  MISS:       5148
cpu0_L1D PREFETCH  ACCESS:          0  HIT:          0  MISS:          0
cpu0_L1D WRITEBACK ACCESS:          0  HIT:          0  MISS:          0
cpu0_L2C TOTAL     ACCESS:    2407555  HIT:     323450  MISS:    2084105
cpu0_L2C LOAD      ACCESS:    2367960  HIT:     289375  MISS:    2078585
cpu0_L2C RFO       ACCESS:       5148  HIT:        323  MISS:       4825
cpu0_L2C PREFETCH  ACCESS:          0  HIT:          0  MISS:          0
cpu0_L2C WRITEBACK ACCESS:      32673  HIT:      32673  MISS:          0
LLC TOTAL     ACCESS:    2113829  HIT:     766318  MISS:    1347511
LLC LOAD      ACCESS:    2078584  HIT:     732045  MISS:    1346539
LLC RFO       ACCESS:       4825  HIT:       4207  MISS:        618
LLC PREFETCH  ACCESS:          0  HIT:          0  MISS:          0
LLC WRITEBACK ACCESS:      29725  HIT:      29590  MISS:        135
Heartbeat CPU 0 instructions: 68000002 cycles: 116901227 heartbeat IPC: 0.184325 cumulative IPC: 0.180765 (Simulation time: 1 hr 19 min 46 sec) 

Region of Interest Statistics
cpu0_DTLB TOTAL     ACCESS:    3694143  HIT:    2162701  MISS:    1531442
cpu0_DTLB LOAD      ACCESS:    3496751  HIT:    1970988  MISS:    1525763
cpu0_DTLB RFO       ACCESS:     197392  HIT:     191713  MISS:       5679
cpu0_DTLB PREFETCH  ACCESS:          0  HIT:          0  MISS:          0
cpu0_DTLB WRITEBACK ACCESS:          0  HIT:          0  MISS:          0
cpu0_ITLB TOTAL     ACCESS:    1600238  HIT:    1600238  MISS:          0
cpu0_ITLB LOAD      ACCESS:    1600238  HIT:    1600238  MISS:          0
cpu0_ITLB RFO       ACCESS:          0  HIT:          0  MISS:          0
cpu0_ITLB PREFETCH  ACCESS:          0  HIT:          0  MISS:          0
cpu0_ITLB WRITEBACK ACCESS:          0  HIT:          0  MISS:          0
cpu0_L1I TOTAL     ACCESS:      36228  HIT:      36228  MISS:          0
cpu0_L1I LOAD      ACCESS:      36228  HIT:      36228  MISS:          0
cpu0_L1I RFO       ACCESS:          0  HIT:          0  MISS:          0
cpu0_L1I PREFETCH  ACCESS:          0  HIT:          0  MISS:          0
cpu0_L1I WRITEBACK ACCESS:          0  HIT:          0  MISS:          0
cpu0_STLB TOTAL     ACCESS:    1531442  HIT:    1510632  MISS:      20810
cpu0_STLB LOAD      ACCESS:    1525763  HIT:    1505212  MISS:      20551
cpu0_STLB RFO       ACCESS:       5679  HIT:       5420  MISS:        259
cpu0_STLB PREFETCH  ACCESS:          0  HIT:          0  MISS:          0
cpu0_STLB WRITEBACK ACCESS:          0  HIT:          0  MISS:          0
cpu0_L1D TOTAL     ACCESS:    3988113  HIT:    1323814  MISS:    2664299
cpu0_L1D LOAD      ACCESS:    3602993  HIT:     946628  MISS:    2656365
cpu0_L1D RFO       ACCESS:     364482  HIT:     358560  MISS:       5922
cpu0_L1D PREFETCH  ACCESS:          0  HIT:          0  MISS:          0
cpu0_L1D WRITEBACK ACCESS:          0  HIT:          0  MISS:          0
cpu0_L2C TOTAL     ACCESS:    2701101  HIT:     362959  MISS:    2338142
cpu0_L2C LOAD      ACCESS:    2656359  HIT:     324530  MISS:    2331829
cpu0_L2C RFO       ACCESS:       5922  HIT:        398  MISS:       5524
cpu0_L2C PREFETCH  ACCESS:          0  HIT:          0  MISS:          0
cpu0_L2C WRITEBACK ACCESS:      36808  HIT:      36808  MISS:          0
LLC TOTAL     ACCESS:    2371439  HIT:     860109  MISS:    1511330
LLC LOAD      ACCESS:    2331828  HIT:     821585  MISS:    1510243
LLC RFO       ACCESS:       5524  HIT:       4830  MISS:        694
LLC PREFETCH  ACCESS:          0  HIT:          0  MISS:          0
LLC WRITEBACK ACCESS:      33298  HIT:      33142  MISS:        156
Heartbeat CPU 0 instructions: 70000001 cycles: 127761163 heartbeat IPC: 0.184163 cumulative IPC: 0.181099 (Simulation time: 1 hr 24 min 1 sec) 

Region of Interest Statistics
cpu0_DTLB TOTAL     ACCESS:    4108312  HIT:    2409546  MISS:    1698766
cpu0_DTLB LOAD      ACCESS:    3886055  HIT:    2194016  MISS:    1692039
cpu0_DTLB RFO       ACCESS:     222257  HIT:     215530  MISS:       6727
cpu0_DTLB PREFETCH  ACCESS:          0  HIT:          0  MISS:          0
cpu0_DTLB WRITEBACK ACCESS:          0  HIT:          0  MISS:          0
cpu0_ITLB TOTAL     ACCESS:    1778708  HIT:    1778708  MISS:          0
cpu0_ITLB LOAD      ACCESS:    1778708  HIT:    1778708  MISS:          0
cpu0_ITLB RFO       ACCESS:          0  HIT:          0  MISS:          0
cpu0_ITLB PREFETCH  ACCESS:          0  HIT:          0  MISS:          0
cpu0_ITLB WRITEBACK ACCESS:          0  HIT:          0  MISS:          0
cpu0_L1I TOTAL     ACCESS:      41087  HIT:      41087  MISS:          0
cpu0_L1I LOAD      ACCESS:      41087  HIT:      41087  MISS:          0
cpu0_L1I RFO       ACCESS:          0  HIT:          0  MISS:          0
cpu0_L1I PREFETCH  ACCESS:          0  HIT:          0  MISS:          0
cpu0_L1I WRITEBACK ACCESS:          0  HIT:          0  MISS:          0
cpu0_STLB TOTAL     ACCESS:    1698766  HIT:    1675592  MISS:      23174
cpu0_STLB LOAD      ACCESS:    1692039  HIT:    1669153  MISS:      22886
cpu0_STLB RFO       ACCESS:       6727  HIT:       6439  MISS:        288
cpu0_STLB PREFETCH  ACCESS:          0  HIT:          0  MISS:          0
cpu0_STLB WRITEBACK ACCESS:          0  HIT:          0  MISS:          0
cpu0_L1D TOTAL     ACCESS:    4440271  HIT:    1486471  MISS:    2953800
cpu0_L1D LOAD      ACCESS:    4007032  HIT:    1062223  MISS:    2944809
cpu0_L1D RFO       ACCESS:     410246  HIT:     403525  MISS:       6721
cpu0_L1D PREFETCH  ACCESS:          0  HIT:          0  MISS:          0
cpu0_L1D WRITEBACK ACCESS:          0  HIT:          0  MISS:          0
cpu0_L2C TOTAL     ACCESS:    2995594  HIT:     403589  MISS:    2592005
cpu0_L2C LOAD      ACCESS:    2944803  HIT:     359934  MISS:    2584869
cpu0_L2C RFO       ACCESS:       6721  HIT:        468  MISS:       6253
cpu0_L2C PREFETCH  ACCESS:          0  HIT:          0  MISS:          0
cpu0_L2C WRITEBACK ACCESS:      41800  HIT:      41800  MISS:          0
LLC TOTAL     ACCESS:    2629728  HIT:     955925  MISS:    1673803
LLC LOAD      ACCESS:    2584868  HIT:     912267  MISS:    1672601
LLC RFO       ACCESS:       6253  HIT:       5496  MISS:        757
LLC PREFETCH  ACCESS:          0  HIT:          0  MISS:          0
LLC WRITEBACK ACCESS:      37724  HIT:      37535  MISS:        189
Heartbeat CPU 0 instructions: 72000001 cycles: 138575056 heartbeat IPC: 0.184947 cumulative IPC: 0.181442 (Simulation time: 1 hr 28 min 17 sec) 

Region of Interest Statistics
cpu0_DTLB TOTAL     ACCESS:    4520732  HIT:    2654770  MISS:    1865962
cpu0_DTLB LOAD      ACCESS:    4275060  HIT:    2416450  MISS:    1858610
cpu0_DTLB RFO       ACCESS:     245672  HIT:     238320  MISS:       7352
cpu0_DTLB PREFETCH  ACCESS:          0  HIT:          0  MISS:          0
cpu0_DTLB WRITEBACK ACCESS:          0  HIT:          0  MISS:          0
cpu0_ITLB TOTAL     ACCESS:    1955550  HIT:    1955550  MISS:          0
cpu0_ITLB LOAD      ACCESS:    1955550  HIT:    1955550  MISS:          0
cpu0_ITLB RFO       ACCESS:          0  HIT:          0  MISS:          0
cpu0_ITLB PREFETCH  ACCESS:          0  HIT:          0  MISS:          0
cpu0_ITLB WRITEBACK ACCESS:          0  HIT:          0  MISS:          0
cpu0_L1I TOTAL     ACCESS:      45607  HIT:      45607  MISS:          0
cpu0_L1I LOAD      ACCESS:      45607  HIT:      45607  MISS:          0
cpu0_L1I RFO       ACCESS:          0  HIT:          0  MISS:          0
cpu0_L1I PREFETCH  ACCESS:          0  HIT:          0  MISS:          0
cpu0_L1I WRITEBACK ACCESS:          0  HIT:          0  MISS:          0
cpu0_STLB TOTAL     ACCESS:    1865962  HIT:    1840461  MISS:      25501
cpu0_STLB LOAD      ACCESS:    1858610  HIT:    1833423  MISS:      25187
cpu0_STLB RFO       ACCESS:       7352  HIT:       7038  MISS:        314
cpu0_STLB PREFETCH  ACCESS:          0  HIT:          0  MISS:          0
cpu0_STLB WRITEBACK ACCESS:          0  HIT:          0  MISS:          0
cpu0_L1D TOTAL     ACCESS:    4887276  HIT:    1642835  MISS:    3244441
cpu0_L1D LOAD      ACCESS:    4407922  HIT:    1173423  MISS:    3234499
cpu0_L1D RFO       ACCESS:     454040  HIT:     446577  MISS:       7463
cpu0_L1D PREFETCH  ACCESS:          0  HIT:          0  MISS:          0
cpu0_L1D WRITEBACK ACCESS:          0  HIT:          0  MISS:          0
cpu0_L2C TOTAL     ACCESS:    3290318  HIT:     444467  MISS:    2845851
cpu0_L2C LOAD      ACCESS:    3234493  HIT:     396533  MISS:    2837960
cpu0_L2C RFO       ACCESS:       7463  HIT:        532  MISS:       6931
cpu0_L2C PREFETCH  ACCESS:          0  HIT:          0  MISS:          0
cpu0_L2C WRITEBACK ACCESS:      45883  HIT:      45883  MISS:          0
LLC TOTAL     ACCESS:    2887165  HIT:    1049457  MISS:    1837708
LLC LOAD      ACCESS:    2837958  HIT:    1001558  MISS:    1836400
LLC RFO       ACCESS:       6931  HIT:       6106  MISS:        825
LLC PREFETCH  ACCESS:          0  HIT:          0  MISS:          0
LLC WRITEBACK ACCESS:      41316  HIT:      41107  MISS:        209
Heartbeat CPU 0 instructions: 74000000 cycles: 149452298 heartbeat IPC: 0.18387 cumulative IPC: 0.181642 (Simulation time: 1 hr 32 min 33 sec) 

Region of Interest Statistics
cpu0_DTLB TOTAL     ACCESS:    4931711  HIT:    2900408  MISS:    2031303
cpu0_DTLB LOAD      ACCESS:    4660610  HIT:    2637219  MISS:    2023391
cpu0_DTLB RFO       ACCESS:     271101  HIT:     263189  MISS:       7912
cpu0_DTLB PREFETCH  ACCESS:          0  HIT:          0  MISS:          0
cpu0_DTLB WRITEBACK ACCESS:          0  HIT:          0  MISS:          0
cpu0_ITLB TOTAL     ACCESS:    2133993  HIT:    2133993  MISS:          0
cpu0_ITLB LOAD      ACCESS:    2133993  HIT:    2133993  MISS:          0
cpu0_ITLB RFO       ACCESS:          0  HIT:          0  MISS:          0
cpu0_ITLB PREFETCH  ACCESS:          0  HIT:          0  MISS:          0
cpu0_ITLB WRITEBACK ACCESS:          0  HIT:          0  MISS:          0
cpu0_L1I TOTAL     ACCESS:      49468  HIT:      49468  MISS:          0
cpu0_L1I LOAD      ACCESS:      49468  HIT:      49468  MISS:          0
cpu0_L1I RFO       ACCESS:          0  HIT:          0  MISS:          0
cpu0_L1I PREFETCH  ACCESS:          0  HIT:          0  MISS:          0
cpu0_L1I WRITEBACK ACCESS:          0  HIT:          0  MISS:          0
cpu0_STLB TOTAL     ACCESS:    2031303  HIT:    2003390  MISS:      27913
cpu0_STLB LOAD      ACCESS:    2023391  HIT:    1995826  MISS:      27565
cpu0_STLB RFO       ACCESS:       7912  HIT:       7564  MISS:        348
cpu0_STLB PREFETCH  ACCESS:          0  HIT:          0  MISS:          0
cpu0_STLB WRITEBACK ACCESS:          0  HIT:          0  MISS:          0
cpu0_L1D TOTAL     ACCESS:    5337351  HIT:    1805545  MISS:    3531806
cpu0_L1D LOAD      ACCESS:    4807296  HIT:    1286474  MISS:    3520822
cpu0_L1D RFO       ACCESS:     502344  HIT:     494047  MISS:       8297
cpu0_L1D PREFETCH  ACCESS:          0  HIT:          0  MISS:          0
cpu0_L1D WRITEBACK ACCESS:          0  HIT:          0  MISS:          0
cpu0_L2C TOTAL     ACCESS:    3582117  HIT:     484332  MISS:    3097785
cpu0_L2C LOAD      ACCESS:    3520816  HIT:     431728  MISS:    3089088
cpu0_L2C RFO       ACCESS:       8297  HIT:        621  MISS:       7676
cpu0_L2C PREFETCH  ACCESS:          0  HIT:          0  MISS:          0
cpu0_L2C WRITEBACK ACCESS:      50317  HIT:      50317  MISS:          0
LLC TOTAL     ACCESS:    3143000  HIT:    1142947  MISS:    2000053
LLC LOAD      ACCESS:    3089086  HIT:    1090474  MISS:    1998612
LLC RFO       ACCESS:       7676  HIT:       6766  MISS:        910
LLC PREFETCH  ACCESS:          0  HIT:          0  MISS:          0
LLC WRITEBACK ACCESS:      45217  HIT:      44977  MISS:        240
Heartbeat CPU 0 instructions: 76000001 cycles: 160531889 heartbeat IPC: 0.180512 cumulative IPC: 0.181555 (Simulation time: 1 hr 36 min 55 sec) 

Region of Interest Statistics
cpu0_DTLB TOTAL     ACCESS:    5345181  HIT:    3144233  MISS:    2200948
cpu0_DTLB LOAD      ACCESS:    5051097  HIT:    2858763  MISS:    2192334
cpu0_DTLB RFO       ACCESS:     294084  HIT:     285470  MISS:       8614
cpu0_DTLB PREFETCH  ACCESS:          0  HIT:          0  MISS:          0
cpu0_DTLB WRITEBACK ACCESS:          0  HIT:          0  MISS:          0
cpu0_ITLB TOTAL     ACCESS:    2309016  HIT:    2309016  MISS:          0
cpu0_ITLB LOAD      ACCESS:    2309016  HIT:    2309016  MISS:          0
cpu0_ITLB RFO       ACCESS:          0  HIT:          0  MISS:          0
cpu0_ITLB PREFETCH  ACCESS:          0  HIT:          0  MISS:          0
cpu0_ITLB WRITEBACK ACCESS:          0  HIT:          0  MISS:          0
cpu0_L1I TOTAL     ACCESS:      55350  HIT:      55350  MISS:          0
cpu0_L1I LOAD      ACCESS:      55350  HIT:      55350  MISS:          0
cpu0_L1I RFO       ACCESS:          0  HIT:          0  MISS:          0
cpu0_L1I PREFETCH  ACCESS:          0  HIT:          0  MISS:          0
cpu0_L1I WRITEBACK ACCESS:          0  HIT:          0  MISS:          0
cpu0_STLB TOTAL     ACCESS:    2200948  HIT:    2170810  MISS:      30138
cpu0_STLB LOAD      ACCESS:    2192334  HIT:    2162582  MISS:      29752
cpu0_STLB RFO       ACCESS:       8614  HIT:       8228  MISS:        386
cpu0_STLB PREFETCH  ACCESS:          0  HIT:          0  MISS:          0
cpu0_STLB WRITEBACK ACCESS:          0  HIT:          0  MISS:          0
cpu0_L1D TOTAL     ACCESS:    5783777  HIT:    1956996  MISS:    3826781
cpu0_L1D LOAD      ACCESS:    5210301  HIT:    1395454  MISS:    3814847
cpu0_L1D RFO       ACCESS:     543556  HIT:     534516  MISS:       9040
cpu0_L1D PREFETCH  ACCESS:          0  HIT:          0  MISS:          0
cpu0_L1D WRITEBACK ACCESS:          0  HIT:          0  MISS:          0
cpu0_L2C TOTAL     ACCESS:    3881779  HIT:     525673  MISS:    3356106
cpu0_L2C LOAD      ACCESS:    3814841  HIT:     468191  MISS:    3346650
cpu0_L2C RFO       ACCESS:       9040  HIT:        680  MISS:       8360
cpu0_L2C PREFETCH  ACCESS:          0  HIT:          0  MISS:          0
cpu0_L2C WRITEBACK ACCESS:      55004  HIT:      55004  MISS:          0
LLC TOTAL     ACCESS:    3405339  HIT:    1238871  MISS:    2166468
LLC LOAD      ACCESS:    3346648  HIT:    1181753  MISS:    2164895
LLC RFO       ACCESS:       8360  HIT:       7377  MISS:        983
LLC PREFETCH  ACCESS:          0  HIT:          0  MISS:          0
LLC WRITEBACK ACCESS:      49235  HIT:      48961  MISS:        274
Heartbeat CPU 0 instructions: 78000001 cycles: 171692866 heartbeat IPC: 0.179196 cumulative IPC: 0.181384 (Simulation time: 1 hr 41 min 20 sec) 

Region of Interest Statistics
cpu0_DTLB TOTAL     ACCESS:    5758859  HIT:    3387970  MISS:    2370889
cpu0_DTLB LOAD      ACCESS:    5442232  HIT:    3080707  MISS:    2361525
cpu0_DTLB RFO       ACCESS:     316627  HIT:     307263  MISS:       9364
cpu0_DTLB PREFETCH  ACCESS:          0  HIT:          0  MISS:          0
cpu0_DTLB WRITEBACK ACCESS:          0  HIT:          0  MISS:          0
cpu0_ITLB TOTAL     ACCESS:    2485185  HIT:    2485185  MISS:          0
cpu0_ITLB LOAD      ACCESS:    2485185  HIT:    2485185  MISS:          0
cpu0_ITLB RFO       ACCESS:          0  HIT:          0  MISS:          0
cpu0_ITLB PREFETCH  ACCESS:          0  HIT:          0  MISS:          0
cpu0_ITLB WRITEBACK ACCESS:          0  HIT:          0  MISS:          0
cpu0_L1I TOTAL     ACCESS:      62199  HIT:      62199  MISS:          0
cpu0_L1I LOAD      ACCESS:      62199  HIT:      62199  MISS:          0
cpu0_L1I RFO       ACCESS:          0  HIT:          0  MISS:          0
cpu0_L1I PREFETCH  ACCESS:          0  HIT:          0  MISS:          0
cpu0_L1I WRITEBACK ACCESS:          0  HIT:          0  MISS:          0
cpu0_STLB TOTAL     ACCESS:    2370889  HIT:    2338542  MISS:      32347
cpu0_STLB LOAD      ACCESS:    2361525  HIT:    2329605  MISS:      31920
cpu0_STLB RFO       ACCESS:       9364  HIT:       8937  MISS:        427
cpu0_STLB PREFETCH  ACCESS:          0  HIT:          0  MISS:          0
cpu0_STLB WRITEBACK ACCESS:          0  HIT:          0  MISS:          0
cpu0_L1D TOTAL     ACCESS:    6230159  HIT:    2106542  MISS:    4123617
cpu0_L1D LOAD      ACCESS:    5616036  HIT:    1505279  MISS:    4110757
cpu0_L1D RFO       ACCESS:     581996  HIT:     572233  MISS:       9763
cpu0_L1D PREFETCH  ACCESS:          0  HIT:          0  MISS:          0
cpu0_L1D WRITEBACK ACCESS:          0  HIT:          0  MISS:          0
cpu0_L2C TOTAL     ACCESS:    4183706  HIT:     567298  MISS:    3616408
cpu0_L2C LOAD      ACCESS:    4110750  HIT:     504517  MISS:    3606233
cpu0_L2C RFO       ACCESS:       9763  HIT:        752  MISS:       9011
cpu0_L2C PREFETCH  ACCESS:          0  HIT:          0  MISS:          0
cpu0_L2C WRITEBACK ACCESS:      60096  HIT:      60096  MISS:          0
LLC TOTAL     ACCESS:    3670278  HIT:    1336564  MISS:    2333714
LLC LOAD      ACCESS:    3606231  HIT:    1274232  MISS:    2331999
LLC RFO       ACCESS:       9011  HIT:       7944  MISS:       1067
LLC PREFETCH  ACCESS:          0  HIT:          0  MISS:          0
LLC WRITEBACK ACCESS:      53872  HIT:      53564  MISS:        308
Heartbeat CPU 0 instructions: 80000002 cycles: 182892392 heartbeat IPC: 0.178579 cumulative IPC: 0.181195 (Simulation time: 1 hr 45 min 40 sec) 

Region of Interest Statistics
cpu0_DTLB TOTAL     ACCESS:    6175481  HIT:    3633737  MISS:    2541744
cpu0_DTLB LOAD      ACCESS:    5836310  HIT:    3305206  MISS:    2531104
cpu0_DTLB RFO       ACCESS:     339171  HIT:     328531  MISS:      10640
cpu0_DTLB PREFETCH  ACCESS:          0  HIT:          0  MISS:          0
cpu0_DTLB WRITEBACK ACCESS:          0  HIT:          0  MISS:          0
cpu0_ITLB TOTAL     ACCESS:    2660977  HIT:    2660977  MISS:          0
cpu0_ITLB LOAD      ACCESS:    2660977  HIT:    2660977  MISS:          0
cpu0_ITLB RFO       ACCESS:          0  HIT:          0  MISS:          0
cpu0_ITLB PREFETCH  ACCESS:          0  HIT:          0  MISS:          0
cpu0_ITLB WRITEBACK ACCESS:          0  HIT:          0  MISS:          0
cpu0_L1I TOTAL     ACCESS:      69438  HIT:      69438  MISS:          0
cpu0_L1I LOAD      ACCESS:      69438  HIT:      69438  MISS:          0
cpu0_L1I RFO       ACCESS:          0  HIT:          0  MISS:          0
cpu0_L1I PREFETCH  ACCESS:          0  HIT:          0  MISS:          0
cpu0_L1I WRITEBACK ACCESS:          0  HIT:          0  MISS:          0
cpu0_STLB TOTAL     ACCESS:    2541744  HIT:    2507253  MISS:      34491
cpu0_STLB LOAD      ACCESS:    2531104  HIT:    2497084  MISS:      34020
cpu0_STLB RFO       ACCESS:      10640  HIT:      10169  MISS:        471
cpu0_STLB PREFETCH  ACCESS:          0  HIT:          0  MISS:          0
cpu0_STLB WRITEBACK ACCESS:          0  HIT:          0  MISS:          0
cpu0_L1D TOTAL     ACCESS:    6680030  HIT:    2258078  MISS:    4421952
cpu0_L1D LOAD      ACCESS:    6026307  HIT:    1618080  MISS:    4408227
cpu0_L1D RFO       ACCESS:     619457  HIT:     609024  MISS:      10433
cpu0_L1D PREFETCH  ACCESS:          0  HIT:          0  MISS:          0
cpu0_L1D WRITEBACK ACCESS:          0  HIT:          0  MISS:          0
cpu0_L2C TOTAL     ACCESS:    4487778  HIT:     610014  MISS:    3877764
cpu0_L2C LOAD      ACCESS:    4408220  HIT:     541291  MISS:    3866929
cpu0_L2C RFO       ACCESS:      10433  HIT:        832  MISS:       9601
cpu0_L2C PREFETCH  ACCESS:          0  HIT:          0  MISS:          0
cpu0_L2C WRITEBACK ACCESS:      65833  HIT:      65833  MISS:          0
LLC TOTAL     ACCESS:    3936575  HIT:    1436466  MISS:    2500109
LLC LOAD      ACCESS:    3866927  HIT:    1368646  MISS:    2498281
LLC RFO       ACCESS:       9601  HIT:       8462  MISS:       1139
LLC PREFETCH  ACCESS:          0  HIT:          0  MISS:          0
LLC WRITEBACK ACCESS:      58813  HIT:      58491  MISS:        322
Heartbeat CPU 0 instructions: 82000004 cycles: 194108879 heartbeat IPC: 0.178309 cumulative IPC: 0.181011 (Simulation time: 1 hr 50 min 5 sec) 

Region of Interest Statistics
cpu0_DTLB TOTAL     ACCESS:    6588109  HIT:    3873344  MISS:    2714765
cpu0_DTLB LOAD      ACCESS:    6227960  HIT:    3524821  MISS:    2703139
cpu0_DTLB RFO       ACCESS:     360149  HIT:     348523  MISS:      11626
cpu0_DTLB PREFETCH  ACCESS:          0  HIT:          0  MISS:          0
cpu0_DTLB WRITEBACK ACCESS:          0  HIT:          0  MISS:          0
cpu0_ITLB TOTAL     ACCESS:    2836417  HIT:    2836417  MISS:          0
cpu0_ITLB LOAD      ACCESS:    2836417  HIT:    2836417  MISS:          0
cpu0_ITLB RFO       ACCESS:          0  HIT:          0  MISS:          0
cpu0_ITLB PREFETCH  ACCESS:          0  HIT:          0  MISS:          0
cpu0_ITLB WRITEBACK ACCESS:          0  HIT:          0  MISS:          0
cpu0_L1I TOTAL     ACCESS:      76564  HIT:      76564  MISS:          0
cpu0_L1I LOAD      ACCESS:      76564  HIT:      76564  MISS:          0
cpu0_L1I RFO       ACCESS:          0  HIT:          0  MISS:          0
cpu0_L1I PREFETCH  ACCESS:          0  HIT:          0  MISS:          0
cpu0_L1I WRITEBACK ACCESS:          0  HIT:          0  MISS:          0
cpu0_STLB TOTAL     ACCESS:    2714765  HIT:    2678223  MISS:      36542
cpu0_STLB LOAD      ACCESS:    2703139  HIT:    2667094  MISS:      36045
cpu0_STLB RFO       ACCESS:      11626  HIT:      11129  MISS:        497
cpu0_STLB PREFETCH  ACCESS:          0  HIT:          0  MISS:          0
cpu0_STLB WRITEBACK ACCESS:          0  HIT:          0  MISS:          0
cpu0_L1D TOTAL     ACCESS:    7123663  HIT:    2400650  MISS:    4723013
cpu0_L1D LOAD      ACCESS:    6432439  HIT:    1723935  MISS:    4708504
cpu0_L1D RFO       ACCESS:     654916  HIT:     643885  MISS:      11031
cpu0_L1D PREFETCH  ACCESS:          0  HIT:          0  MISS:          0
cpu0_L1D WRITEBACK ACCESS:          0  HIT:          0  MISS:          0
cpu0_L2C TOTAL     ACCESS:    4793905  HIT:     653116  MISS:    4140789
cpu0_L2C LOAD      ACCESS:    4708497  HIT:     579164  MISS:    4129333
cpu0_L2C RFO       ACCESS:      11031  HIT:        891  MISS:      10140
cpu0_L2C PREFETCH  ACCESS:          0  HIT:          0  MISS:          0
cpu0_L2C WRITEBACK ACCESS:      70899  HIT:      70899  MISS:          0
LLC TOTAL     ACCESS:    4204133  HIT:    1535552  MISS:    2668581
LLC LOAD      ACCESS:    4129331  HIT:    1462694  MISS:    2666637
LLC RFO       ACCESS:      10140  HIT:       8930  MISS:       1210
LLC PREFETCH  ACCESS:          0  HIT:          0  MISS:          0
LLC WRITEBACK ACCESS:      63346  HIT:      63004  MISS:        342
Heartbeat CPU 0 instructions: 84000001 cycles: 205849003 heartbeat IPC: 0.170356 cumulative IPC: 0.180348 (Simulation time: 1 hr 54 min 44 sec) 

Region of Interest Statistics
cpu0_DTLB TOTAL     ACCESS:    6996567  HIT:    4100888  MISS:    2895679
cpu0_DTLB LOAD      ACCESS:    6619317  HIT:    3735976  MISS:    2883341
cpu0_DTLB RFO       ACCESS:     377250  HIT:     364912  MISS:      12338
cpu0_DTLB PREFETCH  ACCESS:          0  HIT:          0  MISS:          0
cpu0_DTLB WRITEBACK ACCESS:          0  HIT:          0  MISS:          0
cpu0_ITLB TOTAL     ACCESS:    3005611  HIT:    3005611  MISS:          0
cpu0_ITLB LOAD      ACCESS:    3005611  HIT:    3005611  MISS:          0
cpu0_ITLB RFO       ACCESS:          0  HIT:          0  MISS:          0
cpu0_ITLB PREFETCH  ACCESS:          0  HIT:          0  MISS:          0
cpu0_ITLB WRITEBACK ACCESS:          0  HIT:          0  MISS:          0
cpu0_L1I TOTAL     ACCESS:      83771  HIT:      83771  MISS:          0
cpu0_L1I LOAD      ACCESS:      83771  HIT:      83771  MISS:          0
cpu0_L1I RFO       ACCESS:          0  HIT:          0  MISS:          0
cpu0_L1I PREFETCH  ACCESS:          0  HIT:          0  MISS:          0
cpu0_L1I WRITEBACK ACCESS:          0  HIT:          0  MISS:          0
cpu0_STLB TOTAL     ACCESS:    2895679  HIT:    2856961  MISS:      38718
cpu0_STLB LOAD      ACCESS:    2883341  HIT:    2845143  MISS:      38198
cpu0_STLB RFO       ACCESS:      12338  HIT:      11818  MISS:        520
cpu0_STLB PREFETCH  ACCESS:          0  HIT:          0  MISS:          0
cpu0_STLB WRITEBACK ACCESS:          0  HIT:          0  MISS:          0
cpu0_L1D TOTAL     ACCESS:    7555659  HIT:    2516706  MISS:    5038953
cpu0_L1D LOAD      ACCESS:    6834034  HIT:    1810244  MISS:    5023790
cpu0_L1D RFO       ACCESS:     683147  HIT:     671635  MISS:      11512
cpu0_L1D PREFETCH  ACCESS:          0  HIT:          0  MISS:          0
cpu0_L1D WRITEBACK ACCESS:          0  HIT:          0  MISS:          0
cpu0_L2C TOTAL     ACCESS:    5114456  HIT:     696990  MISS:    4417466
cpu0_L2C LOAD      ACCESS:    5023782  HIT:     618287  MISS:    4405495
cpu0_L2C RFO       ACCESS:      11512  HIT:        928  MISS:      10584
cpu0_L2C PREFETCH  ACCESS:          0  HIT:          0  MISS:          0
cpu0_L2C WRITEBACK ACCESS:      75511  HIT:      75511  MISS:          0
LLC TOTAL     ACCESS:    4484880  HIT:    1637994  MISS:    2846886
LLC LOAD      ACCESS:    4405492  HIT:    1560647  MISS:    2844845
LLC RFO       ACCESS:      10584  HIT:       9311  MISS:       1273
LLC PREFETCH  ACCESS:          0  HIT:          0  MISS:          0
LLC WRITEBACK ACCESS:      67417  HIT:      67063  MISS:        354
Heartbeat CPU 0 instructions: 86000000 cycles: 218641439 heartbeat IPC: 0.156342 cumulative IPC: 0.178822 (Simulation time: 1 hr 59 min 25 sec) 

Region of Interest Statistics
cpu0_DTLB TOTAL     ACCESS:    7413588  HIT:    4354873  MISS:    3058715
cpu0_DTLB LOAD      ACCESS:    7005006  HIT:    3961771  MISS:    3043235
cpu0_DTLB RFO       ACCESS:     408582  HIT:     393102  MISS:      15480
cpu0_DTLB PREFETCH  ACCESS:          0  HIT:          0  MISS:          0
cpu0_DTLB WRITEBACK ACCESS:          0  HIT:          0  MISS:          0
cpu0_ITLB TOTAL     ACCESS:    3192074  HIT:    3192074  MISS:          0
cpu0_ITLB LOAD      ACCESS:    3192074  HIT:    3192074  MISS:          0
cpu0_ITLB RFO       ACCESS:          0  HIT:          0  MISS:          0
cpu0_ITLB PREFETCH  ACCESS:          0  HIT:          0  MISS:          0
cpu0_ITLB WRITEBACK ACCESS:          0  HIT:          0  MISS:          0
cpu0_L1I TOTAL     ACCESS:      86536  HIT:      86536  MISS:          0
cpu0_L1I LOAD      ACCESS:      86536  HIT:      86536  MISS:          0
cpu0_L1I RFO       ACCESS:          0  HIT:          0  MISS:          0
cpu0_L1I PREFETCH  ACCESS:          0  HIT:          0  MISS:          0
cpu0_L1I WRITEBACK ACCESS:          0  HIT:          0  MISS:          0
cpu0_STLB TOTAL     ACCESS:    3058715  HIT:    3017947  MISS:      40768
cpu0_STLB LOAD      ACCESS:    3043235  HIT:    3003019  MISS:      40216
cpu0_STLB RFO       ACCESS:      15480  HIT:      14928  MISS:        552
cpu0_STLB PREFETCH  ACCESS:          0  HIT:          0  MISS:          0
cpu0_STLB WRITEBACK ACCESS:          0  HIT:          0  MISS:          0
cpu0_L1D TOTAL     ACCESS:    8017323  HIT:    2687193  MISS:    5330130
cpu0_L1D LOAD      ACCESS:    7241482  HIT:    1927864  MISS:    5313618
cpu0_L1D RFO       ACCESS:     735316  HIT:     722650  MISS:      12666
cpu0_L1D PREFETCH  ACCESS:          0  HIT:          0  MISS:          0
cpu0_L1D WRITEBACK ACCESS:          0  HIT:          0  MISS:          0
cpu0_L2C TOTAL     ACCESS:    5417653  HIT:     745159  MISS:    4672494
cpu0_L2C LOAD      ACCESS:    5313609  HIT:     654082  MISS:    4659527
cpu0_L2C RFO       ACCESS:      12666  HIT:       1153  MISS:      11513
cpu0_L2C PREFETCH  ACCESS:          0  HIT:          0  MISS:          0
cpu0_L2C WRITEBACK ACCESS:      87532  HIT:      87532  MISS:          0
LLC TOTAL     ACCESS:    4751294  HIT:    1736116  MISS:    3015178
LLC LOAD      ACCESS:    4659524  HIT:    1647269  MISS:    3012255
LLC RFO       ACCESS:      11513  HIT:      10114  MISS:       1399
LLC PREFETCH  ACCESS:          0  HIT:          0  MISS:          0
LLC WRITEBACK ACCESS:      78803  HIT:      77719  MISS:       1084
Heartbeat CPU 0 instructions: 88000000 cycles: 231339667 heartbeat IPC: 0.157502 cumulative IPC: 0.177557 (Simulation time: 2 hr 4 min 18 sec) 

Region of Interest Statistics
cpu0_DTLB TOTAL     ACCESS:    7809807  HIT:    4561517  MISS:    3248290
cpu0_DTLB LOAD      ACCESS:    7391186  HIT:    4159080  MISS:    3232106
cpu0_DTLB RFO       ACCESS:     418621  HIT:     402437  MISS:      16184
cpu0_DTLB PREFETCH  ACCESS:          0  HIT:          0  MISS:          0
cpu0_DTLB WRITEBACK ACCESS:          0  HIT:          0  MISS:          0
cpu0_ITLB TOTAL     ACCESS:    3360294  HIT:    3360294  MISS:          0
cpu0_ITLB LOAD      ACCESS:    3360294  HIT:    3360294  MISS:          0
cpu0_ITLB RFO       ACCESS:          0  HIT:          0  MISS:          0
cpu0_ITLB PREFETCH  ACCESS:          0  HIT:          0  MISS:          0
cpu0_ITLB WRITEBACK ACCESS:          0  HIT:          0  MISS:          0
cpu0_L1I TOTAL     ACCESS:      88410  HIT:      88410  MISS:          0
cpu0_L1I LOAD      ACCESS:      88410  HIT:      88410  MISS:          0
cpu0_L1I RFO       ACCESS:          0  HIT:          0  MISS:          0
cpu0_L1I PREFETCH  ACCESS:          0  HIT:          0  MISS:          0
cpu0_L1I WRITEBACK ACCESS:          0  HIT:          0  MISS:          0
cpu0_STLB TOTAL     ACCESS:    3248290  HIT:    3205096  MISS:      43194
cpu0_STLB LOAD      ACCESS:    3232106  HIT:    3189510  MISS:      42596
cpu0_STLB RFO       ACCESS:      16184  HIT:      15586  MISS:        598
cpu0_STLB PREFETCH  ACCESS:          0  HIT:          0  MISS:          0
cpu0_STLB WRITEBACK ACCESS:          0  HIT:          0  MISS:          0
cpu0_L1D TOTAL     ACCESS:    8426453  HIT:    2761481  MISS:    5664972
cpu0_L1D LOAD      ACCESS:    7631029  HIT:    1983124  MISS:    5647905
cpu0_L1D RFO       ACCESS:     752479  HIT:     739404  MISS:      13075
cpu0_L1D PREFETCH  ACCESS:          0  HIT:          0  MISS:          0
cpu0_L1D WRITEBACK ACCESS:          0  HIT:          0  MISS:          0
cpu0_L2C TOTAL     ACCESS:    5755363  HIT:     790154  MISS:    4965209
cpu0_L2C LOAD      ACCESS:    5647896  HIT:     696069  MISS:    4951827
cpu0_L2C RFO       ACCESS:      13075  HIT:       1192  MISS:      11883
cpu0_L2C PREFETCH  ACCESS:          0  HIT:          0  MISS:          0
cpu0_L2C WRITEBACK ACCESS:      90400  HIT:      90400  MISS:          0
LLC TOTAL     ACCESS:    5046429  HIT:    1839714  MISS:    3206715
LLC LOAD      ACCESS:    4951824  HIT:    1748242  MISS:    3203582
LLC RFO       ACCESS:      11883  HIT:      10325  MISS:       1558
LLC PREFETCH  ACCESS:          0  HIT:          0  MISS:          0
LLC WRITEBACK ACCESS:      81223  HIT:      80110  MISS:       1113
Heartbeat CPU 0 instructions: 90000000 cycles: 242686235 heartbeat IPC: 0.176265 cumulative IPC: 0.177492 (Simulation time: 2 hr 8 min 42 sec) 

Region of Interest Statistics
cpu0_DTLB TOTAL     ACCESS:    8222671  HIT:    4805875  MISS:    3416796
cpu0_DTLB LOAD      ACCESS:    7780248  HIT:    4380623  MISS:    3399625
cpu0_DTLB RFO       ACCESS:     442423  HIT:     425252  MISS:      17171
cpu0_DTLB PREFETCH  ACCESS:          0  HIT:          0  MISS:          0
cpu0_DTLB WRITEBACK ACCESS:          0  HIT:          0  MISS:          0
cpu0_ITLB TOTAL     ACCESS:    3540176  HIT:    3540176  MISS:          0
cpu0_ITLB LOAD      ACCESS:    3540176  HIT:    3540176  MISS:          0
cpu0_ITLB RFO       ACCESS:          0  HIT:          0  MISS:          0
cpu0_ITLB PREFETCH  ACCESS:          0  HIT:          0  MISS:          0
cpu0_ITLB WRITEBACK ACCESS:          0  HIT:          0  MISS:          0
cpu0_L1I TOTAL     ACCESS:      93072  HIT:      93072  MISS:          0
cpu0_L1I LOAD      ACCESS:      93072  HIT:      93072  MISS:          0
cpu0_L1I RFO       ACCESS:          0  HIT:          0  MISS:          0
cpu0_L1I PREFETCH  ACCESS:          0  HIT:          0  MISS:          0
cpu0_L1I WRITEBACK ACCESS:          0  HIT:          0  MISS:          0
cpu0_STLB TOTAL     ACCESS:    3416796  HIT:    3371058  MISS:      45738
cpu0_STLB LOAD      ACCESS:    3399625  HIT:    3354512  MISS:      45113
cpu0_STLB RFO       ACCESS:      17171  HIT:      16546  MISS:        625
cpu0_STLB PREFETCH  ACCESS:          0  HIT:          0  MISS:          0
cpu0_STLB WRITEBACK ACCESS:          0  HIT:          0  MISS:          0
cpu0_L1D TOTAL     ACCESS:    8876680  HIT:    2918052  MISS:    5958628
cpu0_L1D LOAD      ACCESS:    8036003  HIT:    2095433  MISS:    5940570
cpu0_L1D RFO       ACCESS:     795213  HIT:     781344  MISS:      13869
cpu0_L1D PREFETCH  ACCESS:          0  HIT:          0  MISS:          0
cpu0_L1D WRITEBACK ACCESS:          0  HIT:          0  MISS:          0
cpu0_L2C TOTAL     ACCESS:    6054321  HIT:     831403  MISS:    5222918
cpu0_L2C LOAD      ACCESS:    5940561  HIT:     731806  MISS:    5208755
cpu0_L2C RFO       ACCESS:      13869  HIT:       1271  MISS:      12598
cpu0_L2C PREFETCH  ACCESS:          0  HIT:          0  MISS:          0
cpu0_L2C WRITEBACK ACCESS:      95702  HIT:      95702  MISS:          0
LLC TOTAL     ACCESS:    5308895  HIT:    1937183  MISS:    3371712
LLC LOAD      ACCESS:    5208752  HIT:    1840305  MISS:    3368447
LLC RFO       ACCESS:      12598  HIT:      10966  MISS:       1632
LLC PREFETCH  ACCESS:          0  HIT:          0  MISS:          0
LLC WRITEBACK ACCESS:      85980  HIT:      84836  MISS:       1144
Heartbeat CPU 0 instructions: 92000000 cycles: 259800436 heartbeat IPC: 0.116862 cumulative IPC: 0.173213 (Simulation time: 2 hr 13 min 56 sec) 

Region of Interest Statistics
cpu0_DTLB TOTAL     ACCESS:    8649205  HIT:    5079293  MISS:    3569912
cpu0_DTLB LOAD      ACCESS:    8163258  HIT:    4617990  MISS:    3545268
cpu0_DTLB RFO       ACCESS:     485947  HIT:     461303  MISS:      24644
cpu0_DTLB PREFETCH  ACCESS:          0  HIT:          0  MISS:          0
cpu0_DTLB WRITEBACK ACCESS:          0  HIT:          0  MISS:          0
cpu0_ITLB TOTAL     ACCESS:    3734294  HIT:    3734294  MISS:          0
cpu0_ITLB LOAD      ACCESS:    3734294  HIT:    3734294  MISS:          0
cpu0_ITLB RFO       ACCESS:          0  HIT:          0  MISS:          0
cpu0_ITLB PREFETCH  ACCESS:          0  HIT:          0  MISS:          0
cpu0_ITLB WRITEBACK ACCESS:          0  HIT:          0  MISS:          0
cpu0_L1I TOTAL     ACCESS:      97129  HIT:      97129  MISS:          0
cpu0_L1I LOAD      ACCESS:      97129  HIT:      97129  MISS:          0
cpu0_L1I RFO       ACCESS:          0  HIT:          0  MISS:          0
cpu0_L1I PREFETCH  ACCESS:          0  HIT:          0  MISS:          0
cpu0_L1I WRITEBACK ACCESS:          0  HIT:          0  MISS:          0
cpu0_STLB TOTAL     ACCESS:    3569912  HIT:    3522139  MISS:      47773
cpu0_STLB LOAD      ACCESS:    3545268  HIT:    3498154  MISS:      47114
cpu0_STLB RFO       ACCESS:      24644  HIT:      23985  MISS:        659
cpu0_STLB PREFETCH  ACCESS:          0  HIT:          0  MISS:          0
cpu0_STLB WRITEBACK ACCESS:          0  HIT:          0  MISS:          0
cpu0_L1D TOTAL     ACCESS:    9353838  HIT:    3109227  MISS:    6244611
cpu0_L1D LOAD      ACCESS:    8449415  HIT:    2223810  MISS:    6225605
cpu0_L1D RFO       ACCESS:     856943  HIT:     842294  MISS:      14649
cpu0_L1D PREFETCH  ACCESS:          0  HIT:          0  MISS:          0
cpu0_L1D WRITEBACK ACCESS:          0  HIT:          0  MISS:          0
cpu0_L2C TOTAL     ACCESS:    6366219  HIT:     889157  MISS:    5477062
cpu0_L2C LOAD      ACCESS:    6225594  HIT:     763439  MISS:    5462155
cpu0_L2C RFO       ACCESS:      14649  HIT:       1369  MISS:      13280
cpu0_L2C PREFETCH  ACCESS:          0  HIT:          0  MISS:          0
cpu0_L2C WRITEBACK ACCESS:     121619  HIT:     121619  MISS:          0
LLC TOTAL     ACCESS:    5588087  HIT:    2027774  MISS:    3560313
LLC LOAD      ACCESS:    5462152  HIT:    1917034  MISS:    3545118
LLC RFO       ACCESS:      13280  HIT:      11500  MISS:       1780
LLC PREFETCH  ACCESS:          0  HIT:          0  MISS:          0
LLC WRITEBACK ACCESS:     111028  HIT:      98122  MISS:      12906
Heartbeat CPU 0 instructions: 94000001 cycles: 271744859 heartbeat IPC: 0.167442 cumulative IPC: 0.172942 (Simulation time: 2 hr 18 min 24 sec) 

Region of Interest Statistics
cpu0_DTLB TOTAL     ACCESS:    9060696  HIT:    5323135  MISS:    3737561
cpu0_DTLB LOAD      ACCESS:    8549489  HIT:    4838021  MISS:    3711468
cpu0_DTLB RFO       ACCESS:     511207  HIT:     485114  MISS:      26093
cpu0_DTLB PREFETCH  ACCESS:          0  HIT:          0  MISS:          0
cpu0_DTLB WRITEBACK ACCESS:          0  HIT:          0  MISS:          0
cpu0_ITLB TOTAL     ACCESS:    3914212  HIT:    3914212  MISS:          0
cpu0_ITLB LOAD      ACCESS:    3914212  HIT:    3914212  MISS:          0
cpu0_ITLB RFO       ACCESS:          0  HIT:          0  MISS:          0
cpu0_ITLB PREFETCH  ACCESS:          0  HIT:          0  MISS:          0
cpu0_ITLB WRITEBACK ACCESS:          0  HIT:          0  MISS:          0
cpu0_L1I TOTAL     ACCESS:     101464  HIT:     101464  MISS:          0
cpu0_L1I LOAD      ACCESS:     101464  HIT:     101464  MISS:          0
cpu0_L1I RFO       ACCESS:          0  HIT:          0  MISS:          0
cpu0_L1I PREFETCH  ACCESS:          0  HIT:          0  MISS:          0
cpu0_L1I WRITEBACK ACCESS:          0  HIT:          0  MISS:          0
cpu0_STLB TOTAL     ACCESS:    3737561  HIT:    3687427  MISS:      50134
cpu0_STLB LOAD      ACCESS:    3711468  HIT:    3662029  MISS:      49439
cpu0_STLB RFO       ACCESS:      26093  HIT:      25398  MISS:        695
cpu0_STLB PREFETCH  ACCESS:          0  HIT:          0  MISS:          0
cpu0_STLB WRITEBACK ACCESS:          0  HIT:          0  MISS:          0
cpu0_L1D TOTAL     ACCESS:    9803456  HIT:    3263364  MISS:    6540092
cpu0_L1D LOAD      ACCESS:    8853130  HIT:    2332975  MISS:    6520155
cpu0_L1D RFO       ACCESS:     900505  HIT:     885130  MISS:      15375
cpu0_L1D PREFETCH  ACCESS:          0  HIT:          0  MISS:          0
cpu0_L1D WRITEBACK ACCESS:          0  HIT:          0  MISS:          0
cpu0_L2C TOTAL     ACCESS:    6669141  HIT:     932931  MISS:    5736210
cpu0_L2C LOAD      ACCESS:    6520143  HIT:     799553  MISS:    5720590
cpu0_L2C RFO       ACCESS:      15375  HIT:       1442  MISS:      13933
cpu0_L2C PREFETCH  ACCESS:          0  HIT:          0  MISS:          0
cpu0_L2C WRITEBACK ACCESS:     129061  HIT:     129061  MISS:          0
LLC TOTAL     ACCESS:    5854080  HIT:    2124866  MISS:    3729214
LLC LOAD      ACCESS:    5720587  HIT:    2006872  MISS:    3713715
LLC RFO       ACCESS:      13933  HIT:      12082  MISS:       1851
LLC PREFETCH  ACCESS:          0  HIT:          0  MISS:          0
LLC WRITEBACK ACCESS:     117873  HIT:     104760  MISS:      13113
Heartbeat CPU 0 instructions: 96000001 cycles: 283394295 heartbeat IPC: 0.171682 cumulative IPC: 0.172887 (Simulation time: 2 hr 22 min 48 sec) 

Region of Interest Statistics
cpu0_DTLB TOTAL     ACCESS:    9473285  HIT:    5565928  MISS:    3907357
cpu0_DTLB LOAD      ACCESS:    8937822  HIT:    5058085  MISS:    3879737
cpu0_DTLB RFO       ACCESS:     535463  HIT:     507843  MISS:      27620
cpu0_DTLB PREFETCH  ACCESS:          0  HIT:          0  MISS:          0
cpu0_DTLB WRITEBACK ACCESS:          0  HIT:          0  MISS:          0
cpu0_ITLB TOTAL     ACCESS:    4092885  HIT:    4092885  MISS:          0
cpu0_ITLB LOAD      ACCESS:    4092885  HIT:    4092885  MISS:          0
cpu0_ITLB RFO       ACCESS:          0  HIT:          0  MISS:          0
cpu0_ITLB PREFETCH  ACCESS:          0  HIT:          0  MISS:          0
cpu0_ITLB WRITEBACK ACCESS:          0  HIT:          0  MISS:          0
cpu0_L1I TOTAL     ACCESS:     106429  HIT:     106429  MISS:          0
cpu0_L1I LOAD      ACCESS:     106429  HIT:     106429  MISS:          0
cpu0_L1I RFO       ACCESS:          0  HIT:          0  MISS:          0
cpu0_L1I PREFETCH  ACCESS:          0  HIT:          0  MISS:          0
cpu0_L1I WRITEBACK ACCESS:          0  HIT:          0  MISS:          0
cpu0_STLB TOTAL     ACCESS:    3907357  HIT:    3854897  MISS:      52460
cpu0_STLB LOAD      ACCESS:    3879737  HIT:    3828005  MISS:      51732
cpu0_STLB RFO       ACCESS:      27620  HIT:      26892  MISS:        728
cpu0_STLB PREFETCH  ACCESS:          0  HIT:          0  MISS:          0
cpu0_STLB WRITEBACK ACCESS:          0  HIT:          0  MISS:          0
cpu0_L1D TOTAL     ACCESS:   10255333  HIT:    3420753  MISS:    6834580
cpu0_L1D LOAD      ACCESS:    9259112  HIT:    2445491  MISS:    6813621
cpu0_L1D RFO       ACCESS:     944092  HIT:     927916  MISS:      16176
cpu0_L1D PREFETCH  ACCESS:          0  HIT:          0  MISS:          0
cpu0_L1D WRITEBACK ACCESS:          0  HIT:          0  MISS:          0
cpu0_L2C TOTAL     ACCESS:    6969120  HIT:     974534  MISS:    5994586
cpu0_L2C LOAD      ACCESS:    6813607  HIT:     835409  MISS:    5978198
cpu0_L2C RFO       ACCESS:      16176  HIT:       1552  MISS:      14624
cpu0_L2C PREFETCH  ACCESS:          0  HIT:          0  MISS:          0
cpu0_L2C WRITEBACK ACCESS:     134554  HIT:     134554  MISS:          0
LLC TOTAL     ACCESS:    6117420  HIT:    2221907  MISS:    3895513
LLC LOAD      ACCESS:    5978195  HIT:    2098335  MISS:    3879860
LLC RFO       ACCESS:      14624  HIT:      12684  MISS:       1940
LLC PREFETCH  ACCESS:          0  HIT:          0  MISS:          0
LLC WRITEBACK ACCESS:     122837  HIT:     109683  MISS:      13154
Heartbeat CPU 0 instructions: 98000000 cycles: 294957346 heartbeat IPC: 0.172965 cumulative IPC: 0.17289 (Simulation time: 2 hr 27 min 17 sec) 

Region of Interest Statistics
cpu0_DTLB TOTAL     ACCESS:    9884297  HIT:    5803838  MISS:    4080459
cpu0_DTLB LOAD      ACCESS:    9327203  HIT:    5275262  MISS:    4051941
cpu0_DTLB RFO       ACCESS:     557094  HIT:     528576  MISS:      28518
cpu0_DTLB PREFETCH  ACCESS:          0  HIT:          0  MISS:          0
cpu0_DTLB WRITEBACK ACCESS:          0  HIT:          0  MISS:          0
cpu0_ITLB TOTAL     ACCESS:    4267843  HIT:    4267843  MISS:          0
cpu0_ITLB LOAD      ACCESS:    4267843  HIT:    4267843  MISS:          0
cpu0_ITLB RFO       ACCESS:          0  HIT:          0  MISS:          0
cpu0_ITLB PREFETCH  ACCESS:          0  HIT:          0  MISS:          0
cpu0_ITLB WRITEBACK ACCESS:          0  HIT:          0  MISS:          0
cpu0_L1I TOTAL     ACCESS:     111728  HIT:     111728  MISS:          0
cpu0_L1I LOAD      ACCESS:     111728  HIT:     111728  MISS:          0
cpu0_L1I RFO       ACCESS:          0  HIT:          0  MISS:          0
cpu0_L1I PREFETCH  ACCESS:          0  HIT:          0  MISS:          0
cpu0_L1I WRITEBACK ACCESS:          0  HIT:          0  MISS:          0
cpu0_STLB TOTAL     ACCESS:    4080459  HIT:    4025601  MISS:      54858
cpu0_STLB LOAD      ACCESS:    4051941  HIT:    3997842  MISS:      54099
cpu0_STLB RFO       ACCESS:      28518  HIT:      27759  MISS:        759
cpu0_STLB PREFETCH  ACCESS:          0  HIT:          0  MISS:          0
cpu0_STLB WRITEBACK ACCESS:          0  HIT:          0  MISS:          0
cpu0_L1D TOTAL     ACCESS:   10697270  HIT:    3561707  MISS:    7135563
cpu0_L1D LOAD      ACCESS:    9660338  HIT:    2546721  MISS:    7113617
cpu0_L1D RFO       ACCESS:     982422  HIT:     965482  MISS:      16940
cpu0_L1D PREFETCH  ACCESS:          0  HIT:          0  MISS:          0
cpu0_L1D WRITEBACK ACCESS:          0  HIT:          0  MISS:          0
cpu0_L2C TOTAL     ACCESS:    7274574  HIT:    1016659  MISS:    6257915
cpu0_L2C LOAD      ACCESS:    7113602  HIT:     872818  MISS:    6240784
cpu0_L2C RFO       ACCESS:      16940  HIT:       1642  MISS:      15298
cpu0_L2C PREFETCH  ACCESS:          0  HIT:          0  MISS:          0
cpu0_L2C WRITEBACK ACCESS:     139026  HIT:     139026  MISS:          0
LLC TOTAL     ACCESS:    6384690  HIT:    2318609  MISS:    4066081
LLC LOAD      ACCESS:    6240781  HIT:    2190476  MISS:    4050305
LLC RFO       ACCESS:      15298  HIT:      13275  MISS:       2023
LLC PREFETCH  ACCESS:          0  HIT:          0  MISS:          0
LLC WRITEBACK ACCESS:     126778  HIT:     113607  MISS:      13171
Heartbeat CPU 0 instructions: 100000002 cycles: 306337725 heartbeat IPC: 0.175741 cumulative IPC: 0.173002 (Simulation time: 2 hr 31 min 47 sec) 

Region of Interest Statistics
cpu0_DTLB TOTAL     ACCESS:   10293913  HIT:    6039479  MISS:    4254434
cpu0_DTLB LOAD      ACCESS:    9716040  HIT:    5490612  MISS:    4225428
cpu0_DTLB RFO       ACCESS:     577873  HIT:     548867  MISS:      29006
cpu0_DTLB PREFETCH  ACCESS:          0  HIT:          0  MISS:          0
cpu0_DTLB WRITEBACK ACCESS:          0  HIT:          0  MISS:          0
cpu0_ITLB TOTAL     ACCESS:    4441444  HIT:    4441444  MISS:          0
cpu0_ITLB LOAD      ACCESS:    4441444  HIT:    4441444  MISS:          0
cpu0_ITLB RFO       ACCESS:          0  HIT:          0  MISS:          0
cpu0_ITLB PREFETCH  ACCESS:          0  HIT:          0  MISS:          0
cpu0_ITLB WRITEBACK ACCESS:          0  HIT:          0  MISS:          0
cpu0_L1I TOTAL     ACCESS:     117523  HIT:     117523  MISS:          0
cpu0_L1I LOAD      ACCESS:     117523  HIT:     117523  MISS:          0
cpu0_L1I RFO       ACCESS:          0  HIT:          0  MISS:          0
cpu0_L1I PREFETCH  ACCESS:          0  HIT:          0  MISS:          0
cpu0_L1I WRITEBACK ACCESS:          0  HIT:          0  MISS:          0
cpu0_STLB TOTAL     ACCESS:    4254434  HIT:    4197364  MISS:      57070
cpu0_STLB LOAD      ACCESS:    4225428  HIT:    4169146  MISS:      56282
cpu0_STLB RFO       ACCESS:      29006  HIT:      28218  MISS:        788
cpu0_STLB PREFETCH  ACCESS:          0  HIT:          0  MISS:          0
cpu0_STLB WRITEBACK ACCESS:          0  HIT:          0  MISS:          0
cpu0_L1D TOTAL     ACCESS:   11136766  HIT:    3698334  MISS:    7438432
cpu0_L1D LOAD      ACCESS:   10060574  HIT:    2645025  MISS:    7415549
cpu0_L1D RFO       ACCESS:    1019481  HIT:    1001796  MISS:      17685
cpu0_L1D PREFETCH  ACCESS:          0  HIT:          0  MISS:          0
cpu0_L1D WRITEBACK ACCESS:          0  HIT:          0  MISS:          0
cpu0_L2C TOTAL     ACCESS:    7581666  HIT:    1059108  MISS:    6522558
cpu0_L2C LOAD      ACCESS:    7415533  HIT:     910828  MISS:    6504705
cpu0_L2C RFO       ACCESS:      17685  HIT:       1742  MISS:      15943
cpu0_L2C PREFETCH  ACCESS:          0  HIT:          0  MISS:          0
cpu0_L2C WRITEBACK ACCESS:     143250  HIT:     143250  MISS:          0
LLC TOTAL     ACCESS:    6652793  HIT:    2415929  MISS:    4236864
LLC LOAD      ACCESS:    6504702  HIT:    2283765  MISS:    4220937
LLC RFO       ACCESS:      15943  HIT:      13810  MISS:       2133
LLC PREFETCH  ACCESS:          0  HIT:          0  MISS:          0
LLC WRITEBACK ACCESS:     130238  HIT:     117053  MISS:      13185
Heartbeat CPU 0 instructions: 102000000 cycles: 317063143 heartbeat IPC: 0.186473 cumulative IPC: 0.173484 (Simulation time: 2 hr 36 min 1 sec) 

Region of Interest Statistics
cpu0_DTLB TOTAL     ACCESS:   10707015  HIT:    6288895  MISS:    4418120
cpu0_DTLB LOAD      ACCESS:   10102189  HIT:    5713615  MISS:    4388574
cpu0_DTLB RFO       ACCESS:     604826  HIT:     575280  MISS:      29546
cpu0_DTLB PREFETCH  ACCESS:          0  HIT:          0  MISS:          0
cpu0_DTLB WRITEBACK ACCESS:          0  HIT:          0  MISS:          0
cpu0_ITLB TOTAL     ACCESS:    4624440  HIT:    4624440  MISS:          0
cpu0_ITLB LOAD      ACCESS:    4624440  HIT:    4624440  MISS:          0
cpu0_ITLB RFO       ACCESS:          0  HIT:          0  MISS:          0
cpu0_ITLB PREFETCH  ACCESS:          0  HIT:          0  MISS:          0
cpu0_ITLB WRITEBACK ACCESS:          0  HIT:          0  MISS:          0
cpu0_L1I TOTAL     ACCESS:     120553  HIT:     120553  MISS:          0
cpu0_L1I LOAD      ACCESS:     120553  HIT:     120553  MISS:          0
cpu0_L1I RFO       ACCESS:          0  HIT:          0  MISS:          0
cpu0_L1I PREFETCH  ACCESS:          0  HIT:          0  MISS:          0
cpu0_L1I WRITEBACK ACCESS:          0  HIT:          0  MISS:          0
cpu0_STLB TOTAL     ACCESS:    4418120  HIT:    4358594  MISS:      59526
cpu0_STLB LOAD      ACCESS:    4388574  HIT:    4329861  MISS:      58713
cpu0_STLB RFO       ACCESS:      29546  HIT:      28733  MISS:        813
cpu0_STLB PREFETCH  ACCESS:          0  HIT:          0  MISS:          0
cpu0_STLB WRITEBACK ACCESS:          0  HIT:          0  MISS:          0
cpu0_L1D TOTAL     ACCESS:   11594307  HIT:    3870809  MISS:    7723498
cpu0_L1D LOAD      ACCESS:   10464552  HIT:    2765093  MISS:    7699459
cpu0_L1D RFO       ACCESS:    1070601  HIT:    1051962  MISS:      18639
cpu0_L1D PREFETCH  ACCESS:          0  HIT:          0  MISS:          0
cpu0_L1D WRITEBACK ACCESS:          0  HIT:          0  MISS:          0
cpu0_L2C TOTAL     ACCESS:    7871676  HIT:    1099895  MISS:    6771781
cpu0_L2C LOAD      ACCESS:    7699443  HIT:     946350  MISS:    6753093
cpu0_L2C RFO       ACCESS:      18639  HIT:       1921  MISS:      16718
cpu0_L2C PREFETCH  ACCESS:          0  HIT:          0  MISS:          0
cpu0_L2C WRITEBACK ACCESS:     148194  HIT:     148194  MISS:          0
LLC TOTAL     ACCESS:    6906156  HIT:    2509706  MISS:    4396450
LLC LOAD      ACCESS:    6753090  HIT:    2372684  MISS:    4380406
LLC RFO       ACCESS:      16718  HIT:      14511  MISS:       2207
LLC PREFETCH  ACCESS:          0  HIT:          0  MISS:          0
LLC WRITEBACK ACCESS:     134378  HIT:     121178  MISS:      13200
Heartbeat CPU 0 instructions: 104000002 cycles: 328006234 heartbeat IPC: 0.182764 cumulative IPC: 0.173811 (Simulation time: 2 hr 40 min 17 sec) 

Region of Interest Statistics
cpu0_DTLB TOTAL     ACCESS:   11121194  HIT:    6534736  MISS:    4586458
cpu0_DTLB LOAD      ACCESS:   10492272  HIT:    5935797  MISS:    4556475
cpu0_DTLB RFO       ACCESS:     628922  HIT:     598939  MISS:      29983
cpu0_DTLB PREFETCH  ACCESS:          0  HIT:          0  MISS:          0
cpu0_DTLB WRITEBACK ACCESS:          0  HIT:          0  MISS:          0
cpu0_ITLB TOTAL     ACCESS:    4804245  HIT:    4804245  MISS:          0
cpu0_ITLB LOAD      ACCESS:    4804245  HIT:    4804245  MISS:          0
cpu0_ITLB RFO       ACCESS:          0  HIT:          0  MISS:          0
cpu0_ITLB PREFETCH  ACCESS:          0  HIT:          0  MISS:          0
cpu0_ITLB WRITEBACK ACCESS:          0  HIT:          0  MISS:          0
cpu0_L1I TOTAL     ACCESS:     125352  HIT:     125352  MISS:          0
cpu0_L1I LOAD      ACCESS:     125352  HIT:     125352  MISS:          0
cpu0_L1I RFO       ACCESS:          0  HIT:          0  MISS:          0
cpu0_L1I PREFETCH  ACCESS:          0  HIT:          0  MISS:          0
cpu0_L1I WRITEBACK ACCESS:          0  HIT:          0  MISS:          0
cpu0_STLB TOTAL     ACCESS:    4586458  HIT:    4524318  MISS:      62140
cpu0_STLB LOAD      ACCESS:    4556475  HIT:    4495174  MISS:      61301
cpu0_STLB RFO       ACCESS:      29983  HIT:      29144  MISS:        839
cpu0_STLB PREFETCH  ACCESS:          0  HIT:          0  MISS:          0
cpu0_STLB WRITEBACK ACCESS:          0  HIT:          0  MISS:          0
cpu0_L1D TOTAL     ACCESS:   12045781  HIT:    4030935  MISS:    8014846
cpu0_L1D LOAD      ACCESS:   10870600  HIT:    2880826  MISS:    7989774
cpu0_L1D RFO       ACCESS:    1113437  HIT:    1093933  MISS:      19504
cpu0_L1D PREFETCH  ACCESS:          0  HIT:          0  MISS:          0
cpu0_L1D WRITEBACK ACCESS:          0  HIT:          0  MISS:          0
cpu0_L2C TOTAL     ACCESS:    8167786  HIT:    1141718  MISS:    7026068
cpu0_L2C LOAD      ACCESS:    7989758  HIT:     983115  MISS:    7006643
cpu0_L2C RFO       ACCESS:      19504  HIT:       2085  MISS:      17419
cpu0_L2C PREFETCH  ACCESS:          0  HIT:          0  MISS:          0
cpu0_L2C WRITEBACK ACCESS:     152956  HIT:     152956  MISS:          0
LLC TOTAL     ACCESS:    7164450  HIT:    2604857  MISS:    4559593
LLC LOAD      ACCESS:    7006637  HIT:    2463198  MISS:    4543439
LLC RFO       ACCESS:      17419  HIT:      15145  MISS:       2274
LLC PREFETCH  ACCESS:          0  HIT:          0  MISS:          0
LLC WRITEBACK ACCESS:     138388  HIT:     125169  MISS:      13219
Heartbeat CPU 0 instructions: 106000002 cycles: 349366828 heartbeat IPC: 0.0936304 cumulative IPC: 0.168653 (Simulation time: 2 hr 46 min 25 sec) 

Region of Interest Statistics
cpu0_DTLB TOTAL     ACCESS:   11537254  HIT:    6786514  MISS:    4750740
cpu0_DTLB LOAD      ACCESS:   10867640  HIT:    6156498  MISS:    4711142
cpu0_DTLB RFO       ACCESS:     669614  HIT:     630016  MISS:      39598
cpu0_DTLB PREFETCH  ACCESS:          0  HIT:          0  MISS:          0
cpu0_DTLB WRITEBACK ACCESS:          0  HIT:          0  MISS:          0
cpu0_ITLB TOTAL     ACCESS:    4998786  HIT:    4998786  MISS:          0
cpu0_ITLB LOAD      ACCESS:    4998786  HIT:    4998786  MISS:          0
cpu0_ITLB RFO       ACCESS:          0  HIT:          0  MISS:          0
cpu0_ITLB PREFETCH  ACCESS:          0  HIT:          0  MISS:          0
cpu0_ITLB WRITEBACK ACCESS:          0  HIT:          0  MISS:          0
cpu0_L1I TOTAL     ACCESS:     126752  HIT:     126752  MISS:          0
cpu0_L1I LOAD      ACCESS:     126752  HIT:     126752  MISS:          0
cpu0_L1I RFO       ACCESS:          0  HIT:          0  MISS:          0
cpu0_L1I PREFETCH  ACCESS:          0  HIT:          0  MISS:          0
cpu0_L1I WRITEBACK ACCESS:          0  HIT:          0  MISS:          0
cpu0_STLB TOTAL     ACCESS:    4750740  HIT:    4686598  MISS:      64142
cpu0_STLB LOAD      ACCESS:    4711142  HIT:    4647879  MISS:      63263
cpu0_STLB RFO       ACCESS:      39598  HIT:      38719  MISS:        879
cpu0_STLB PREFETCH  ACCESS:          0  HIT:          0  MISS:          0
cpu0_STLB WRITEBACK ACCESS:          0  HIT:          0  MISS:          0
cpu0_L1D TOTAL     ACCESS:   12496747  HIT:    4162496  MISS:    8334251
cpu0_L1D LOAD      ACCESS:   11271585  HIT:    2962996  MISS:    8308589
cpu0_L1D RFO       ACCESS:    1161425  HIT:    1141472  MISS:      19953
cpu0_L1D PREFETCH  ACCESS:          0  HIT:          0  MISS:          0
cpu0_L1D WRITEBACK ACCESS:          0  HIT:          0  MISS:          0
cpu0_L2C TOTAL     ACCESS:    8520954  HIT:    1211039  MISS:    7309915
cpu0_L2C LOAD      ACCESS:    8308573  HIT:    1018513  MISS:    7290060
cpu0_L2C RFO       ACCESS:      19953  HIT:       2144  MISS:      17809
cpu0_L2C PREFETCH  ACCESS:          0  HIT:          0  MISS:          0
[...]
cpu0_ITLB AVERAGE MISS LATENCY: -nan cycles
cpu0_L1I TOTAL     ACCESS:    2888508  HIT:    2888508  MISS:          0
cpu0_L1I LOAD      ACCESS:    2888508  HIT:    2888508  MISS:          0
cpu0_L1I RFO       ACCESS:          0  HIT:          0  MISS:          0
cpu0_L1I PREFETCH  ACCESS:          0  HIT:          0  MISS:          0
cpu0_L1I WRITEBACK ACCESS:          0  HIT:          0  MISS:          0
cpu0_L1I TRANSLATION ACCESS:          0  HIT:          0  MISS:          0
cpu0_L1I PREFETCH  REQUESTED:          0  ISSUED:          0  USEFUL:          0  USELESS:          0
cpu0_L1I AVERAGE MISS LATENCY: -nan cycles
cpu0_STLB TOTAL     ACCESS:  133882062  HIT:  132102300  MISS:    1779762
cpu0_STLB LOAD      ACCESS:  133236957  HIT:  131481252  MISS:    1755705
cpu0_STLB RFO       ACCESS:     645105  HIT:     621048  MISS:      24057
cpu0_STLB PREFETCH  ACCESS:          0  HIT:          0  MISS:          0
cpu0_STLB WRITEBACK ACCESS:          0  HIT:          0  MISS:          0
cpu0_STLB TRANSLATION ACCESS:          0  HIT:          0  MISS:          0
cpu0_STLB PREFETCH  REQUESTED:          0  ISSUED:          0  USEFUL:          0  USELESS:          0
cpu0_STLB AVERAGE MISS LATENCY: 58.4889 cycles
cpu0_L1D TOTAL     ACCESS:  322848544  HIT:   87860061  MISS:  234988483
cpu0_L1D LOAD      ACCESS:  298639686  HIT:   64231069  MISS:  234408617
cpu0_L1D RFO       ACCESS:   22440794  HIT:   22002224  MISS:     438570
cpu0_L1D PREFETCH  ACCESS:          0  HIT:          0  MISS:          0
cpu0_L1D WRITEBACK ACCESS:          0  HIT:          0  MISS:          0
cpu0_L1D TRANSLATION ACCESS:    1768064  HIT:    1626768  MISS:     141296
cpu0_L1D PREFETCH  REQUESTED:          0  ISSUED:          0  USEFUL:          0  USELESS:          0
cpu0_L1D AVERAGE MISS LATENCY: 164.276 cycles
cpu0_L2C TOTAL     ACCESS:  238206741  HIT:   32418279  MISS:  205788462
cpu0_L2C LOAD      ACCESS:  234408286  HIT:   29050968  MISS:  205357318
cpu0_L2C RFO       ACCESS:     438569  HIT:      61927  MISS:     376642
cpu0_L2C PREFETCH  ACCESS:          0  HIT:          0  MISS:          0
cpu0_L2C WRITEBACK ACCESS:    3218590  HIT:    3218385  MISS:        205
cpu0_L2C TRANSLATION ACCESS:     141296  HIT:      86999  MISS:      54297
cpu0_L2C PREFETCH  REQUESTED:          0  ISSUED:          0  USEFUL:          0  USELESS:          0
cpu0_L2C AVERAGE MISS LATENCY: 174.977 cycles
LLC TOTAL     ACCESS:  208686092  HIT:   74463049  MISS:  134223043
LLC LOAD      ACCESS:  205357234  HIT:   71450299  MISS:  133906935
LLC RFO       ACCESS:     376641  HIT:     316264  MISS:      60377
LLC PREFETCH  ACCESS:          0  HIT:          0  MISS:          0
LLC WRITEBACK ACCESS:    2897920  HIT:    2661291  MISS:     236629
LLC TRANSLATION ACCESS:      54297  HIT:      35195  MISS:      19102
LLC PREFETCH  REQUESTED:          0  ISSUED:          0  USEFUL:          0  USELESS:          0
LLC AVERAGE MISS LATENCY: 236.043 cycles
~~~~~~~~~~Reuse Distance Profiler output~~~~~~~~~~
0	7316976	2288576
1	6968928	3721216
2	5527856	3488304
3	5644192	3940048
4	4126240	3117872
5	4577600	3502176
6	4207504	3112544
7	3017216	2328048
8	2648528	2107344
9	2395872	1948512
10	2263392	1677968
11	1827744	1475616
12	1561328	1208912
13	1300528	970032
14	1224880	941184
15	1195584	879552
16	1001616	726960
17	832000	629776
18	696496	576368
19	690656	523248
20	636672	465184
21	582912	433520
22	551920	445840
23	462576	360704
24	438320	371120
25	417008	346496
26	410208	336864
27	392880	334288
28	360384	310064
29	359504	315344
30	295472	267824
31	227696	205856
32	214000	191808
33	170960	144528
34	174336	154272
35	156816	131872
36	164064	129712
37	146368	124128
38	141392	113888
39	134960	113344
40	137872	115840
41	120240	105184
42	124704	104832
43	127360	108272
44	112880	96816
45	108112	91152
46	121712	99872
47	111664	100272
48	100128	91200
49	93424	85488
50	88768	80144
51	97536	83072
52	88000	76448
53	85840	76640
54	83840	75952
55	81792	72736
56	76368	66720
57	71824	62272
58	64896	56768
59	68560	60000
60	68864	59584
61	65872	55760
62	64192	54000
63	66384	57328
64	136240	118464
66	129712	110880
68	132992	112272
70	134928	111904
72	138512	108896
74	129808	102448
76	128176	94592
78	129632	90528
80	128288	90880
82	130608	87920
84	140128	91248
86	147632	96080
88	144880	91536
90	144800	93248
92	142384	91872
94	143760	92272
96	143200	92368
98	139632	84608
100	144320	91472
102	142096	98720
104	137696	99312
106	125536	92144
108	123904	92528
110	119616	90384
112	114512	88400
114	111520	87728
116	102768	81072
118	103152	80192
120	102288	82720
122	96144	77712
124	98864	82640
126	96064	81040
128	182192	153984
132	176800	154352
136	174640	155552
140	169904	154256
144	166224	152144
148	173024	163408
152	171424	164144
156	167648	162720
160	174336	168336
164	171424	166000
168	167632	161840
172	163904	156304
176	157568	150624
180	160064	153120
184	157664	149008
188	153488	146560
192	156592	148592
196	152432	143920
200	159248	151568
204	163536	155568
208	160672	153600
212	162944	153856
216	170576	156000
220	166944	157856
224	154416	146672
228	144736	136832
232	148768	141296
236	146896	140384
240	152208	145040
244	152784	145520
248	159584	152928
252	152416	146128
256	287456	275920
264	292448	281792
272	289568	278400
280	286384	276880
288	274912	266176
296	279552	271536
304	282016	274160
312	267840	260128
320	253648	246224
328	247296	239600
336	242400	234336
344	232400	223472
352	229744	221104
360	216192	207216
368	219952	211168
376	210464	203424
384	206304	200656
392	186368	181424
400	176608	172128
408	167024	163248
416	152640	147584
424	148240	143984
432	142944	138912
440	139936	137344
448	128768	126352
456	119248	116800
464	111856	109936
472	105312	103232
480	102560	100736
488	102320	99792
496	100352	97360
504	95856	92768
512	196672	190640
528	189440	184624
544	188448	184832
560	188688	184128
576	184432	179952
592	179296	176336
608	173248	170400
624	188720	183232
640	194288	184224
656	193296	184928
672	197888	192816
688	193200	189952
704	190880	189312
720	191152	189520
736	174640	172880
752	164656	163152
768	159552	158368
784	165760	164496
800	169824	168592
816	157168	156208
832	138672	137472
848	136608	135040
864	137056	135264
880	142224	140656
896	137648	136352
912	136656	135568
928	117264	116048
944	112928	111328
960	114960	113360
976	113296	112144
992	114976	113744
1008	112304	111040
1024	206912	204352
1056	203296	198240
1088	239536	235744
1120	244816	241808
1152	207264	205392
1184	215952	213024
1216	212992	211264
1248	189888	187632
1280	195408	191968
1312	186032	184480
1344	168432	166656
1376	161184	159536
1408	165360	164672
1440	159792	159328
1472	191232	190928
1504	178288	177632
1536	177040	176256
1568	146688	145744
1600	138448	137616
1632	158928	158352
1664	137056	136752
1696	134208	133696
1728	132512	131968
1760	123408	122832
1792	143840	143200
1824	115264	114432
1856	111536	110384
1888	134000	133120
1920	137248	136688
1952	120688	120064
1984	126752	126144
2016	110192	109728
2048	217808	217008
2112	188864	187600
2176	246960	245616
2240	235344	234432
2304	228096	227120
2368	183056	181968
2432	186512	184960
2496	159040	157488
2560	183408	181952
2624	225088	223376
2688	206256	204736
2752	252336	250272
2816	267808	266176
2880	208640	207424
2944	207024	205776
3008	204032	202688
3072	192608	191280
3136	201264	199984
3200	207424	205760
3264	222688	220528
3328	230016	227824
3392	215984	214784
3456	215664	214800
3520	213648	212864
3584	242144	241440
3648	228272	227616
3712	205760	205008
3776	185888	185344
3840	205808	205504
3904	192880	192480
3968	206144	205712
4032	218560	218320
4096	332624	332080
4224	276576	275984
4352	259168	258640
4480	287968	287088
4608	280096	279504
4736	323280	322416
4864	248544	247504
4992	229968	228992
5120	213680	212928
5248	253200	252544
5376	243520	242608
5504	247392	246672
5632	229232	228624
5760	252320	251168
5888	247696	246656
6016	234208	232848
6144	258000	257264
6272	256448	255616
6400	227808	227056
6528	213040	212272
6656	248208	247840
6784	239984	239632
6912	213392	213152
7040	194720	194368
7168	206416	206128
7296	207248	206816
7424	189200	188880
7552	184160	183792
7680	210288	209984
7808	188976	188720
7936	181424	181024
8064	179552	178960
8192	360704	359968
8448	432432	431248
8704	405984	403552
8960	404192	401232
9216	403968	399440
9472	381872	377200
9728	432304	428288
9984	375568	372144
10240	396016	393312
10496	389376	386672
10752	407808	405184
11008	449648	447824
11264	466160	462400
11520	488128	484784
11776	569280	566496
12032	641856	638752
12288	760368	755728
12544	19750112	19730816
12800	608624	604112
13056	828080	824592
13312	1159856	1157024
13568	449232	444176
13824	390352	366320
14080	575280	550864
14336	374688	357472
14592	361952	348608
14848	401552	387424
15104	424096	411280
15360	411456	400704
15616	436720	426416
15872	934160	924000
16128	2797456	2788064
16384	5370432	5361424
16896	2389520	2383248
17408	1273504	1263408
17920	1601600	1593840
18432	2981408	2974640
18944	4152720	4145456
19456	5789904	5781392
19968	6889680	6881024
20480	5711312	5704384
20992	2551312	2548992
21504	1376240	1374672
22016	1095248	1094096
22528	772672	771568
23040	493360	492624
23552	395664	395184
24064	394304	393600
24576	460816	460336
25088	670288	668960
25600	477168	477008
26112	339472	337920
26624	264720	260256
27136	247616	245216
27648	242928	241280
28160	265024	263424
28672	311664	310048
29184	295728	294992
29696	240960	239680
30208	243536	242144
30720	262976	261312
31232	282384	280064
31744	316336	313936
32256	365664	363536
32768	700224	696944
33792	574320	572368
34816	571216	569040
35840	663472	661392
36864	799744	797536
37888	915488	914016
38912	720992	718000
39936	698624	696672
40960	625216	623728
41984	500720	499760
43008	437584	436464
44032	445872	444720
45056	420560	419664
46080	372976	372176
47104	325888	324608
48128	356592	355488
49152	406688	405632
50176	518160	517344
51200	411488	410128
52224	376624	375488
53248	401712	400512
54272	389600	388816
55296	377712	376704
56320	411840	411040
57344	435408	434400
58368	440656	439808
59392	384400	383696
60416	377040	376512
61440	361264	360560
62464	412032	411360
63488	351696	351104
64512	295632	294672
65536	549936	548880
67584	528032	526848
69632	569680	568912
71680	544064	543280
73728	612000	611232
75776	650512	649344
77824	597408	596208
79872	537648	536736
81920	507232	506416
83968	439248	438576
86016	453152	452592
88064	470160	469488
90112	427568	426928
92160	425296	424816
94208	449072	448448
96256	432240	431888
98304	448032	447456
100352	454544	454064
102400	380192	379584
104448	344704	344432
106496	344608	344176
108544	340320	340000
110592	336784	336448
112640	383696	383136
114688	346320	345936
116736	329952	329424
118784	325152	324736
120832	321344	320976
122880	287184	286768
124928	320608	320224
126976	281824	281472
129024	273248	273008
131072	548368	547792
135168	550864	550320
139264	517872	517408
143360	461360	460768
147456	453344	453008
151552	469936	469312
155648	428768	428352
159744	400688	400304
163840	392400	391920
167936	367344	366960
172032	360880	360560
176128	392384	392096
180224	333664	333280
184320	319872	319664
188416	327600	327216
192512	306960	306688
196608	297712	297440
200704	314672	314272
204800	266976	266688
208896	260112	259728
212992	268304	267872
217088	248416	248256
221184	239040	238960
225280	232368	232144
229376	223520	223184
233472	218352	218176
237568	223760	223680
241664	202144	202032
245760	190288	190096
249856	199600	199360
253952	190896	190736
258048	184592	184512
262144	344736	344480
270336	328768	328464
278528	306752	306560
286720	291360	291152
294912	276912	276720
303104	261536	261344
311296	257248	256960
319488	235392	235152
327680	230528	230336
335872	216608	216384
344064	205104	204928
352256	196784	196496
360448	189072	188960
368640	179776	179584
376832	172736	172496
385024	161664	161440
393216	154864	154752
401408	146752	146624
409600	141344	141216
417792	138176	138064
425984	138400	138320
434176	126704	126528
442368	124208	124032
450560	121520	121328
458752	112160	112016
466944	112192	112128
475136	106080	105920
483328	104688	104640
491520	101360	101248
499712	95984	95936
507904	94480	94432
516096	90048	89968
524288	175056	174928
540672	167200	167104
557056	153584	153376
573440	144064	143872
589824	134432	134272
606208	129040	128960
622592	120656	120592
638976	120608	120432
655360	114880	114816
671744	106848	106704
688128	100576	100512
704512	102480	102416
720896	90832	90672
737280	96928	96848
753664	86464	86304
770048	83152	83072
786432	80496	80384
802816	79136	79056
819200	79296	79184
835584	69792	69712
851968	67792	67760
868352	64832	64672
884736	63504	63424
901120	64784	64720
917504	57712	57568
933888	56720	56640
950272	57152	57120
966656	57728	57648
983040	53264	53232
999424	52768	52688
1015808	50912	50832
1032192	49968	49872
1048576	94656	94512
1081344	90512	90416
1114112	83344	83248
1146880	75072	75008
1179648	73360	73232
1212416	67184	67104
1245184	63408	63376
1277952	58768	58704
1310720	57456	57376
1343488	53728	53680
1376256	53120	53056
1409024	52464	52400
1441792	47952	47904
1474560	44624	44592
1507328	44624	44592
1540096	44784	44768
1572864	49024	48896
1605632	37104	37008
1638400	36704	36624
1671168	35616	35584
1703936	44304	44288
1736704	31344	31344
1769472	29456	29360
1802240	29120	29040
1835008	28064	27984
1867776	25872	25840
1900544	25200	25136
1933312	24272	24224
1966080	26912	26896
1998848	27584	27504
2031616	24144	24112
2064384	21200	21184
2097152	46544	46400
2162688	38560	38416
2228224	34480	34384
2293760	32928	32816
2359296	35632	35520
2424832	28256	28208
2490368	30560	30544
2555904	29296	29200
2621440	28480	28448
2686976	22032	21984
2752512	21648	21600
2818048	20336	20288
2883584	20048	19984
2949120	18944	18864
3014656	29184	29120
3080192	18320	18256
3145728	16288	16272
3211264	18080	18048
3276800	16272	16256
3342336	14528	14464
3407872	14592	14576
3473408	12432	12368
3538944	12208	12144
3604480	12256	12192
3670016	13072	13040
3735552	11648	11632
3801088	12528	12448
3866624	9328	9312
3932160	9632	9536
3997696	9712	9680
4063232	10192	10176
4128768	8448	8384
4194304	17632	17600
4325376	16528	16432
4456448	19552	19520
4587520	14832	14720
4718592	12624	12528
4849664	11504	11440
4980736	10624	10512
5111808	22704	22624
5242880	9760	9728
5373952	11184	11104
5505024	12784	12704
5636096	11792	11712
5767168	7648	7632
5898240	7664	7552
6029312	8672	8640
6160384	7632	7536
6291456	6288	6240
6422528	6272	6176
6553600	7232	7184
6684672	6304	6256
6815744	5696	5664
6946816	6288	6240
7077888	5088	4976
7208960	7216	7168
7340032	7232	7200
7471104	8192	8176
7602176	8048	7952
7733248	7328	7280
7864320	8976	8896
7995392	6128	6080
8126464	4624	4560
8257536	4144	4096
8388608	11632	11536
8650752	6640	6480
8912896	9552	9488
9175040	15760	15616
9437184	12592	12464
9699328	6480	6256
9961472	4640	4576
10223616	4704	4656
10485760	3872	3808
10747904	11072	10992
11010048	5616	5488
11272192	3648	3600
11534336	2928	2832
11796480	2528	2416
12058624	4400	4336
12320768	2848	2768
12582912	2496	2400
12845056	3360	3280
13107200	2176	2144
13369344	2656	2560
13631488	2736	2608
13893632	1952	1840
14155776	14624	14560
14417920	1584	1456
14680064	4720	4576
14942208	1856	1744
15204352	2160	2048
15466496	1552	1536
15728640	1312	1264
15990784	2704	2656
16252928	1008	992
16515072	3760	3760
16777216	8672	8560
17301504	2352	2288
17825792	3696	3648
18350080	3872	3696
18874368	2080	1936
19398656	4928	4672
19922944	3984	3872
20447232	1456	1312
20971520	8240	8096
21495808	1152	944
22020096	1072	992
22544384	1216	1120
23068672	1136	1024
23592960	4144	4112
24117248	944	864
24641536	1376	1264
25165824	976	816
25690112	1104	864
26214400	1056	912
26738688	640	560
27262976	880	704
27787264	2288	2160
28311552	1632	1472
28835840	1856	1856
29360128	1184	1024
29884416	720	496
30408704	864	768
30932992	960	704
31457280	832	768
31981568	1184	944
32505856	1072	944
33030144	608	544
33554432	960	768
34603008	3216	3040
35651584	960	848
36700160	736	624
37748736	544	416
38797312	1520	1280
39845888	544	352
40894464	416	336
41943040	816	672
42991616	880	720
44040192	560	480
45088768	960	832
46137344	480	432
47185920	576	528
48234496	624	592
49283072	864	816
50331648	432	320
51380224	528	432
52428800	656	464
53477376	448	400
54525952	464	416
55574528	336	240
56623104	672	592
57671680	2384	2224
58720256	368	240
59768832	432	384
60817408	592	464
61865984	2912	2816
62914560	336	288
63963136	320	240
65011712	1184	1104
66060288	640	544
67108864	560	432
69206016	1456	1216
71303168	1472	1296
73400320	704	544
75497472	928	752
77594624	688	528
79691776	848	608
81788928	896	672
83886080	704	448
85983232	576	480
88080384	1552	1424
90177536	928	816
92274688	432	352
94371840	848	736
96468992	617568	617472
98566144	11387808	11387760
100663296	4521344	4521200
102760448	3049024	3048960
104857600	13285184	13285136
106954752	4240416	4240320
109051904	4562704	4562688
111149056	13008448	13008416
113246208	3709744	3709744
115343360	1116704	1116704
117440512	16	16
119537664	176	176
121634816	64	64
123731968	16	16
125829120	32	32
127926272	192	192
130023424	32	32
132120576	16	0
134217728	480	464
138412032	336	336
142606336	64	32
146800640	64	64
150994944	352	336
155189248	560	560
159383552	48	32
163577856	16	16
167772160	160	160
171966464	64	64
176160768	32	32
180355072	16	16
184549376	0	0
188743680	48	48
192937984	0	0
197132288	0	0
201326592	16	16
205520896	64	48
209715200	80	48
213909504	48	32
218103808	16	16
222298112	32	32
226492416	48	32
230686720	0	0
234881024	80	80
239075328	96	96
243269632	1072	1072
247463936	0	0
251658240	16	16
255852544	32	16
260046848	0	0
264241152	0	0
268435456	32	32
276824064	64	64
285212672	16	16
293601280	0	0
301989888	0	0
310378496	0	0
318767104	0	0
327155712	0	0
335544320	0	0
343932928	0	0
352321536	0	0
360710144	0	0
369098752	0	0
377487360	0	0
385875968	0	0
394264576	0	0
402653184	0	0
411041792	0	0
419430400	0	0
427819008	0	0
436207616	0	0
444596224	0	0
452984832	0	0
461373440	0	0
469762048	0	0
478150656	0	0
486539264	0	0
494927872	0	0
503316480	0	0
511705088	0	0
520093696	0	0
528482304	0	0
536870912	0	0
553648128	0	0
570425344	0	0
587202560	0	0
603979776	0	0
620756992	0	0
637534208	0	0
654311424	0	0
671088640	0	0
687865856	0	0
704643072	0	0
721420288	0	0
738197504	0	0
754974720	0	0
771751936	0	0
788529152	0	0
805306368	0	0
822083584	0	0
838860800	0	0
855638016	0	0
872415232	0	0
889192448	0	0
905969664	0	0
922746880	0	0
939524096	0	0
956301312	0	0
973078528	0	0
989855744	0	0
1006632960	0	0
1023410176	0	0
1040187392	0	0
1056964608	0	0
1073741824	0	0
1107296256	0	0
1140850688	0	0
1174405120	0	0
1207959552	0	0
1241513984	0	0
1275068416	0	0
1308622848	0	0
1342177280	0	0
1375731712	0	0
1409286144	0	0
1442840576	0	0
1476395008	0	0
1509949440	0	0
1543503872	0	0
1577058304	0	0
1610612736	0	0
1644167168	0	0
1677721600	0	0
1711276032	0	0
1744830464	0	0
1778384896	0	0
1811939328	0	0
1845493760	0	0
1879048192	0	0
1912602624	0	0
1946157056	0	0
1979711488	0	0
2013265920	0	0
2046820352	0	0
2080374784	0	0
2113929216	0	0
2147483648	0	0
2214592512	0	0
2281701376	0	0
2348810240	0	0
2415919104	0	0
2483027968	0	0
2550136832	0	0
2617245696	0	0
2684354560	0	0
2751463424	0	0
2818572288	0	0
2885681152	0	0
2952790016	0	0
3019898880	0	0
3087007744	0	0
3154116608	0	0
3221225472	0	0
3288334336	0	0
3355443200	0	0
3422552064	0	0
3489660928	0	0
3556769792	0	0
3623878656	0	0
3690987520	0	0
3758096384	0	0
3825205248	0	0
3892314112	0	0
3959422976	0	0
4026531840	0	0
4093640704	0	0
4160749568	0	0
4227858432	0	0
~~~~~~~~~~Reuse Distance Profiler output end~~~~~~~~~~

Sampler size:1773824

DRAM Statistics
 CHANNEL 0
 RQ ROW_BUFFER_HIT:   45291731  ROW_BUFFER_MISS:   88688596
 DBUS AVG_CONGESTED_CYCLE:    3.82576
 WQ ROW_BUFFER_HIT:     389210  ROW_BUFFER_MISS:     629878  FULL:          0


CPU 0 Branch Prediction Accuracy: 96.2307% MPKI: 11.5612 Average ROB Occupancy at Mispredict: 53.023
Branch type MPKI
BRANCH_DIRECT_JUMP: 0
BRANCH_INDIRECT: 0
BRANCH_CONDITIONAL: 11.5611
BRANCH_DIRECT_CALL: 0
BRANCH_INDIRECT_CALL: 0.000160667
BRANCH_RETURN: 0

