
*** ChampSim Multicore Out-of-Order Simulator ***

Warmup Instructions: 50000000
Simulation Instructions: 1500000000
Number of CPUs: 1
Off-chip DRAM Size: 4 GiB Channels: 1 Width: 64-bit Data Rate: 3200 MT/s

VirtualMemory physical capacity: 8588881920 num_ppages: 2096895
VirtualMemory page size: 4096 log2_page_size: 12

CPU 0 runs /s/traces/champsim_traces/607.cactuBSSN_s-3477B.champsimtrace.xz
CPU 0 Bimodal branch predictor
Basic BTB sets: 1024 ways: 8 indirect buffer size: 4096 RAS size: 64
Initializing LRU.
Initializing LRU.
Initializing LRU.
Initializing LRU.
Initializing rdLRU.
Initializing LRU.
Heartbeat CPU 0 instructions: 2000000 cycles: 748534 heartbeat IPC: 2.67189 cumulative IPC: 2.67189 (Simulation time: 0 hr 2 min 2 sec) 
Heartbeat CPU 0 instructions: 4000003 cycles: 1497035 heartbeat IPC: 2.67201 cumulative IPC: 2.67195 (Simulation time: 0 hr 4 min 1 sec) 
Heartbeat CPU 0 instructions: 6000000 cycles: 2244965 heartbeat IPC: 2.67404 cumulative IPC: 2.67265 (Simulation time: 0 hr 6 min 1 sec) 
Heartbeat CPU 0 instructions: 8000002 cycles: 2993669 heartbeat IPC: 2.67129 cumulative IPC: 2.67231 (Simulation time: 0 hr 7 min 57 sec) 
Heartbeat CPU 0 instructions: 10000003 cycles: 3741571 heartbeat IPC: 2.67415 cumulative IPC: 2.67267 (Simulation time: 0 hr 9 min 57 sec) 
Heartbeat CPU 0 instructions: 12000000 cycles: 4490205 heartbeat IPC: 2.67153 cumulative IPC: 2.67248 (Simulation time: 0 hr 11 min 56 sec) 
Heartbeat CPU 0 instructions: 14000002 cycles: 5236936 heartbeat IPC: 2.67834 cumulative IPC: 2.67332 (Simulation time: 0 hr 13 min 51 sec) 
Heartbeat CPU 0 instructions: 16000002 cycles: 5985173 heartbeat IPC: 2.67295 cumulative IPC: 2.67327 (Simulation time: 0 hr 15 min 48 sec) 
Heartbeat CPU 0 instructions: 18000002 cycles: 6733444 heartbeat IPC: 2.67283 cumulative IPC: 2.67322 (Simulation time: 0 hr 17 min 47 sec) 
Heartbeat CPU 0 instructions: 20000002 cycles: 7481811 heartbeat IPC: 2.67249 cumulative IPC: 2.67315 (Simulation time: 0 hr 19 min 39 sec) 
Heartbeat CPU 0 instructions: 22000002 cycles: 8229920 heartbeat IPC: 2.67341 cumulative IPC: 2.67317 (Simulation time: 0 hr 21 min 39 sec) 
Heartbeat CPU 0 instructions: 24000000 cycles: 8978470 heartbeat IPC: 2.67183 cumulative IPC: 2.67306 (Simulation time: 0 hr 23 min 39 sec) 
Heartbeat CPU 0 instructions: 26000003 cycles: 9726589 heartbeat IPC: 2.67338 cumulative IPC: 2.67309 (Simulation time: 0 hr 25 min 37 sec) 
Heartbeat CPU 0 instructions: 28000000 cycles: 10475371 heartbeat IPC: 2.671 cumulative IPC: 2.67294 (Simulation time: 0 hr 27 min 32 sec) 
Heartbeat CPU 0 instructions: 30000003 cycles: 11223471 heartbeat IPC: 2.67344 cumulative IPC: 2.67297 (Simulation time: 0 hr 29 min 24 sec) 
Heartbeat CPU 0 instructions: 32000003 cycles: 11972139 heartbeat IPC: 2.67141 cumulative IPC: 2.67287 (Simulation time: 0 hr 31 min 22 sec) 
Heartbeat CPU 0 instructions: 34000001 cycles: 12720077 heartbeat IPC: 2.67402 cumulative IPC: 2.67294 (Simulation time: 0 hr 33 min 13 sec) 
Heartbeat CPU 0 instructions: 36000003 cycles: 13468574 heartbeat IPC: 2.67202 cumulative IPC: 2.67289 (Simulation time: 0 hr 35 min 7 sec) 
Heartbeat CPU 0 instructions: 38000003 cycles: 14216564 heartbeat IPC: 2.67383 cumulative IPC: 2.67294 (Simulation time: 0 hr 37 min 3 sec) 
Heartbeat CPU 0 instructions: 40000004 cycles: 14965096 heartbeat IPC: 2.6719 cumulative IPC: 2.67289 (Simulation time: 0 hr 39 min 4 sec) 
Heartbeat CPU 0 instructions: 42000001 cycles: 15713201 heartbeat IPC: 2.67342 cumulative IPC: 2.67291 (Simulation time: 0 hr 40 min 55 sec) 
Heartbeat CPU 0 instructions: 44000004 cycles: 16461641 heartbeat IPC: 2.67223 cumulative IPC: 2.67288 (Simulation time: 0 hr 42 min 48 sec) 
Heartbeat CPU 0 instructions: 46000001 cycles: 17209778 heartbeat IPC: 2.6733 cumulative IPC: 2.6729 (Simulation time: 0 hr 44 min 34 sec) 
Heartbeat CPU 0 instructions: 48000001 cycles: 17958227 heartbeat IPC: 2.67219 cumulative IPC: 2.67287 (Simulation time: 0 hr 46 min 30 sec) 
Heartbeat CPU 0 instructions: 50000000 cycles: 18706470 heartbeat IPC: 2.67293 cumulative IPC: 2.67287 (Simulation time: 0 hr 48 min 20 sec) 

Warmup complete CPU 0 instructions: 50000005 cycles: 18706473 (Simulation time: 0 hr 48 min 20 sec) 

Heartbeat CPU 0 instructions: 52000001 cycles: 19984980 heartbeat IPC: 1.56432 cumulative IPC: 1.56432 (Simulation time: 0 hr 50 min 39 sec) 

Region of Interest Statistics
cpu0_DTLB TOTAL     ACCESS:     531597  HIT:     456557  MISS:      75040
cpu0_DTLB LOAD      ACCESS:     456585  HIT:     390571  MISS:      66014
cpu0_DTLB RFO       ACCESS:      75012  HIT:      65986  MISS:       9026
cpu0_DTLB PREFETCH  ACCESS:          0  HIT:          0  MISS:          0
cpu0_DTLB WRITEBACK ACCESS:          0  HIT:          0  MISS:          0
cpu0_ITLB TOTAL     ACCESS:      38912  HIT:      38912  MISS:          0
cpu0_ITLB LOAD      ACCESS:      38912  HIT:      38912  MISS:          0
cpu0_ITLB RFO       ACCESS:          0  HIT:          0  MISS:          0
cpu0_ITLB PREFETCH  ACCESS:          0  HIT:          0  MISS:          0
cpu0_ITLB WRITEBACK ACCESS:          0  HIT:          0  MISS:          0
cpu0_L1I TOTAL     ACCESS:     195879  HIT:     166406  MISS:      29473
cpu0_L1I LOAD      ACCESS:     195879  HIT:     166406  MISS:      29473
cpu0_L1I RFO       ACCESS:          0  HIT:          0  MISS:          0
cpu0_L1I PREFETCH  ACCESS:          0  HIT:          0  MISS:          0
cpu0_L1I WRITEBACK ACCESS:          0  HIT:          0  MISS:          0
cpu0_STLB TOTAL     ACCESS:      75040  HIT:      74974  MISS:         66
cpu0_STLB LOAD      ACCESS:      66014  HIT:      65949  MISS:         65
cpu0_STLB RFO       ACCESS:       9026  HIT:       9025  MISS:          1
cpu0_STLB PREFETCH  ACCESS:          0  HIT:          0  MISS:          0
cpu0_STLB WRITEBACK ACCESS:          0  HIT:          0  MISS:          0
cpu0_L1D TOTAL     ACCESS:     750886  HIT:     605557  MISS:     145329
cpu0_L1D LOAD      ACCESS:     593562  HIT:     460426  MISS:     133136
cpu0_L1D RFO       ACCESS:     157258  HIT:     145131  MISS:      12127
cpu0_L1D PREFETCH  ACCESS:          0  HIT:          0  MISS:          0
cpu0_L1D WRITEBACK ACCESS:          0  HIT:          0  MISS:          0
cpu0_L2C TOTAL     ACCESS:     187713  HIT:     177554  MISS:      10159
cpu0_L2C LOAD      ACCESS:     162588  HIT:     153641  MISS:       8947
cpu0_L2C RFO       ACCESS:      12114  HIT:      10922  MISS:       1192
cpu0_L2C PREFETCH  ACCESS:          0  HIT:          0  MISS:          0
cpu0_L2C WRITEBACK ACCESS:      12945  HIT:      12939  MISS:          6
LLC TOTAL     ACCESS:      11154  HIT:       5857  MISS:       5297
LLC LOAD      ACCESS:       8947  HIT:       4829  MISS:       4118
LLC RFO       ACCESS:       1186  HIT:         13  MISS:       1173
LLC PREFETCH  ACCESS:          0  HIT:          0  MISS:          0
LLC WRITEBACK ACCESS:       1007  HIT:       1003  MISS:          4
Heartbeat CPU 0 instructions: 54000003 cycles: 21246075 heartbeat IPC: 1.58592 cumulative IPC: 1.57505 (Simulation time: 0 hr 52 min 51 sec) 

Region of Interest Statistics
cpu0_DTLB TOTAL     ACCESS:    1063184  HIT:     913000  MISS:     150184
cpu0_DTLB LOAD      ACCESS:     913214  HIT:     781206  MISS:     132008
cpu0_DTLB RFO       ACCESS:     149970  HIT:     131794  MISS:      18176
cpu0_DTLB PREFETCH  ACCESS:          0  HIT:          0  MISS:          0
cpu0_DTLB WRITEBACK ACCESS:          0  HIT:          0  MISS:          0
cpu0_ITLB TOTAL     ACCESS:      77716  HIT:      77716  MISS:          0
cpu0_ITLB LOAD      ACCESS:      77716  HIT:      77716  MISS:          0
cpu0_ITLB RFO       ACCESS:          0  HIT:          0  MISS:          0
cpu0_ITLB PREFETCH  ACCESS:          0  HIT:          0  MISS:          0
cpu0_ITLB WRITEBACK ACCESS:          0  HIT:          0  MISS:          0
cpu0_L1I TOTAL     ACCESS:     391622  HIT:     333705  MISS:      57917
cpu0_L1I LOAD      ACCESS:     391622  HIT:     333705  MISS:      57917
cpu0_L1I RFO       ACCESS:          0  HIT:          0  MISS:          0
cpu0_L1I PREFETCH  ACCESS:          0  HIT:          0  MISS:          0
cpu0_L1I WRITEBACK ACCESS:          0  HIT:          0  MISS:          0
cpu0_STLB TOTAL     ACCESS:     150184  HIT:     150037  MISS:        147
cpu0_STLB LOAD      ACCESS:     132008  HIT:     131887  MISS:        121
cpu0_STLB RFO       ACCESS:      18176  HIT:      18150  MISS:         26
cpu0_STLB PREFETCH  ACCESS:          0  HIT:          0  MISS:          0
cpu0_STLB WRITEBACK ACCESS:          0  HIT:          0  MISS:          0
cpu0_L1D TOTAL     ACCESS:    1501378  HIT:    1210614  MISS:     290764
cpu0_L1D LOAD      ACCESS:    1186827  HIT:     920631  MISS:     266196
cpu0_L1D RFO       ACCESS:     314404  HIT:     289983  MISS:      24421
cpu0_L1D PREFETCH  ACCESS:          0  HIT:          0  MISS:          0
cpu0_L1D WRITEBACK ACCESS:          0  HIT:          0  MISS:          0
cpu0_L2C TOTAL     ACCESS:     374702  HIT:     353022  MISS:      21680
cpu0_L2C LOAD      ACCESS:     324085  HIT:     304820  MISS:      19265
cpu0_L2C RFO       ACCESS:      24394  HIT:      22050  MISS:       2344
cpu0_L2C PREFETCH  ACCESS:          0  HIT:          0  MISS:          0
cpu0_L2C WRITEBACK ACCESS:      26076  HIT:      26064  MISS:         12
LLC TOTAL     ACCESS:      23823  HIT:      13405  MISS:      10418
LLC LOAD      ACCESS:      19265  HIT:      11178  MISS:       8087
LLC RFO       ACCESS:       2338  HIT:         13  MISS:       2325
LLC PREFETCH  ACCESS:          0  HIT:          0  MISS:          0
LLC WRITEBACK ACCESS:       2161  HIT:       2157  MISS:          4
Heartbeat CPU 0 instructions: 56000002 cycles: 22525340 heartbeat IPC: 1.5634 cumulative IPC: 1.57115 (Simulation time: 0 hr 55 min 20 sec) 

Region of Interest Statistics
cpu0_DTLB TOTAL     ACCESS:    1593235  HIT:    1367583  MISS:     225652
cpu0_DTLB LOAD      ACCESS:    1368063  HIT:    1169643  MISS:     198420
cpu0_DTLB RFO       ACCESS:     225172  HIT:     197940  MISS:      27232
cpu0_DTLB PREFETCH  ACCESS:          0  HIT:          0  MISS:          0
cpu0_DTLB WRITEBACK ACCESS:          0  HIT:          0  MISS:          0
cpu0_ITLB TOTAL     ACCESS:     116541  HIT:     116541  MISS:          0
cpu0_ITLB LOAD      ACCESS:     116541  HIT:     116541  MISS:          0
cpu0_ITLB RFO       ACCESS:          0  HIT:          0  MISS:          0
cpu0_ITLB PREFETCH  ACCESS:          0  HIT:          0  MISS:          0
cpu0_ITLB WRITEBACK ACCESS:          0  HIT:          0  MISS:          0
cpu0_L1I TOTAL     ACCESS:     587488  HIT:     500674  MISS:      86814
cpu0_L1I LOAD      ACCESS:     587488  HIT:     500674  MISS:      86814
cpu0_L1I RFO       ACCESS:          0  HIT:          0  MISS:          0
cpu0_L1I PREFETCH  ACCESS:          0  HIT:          0  MISS:          0
cpu0_L1I WRITEBACK ACCESS:          0  HIT:          0  MISS:          0
cpu0_STLB TOTAL     ACCESS:     225652  HIT:     225413  MISS:        239
cpu0_STLB LOAD      ACCESS:     198420  HIT:     198232  MISS:        188
cpu0_STLB RFO       ACCESS:      27232  HIT:      27181  MISS:         51
cpu0_STLB PREFETCH  ACCESS:          0  HIT:          0  MISS:          0
cpu0_STLB WRITEBACK ACCESS:          0  HIT:          0  MISS:          0
cpu0_L1D TOTAL     ACCESS:    2251671  HIT:    1815081  MISS:     436590
cpu0_L1D LOAD      ACCESS:    1779854  HIT:    1380133  MISS:     399721
cpu0_L1D RFO       ACCESS:     471578  HIT:     434948  MISS:      36630
cpu0_L1D PREFETCH  ACCESS:          0  HIT:          0  MISS:          0
cpu0_L1D WRITEBACK ACCESS:          0  HIT:          0  MISS:          0
cpu0_L2C TOTAL     ACCESS:     562446  HIT:     529676  MISS:      32770
cpu0_L2C LOAD      ACCESS:     486490  HIT:     457519  MISS:      28971
cpu0_L2C RFO       ACCESS:      36592  HIT:      32924  MISS:       3668
cpu0_L2C PREFETCH  ACCESS:          0  HIT:          0  MISS:          0
cpu0_L2C WRITEBACK ACCESS:      39125  HIT:      39108  MISS:         17
LLC TOTAL     ACCESS:      36226  HIT:      20444  MISS:      15782
LLC LOAD      ACCESS:      28971  HIT:      16731  MISS:      12240
LLC RFO       ACCESS:       3593  HIT:         69  MISS:       3524
LLC PREFETCH  ACCESS:          0  HIT:          0  MISS:          0
LLC WRITEBACK ACCESS:       3548  HIT:       3532  MISS:         16
Heartbeat CPU 0 instructions: 58000002 cycles: 23798093 heartbeat IPC: 1.5714 cumulative IPC: 1.57121 (Simulation time: 0 hr 57 min 41 sec) 

Region of Interest Statistics
cpu0_DTLB TOTAL     ACCESS:    2124644  HIT:    1823584  MISS:     301060
cpu0_DTLB LOAD      ACCESS:    1824463  HIT:    1559776  MISS:     264687
cpu0_DTLB RFO       ACCESS:     300181  HIT:     263808  MISS:      36373
cpu0_DTLB PREFETCH  ACCESS:          0  HIT:          0  MISS:          0
cpu0_DTLB WRITEBACK ACCESS:          0  HIT:          0  MISS:          0
cpu0_ITLB TOTAL     ACCESS:     155474  HIT:     155474  MISS:          0
cpu0_ITLB LOAD      ACCESS:     155474  HIT:     155474  MISS:          0
cpu0_ITLB RFO       ACCESS:          0  HIT:          0  MISS:          0
cpu0_ITLB PREFETCH  ACCESS:          0  HIT:          0  MISS:          0
cpu0_ITLB WRITEBACK ACCESS:          0  HIT:          0  MISS:          0
cpu0_L1I TOTAL     ACCESS:     783416  HIT:     667327  MISS:     116089
cpu0_L1I LOAD      ACCESS:     783416  HIT:     667327  MISS:     116089
cpu0_L1I RFO       ACCESS:          0  HIT:          0  MISS:          0
cpu0_L1I PREFETCH  ACCESS:          0  HIT:          0  MISS:          0
cpu0_L1I WRITEBACK ACCESS:          0  HIT:          0  MISS:          0
cpu0_STLB TOTAL     ACCESS:     301060  HIT:     300725  MISS:        335
cpu0_STLB LOAD      ACCESS:     264687  HIT:     264428  MISS:        259
cpu0_STLB RFO       ACCESS:      36373  HIT:      36297  MISS:         76
cpu0_STLB PREFETCH  ACCESS:          0  HIT:          0  MISS:          0
cpu0_STLB WRITEBACK ACCESS:          0  HIT:          0  MISS:          0
cpu0_L1D TOTAL     ACCESS:    3002892  HIT:    2420655  MISS:     582237
cpu0_L1D LOAD      ACCESS:    2373830  HIT:    1840705  MISS:     533125
cpu0_L1D RFO       ACCESS:     628727  HIT:     579950  MISS:      48777
cpu0_L1D PREFETCH  ACCESS:          0  HIT:          0  MISS:          0
cpu0_L1D WRITEBACK ACCESS:          0  HIT:          0  MISS:          0
cpu0_L2C TOTAL     ACCESS:     750332  HIT:     707149  MISS:      43183
cpu0_L2C LOAD      ACCESS:     649148  HIT:     611169  MISS:      37979
cpu0_L2C RFO       ACCESS:      48729  HIT:      43719  MISS:       5010
cpu0_L2C PREFETCH  ACCESS:          0  HIT:          0  MISS:          0
cpu0_L2C WRITEBACK ACCESS:      52120  HIT:      52095  MISS:         25
LLC TOTAL     ACCESS:      47870  HIT:      26784  MISS:      21086
LLC LOAD      ACCESS:      37979  HIT:      21632  MISS:      16347
LLC RFO       ACCESS:       4840  HIT:        165  MISS:       4675
LLC PREFETCH  ACCESS:          0  HIT:          0  MISS:          0
LLC WRITEBACK ACCESS:       4882  HIT:       4820  MISS:         62
Heartbeat CPU 0 instructions: 60000004 cycles: 25076695 heartbeat IPC: 1.56421 cumulative IPC: 1.5698 (Simulation time: 0 hr 59 min 58 sec) 

Region of Interest Statistics
cpu0_DTLB TOTAL     ACCESS:    2655312  HIT:    2278995  MISS:     376317
cpu0_DTLB LOAD      ACCESS:    2280034  HIT:    1949222  MISS:     330812
cpu0_DTLB RFO       ACCESS:     375278  HIT:     329773  MISS:      45505
cpu0_DTLB PREFETCH  ACCESS:          0  HIT:          0  MISS:          0
cpu0_DTLB WRITEBACK ACCESS:          0  HIT:          0  MISS:          0
cpu0_ITLB TOTAL     ACCESS:     194492  HIT:     194492  MISS:          0
cpu0_ITLB LOAD      ACCESS:     194492  HIT:     194492  MISS:          0
cpu0_ITLB RFO       ACCESS:          0  HIT:          0  MISS:          0
cpu0_ITLB PREFETCH  ACCESS:          0  HIT:          0  MISS:          0
cpu0_ITLB WRITEBACK ACCESS:          0  HIT:          0  MISS:          0
cpu0_L1I TOTAL     ACCESS:     979466  HIT:     834257  MISS:     145209
cpu0_L1I LOAD      ACCESS:     979466  HIT:     834257  MISS:     145209
cpu0_L1I RFO       ACCESS:          0  HIT:          0  MISS:          0
cpu0_L1I PREFETCH  ACCESS:          0  HIT:          0  MISS:          0
cpu0_L1I WRITEBACK ACCESS:          0  HIT:          0  MISS:          0
cpu0_STLB TOTAL     ACCESS:     376317  HIT:     375933  MISS:        384
cpu0_STLB LOAD      ACCESS:     330812  HIT:     330504  MISS:        308
cpu0_STLB RFO       ACCESS:      45505  HIT:      45429  MISS:         76
cpu0_STLB PREFETCH  ACCESS:          0  HIT:          0  MISS:          0
cpu0_STLB WRITEBACK ACCESS:          0  HIT:          0  MISS:          0
cpu0_L1D TOTAL     ACCESS:    3753394  HIT:    3026123  MISS:     727271
cpu0_L1D LOAD      ACCESS:    2967035  HIT:    2301072  MISS:     665963
cpu0_L1D RFO       ACCESS:     785975  HIT:     725051  MISS:      60924
cpu0_L1D PREFETCH  ACCESS:          0  HIT:          0  MISS:          0
cpu0_L1D WRITEBACK ACCESS:          0  HIT:          0  MISS:          0
cpu0_L2C TOTAL     ACCESS:     937459  HIT:     883311  MISS:      54148
cpu0_L2C LOAD      ACCESS:     811091  HIT:     763471  MISS:      47620
cpu0_L2C RFO       ACCESS:      60863  HIT:      54546  MISS:       6317
cpu0_L2C PREFETCH  ACCESS:          0  HIT:          0  MISS:          0
cpu0_L2C WRITEBACK ACCESS:      65121  HIT:      65090  MISS:         31
LLC TOTAL     ACCESS:      60132  HIT:      33722  MISS:      26410
LLC LOAD      ACCESS:      47620  HIT:      27124  MISS:      20496
LLC RFO       ACCESS:       6066  HIT:        216  MISS:       5850
LLC PREFETCH  ACCESS:          0  HIT:          0  MISS:          0
LLC WRITEBACK ACCESS:       6266  HIT:       6204  MISS:         62
Heartbeat CPU 0 instructions: 62000004 cycles: 26345525 heartbeat IPC: 1.57626 cumulative IPC: 1.57088 (Simulation time: 1 hr 2 min 15 sec) 

Region of Interest Statistics
cpu0_DTLB TOTAL     ACCESS:    3186309  HIT:    2734444  MISS:     451865
cpu0_DTLB LOAD      ACCESS:    2735999  HIT:    2338691  MISS:     397308
cpu0_DTLB RFO       ACCESS:     450310  HIT:     395753  MISS:      54557
cpu0_DTLB PREFETCH  ACCESS:          0  HIT:          0  MISS:          0
cpu0_DTLB WRITEBACK ACCESS:          0  HIT:          0  MISS:          0
cpu0_ITLB TOTAL     ACCESS:     233370  HIT:     233370  MISS:          0
cpu0_ITLB LOAD      ACCESS:     233370  HIT:     233370  MISS:          0
cpu0_ITLB RFO       ACCESS:          0  HIT:          0  MISS:          0
cpu0_ITLB PREFETCH  ACCESS:          0  HIT:          0  MISS:          0
cpu0_ITLB WRITEBACK ACCESS:          0  HIT:          0  MISS:          0
cpu0_L1I TOTAL     ACCESS:    1175387  HIT:    1001627  MISS:     173760
cpu0_L1I LOAD      ACCESS:    1175387  HIT:    1001627  MISS:     173760
cpu0_L1I RFO       ACCESS:          0  HIT:          0  MISS:          0
cpu0_L1I PREFETCH  ACCESS:          0  HIT:          0  MISS:          0
cpu0_L1I WRITEBACK ACCESS:          0  HIT:          0  MISS:          0
cpu0_STLB TOTAL     ACCESS:     451865  HIT:     451385  MISS:        480
cpu0_STLB LOAD      ACCESS:     397308  HIT:     396929  MISS:        379
cpu0_STLB RFO       ACCESS:      54557  HIT:      54456  MISS:        101
cpu0_STLB PREFETCH  ACCESS:          0  HIT:          0  MISS:          0
cpu0_STLB WRITEBACK ACCESS:          0  HIT:          0  MISS:          0
cpu0_L1D TOTAL     ACCESS:    4503210  HIT:    3630303  MISS:     872907
cpu0_L1D LOAD      ACCESS:    3559633  HIT:    2760349  MISS:     799284
cpu0_L1D RFO       ACCESS:     943097  HIT:     869954  MISS:      73143
cpu0_L1D PREFETCH  ACCESS:          0  HIT:          0  MISS:          0
cpu0_L1D WRITEBACK ACCESS:          0  HIT:          0  MISS:          0
cpu0_L2C TOTAL     ACCESS:    1124681  HIT:    1060143  MISS:      64538
cpu0_L2C LOAD      ACCESS:     972951  HIT:     916171  MISS:      56780
cpu0_L2C RFO       ACCESS:      73071  HIT:      65575  MISS:       7496
cpu0_L2C PREFETCH  ACCESS:          0  HIT:          0  MISS:          0
cpu0_L2C WRITEBACK ACCESS:      78179  HIT:      78144  MISS:         35
LLC TOTAL     ACCESS:      71700  HIT:      40066  MISS:      31634
LLC LOAD      ACCESS:      56780  HIT:      32236  MISS:      24544
LLC RFO       ACCESS:       7244  HIT:        219  MISS:       7025
LLC PREFETCH  ACCESS:          0  HIT:          0  MISS:          0
LLC WRITEBACK ACCESS:       7449  HIT:       7386  MISS:         63
Heartbeat CPU 0 instructions: 64000001 cycles: 27613047 heartbeat IPC: 1.57788 cumulative IPC: 1.57187 (Simulation time: 1 hr 4 min 33 sec) 

Region of Interest Statistics
cpu0_DTLB TOTAL     ACCESS:    3716153  HIT:    3188990  MISS:     527163
cpu0_DTLB LOAD      ACCESS:    3190597  HIT:    2727038  MISS:     463559
cpu0_DTLB RFO       ACCESS:     525556  HIT:     461952  MISS:      63604
cpu0_DTLB PREFETCH  ACCESS:          0  HIT:          0  MISS:          0
cpu0_DTLB WRITEBACK ACCESS:          0  HIT:          0  MISS:          0
cpu0_ITLB TOTAL     ACCESS:     272267  HIT:     272267  MISS:          0
cpu0_ITLB LOAD      ACCESS:     272267  HIT:     272267  MISS:          0
cpu0_ITLB RFO       ACCESS:          0  HIT:          0  MISS:          0
cpu0_ITLB PREFETCH  ACCESS:          0  HIT:          0  MISS:          0
cpu0_ITLB WRITEBACK ACCESS:          0  HIT:          0  MISS:          0
cpu0_L1I TOTAL     ACCESS:    1371269  HIT:    1168574  MISS:     202695
cpu0_L1I LOAD      ACCESS:    1371269  HIT:    1168574  MISS:     202695
cpu0_L1I RFO       ACCESS:          0  HIT:          0  MISS:          0
cpu0_L1I PREFETCH  ACCESS:          0  HIT:          0  MISS:          0
cpu0_L1I WRITEBACK ACCESS:          0  HIT:          0  MISS:          0
cpu0_STLB TOTAL     ACCESS:     527163  HIT:     526595  MISS:        568
cpu0_STLB LOAD      ACCESS:     463559  HIT:     463117  MISS:        442
cpu0_STLB RFO       ACCESS:      63604  HIT:      63478  MISS:        126
cpu0_STLB PREFETCH  ACCESS:          0  HIT:          0  MISS:          0
cpu0_STLB WRITEBACK ACCESS:          0  HIT:          0  MISS:          0
cpu0_L1D TOTAL     ACCESS:    5253269  HIT:    4234785  MISS:    1018484
cpu0_L1D LOAD      ACCESS:    4152378  HIT:    3219822  MISS:     932556
cpu0_L1D RFO       ACCESS:    1100323  HIT:    1014963  MISS:      85360
cpu0_L1D PREFETCH  ACCESS:          0  HIT:          0  MISS:          0
cpu0_L1D WRITEBACK ACCESS:          0  HIT:          0  MISS:          0
cpu0_L2C TOTAL     ACCESS:    1312261  HIT:    1236644  MISS:      75617
cpu0_L2C LOAD      ACCESS:    1135133  HIT:    1068529  MISS:      66604
cpu0_L2C RFO       ACCESS:      85280  HIT:      76588  MISS:       8692
cpu0_L2C PREFETCH  ACCESS:          0  HIT:          0  MISS:          0
cpu0_L2C WRITEBACK ACCESS:      91280  HIT:      91245  MISS:         35
LLC TOTAL     ACCESS:      83901  HIT:      47070  MISS:      36831
LLC LOAD      ACCESS:      66603  HIT:      38012  MISS:      28591
LLC RFO       ACCESS:       8416  HIT:        241  MISS:       8175
LLC PREFETCH  ACCESS:          0  HIT:          0  MISS:          0
LLC WRITEBACK ACCESS:       8596  HIT:       8533  MISS:         63
Heartbeat CPU 0 instructions: 66000004 cycles: 28880350 heartbeat IPC: 1.57816 cumulative IPC: 1.57266 (Simulation time: 1 hr 6 min 46 sec) 

Region of Interest Statistics
cpu0_DTLB TOTAL     ACCESS:    4247830  HIT:    3645270  MISS:     602560
cpu0_DTLB LOAD      ACCESS:    3647155  HIT:    3117296  MISS:     529859
cpu0_DTLB RFO       ACCESS:     600675  HIT:     527974  MISS:      72701
cpu0_DTLB PREFETCH  ACCESS:          0  HIT:          0  MISS:          0
cpu0_DTLB WRITEBACK ACCESS:          0  HIT:          0  MISS:          0
cpu0_ITLB TOTAL     ACCESS:     311206  HIT:     311206  MISS:          0
cpu0_ITLB LOAD      ACCESS:     311206  HIT:     311206  MISS:          0
cpu0_ITLB RFO       ACCESS:          0  HIT:          0  MISS:          0
cpu0_ITLB PREFETCH  ACCESS:          0  HIT:          0  MISS:          0
cpu0_ITLB WRITEBACK ACCESS:          0  HIT:          0  MISS:          0
cpu0_L1I TOTAL     ACCESS:    1567013  HIT:    1335681  MISS:     231332
cpu0_L1I LOAD      ACCESS:    1567013  HIT:    1335681  MISS:     231332
cpu0_L1I RFO       ACCESS:          0  HIT:          0  MISS:          0
cpu0_L1I PREFETCH  ACCESS:          0  HIT:          0  MISS:          0
cpu0_L1I WRITEBACK ACCESS:          0  HIT:          0  MISS:          0
cpu0_STLB TOTAL     ACCESS:     602560  HIT:     601928  MISS:        632
cpu0_STLB LOAD      ACCESS:     529859  HIT:     529353  MISS:        506
cpu0_STLB RFO       ACCESS:      72701  HIT:      72575  MISS:        126
cpu0_STLB PREFETCH  ACCESS:          0  HIT:          0  MISS:          0
cpu0_STLB WRITEBACK ACCESS:          0  HIT:          0  MISS:          0
cpu0_L1D TOTAL     ACCESS:    6004776  HIT:    4840319  MISS:    1164457
cpu0_L1D LOAD      ACCESS:    4746615  HIT:    3680238  MISS:    1066377
cpu0_L1D RFO       ACCESS:    1257529  HIT:    1160081  MISS:      97448
cpu0_L1D PREFETCH  ACCESS:          0  HIT:          0  MISS:          0
cpu0_L1D WRITEBACK ACCESS:          0  HIT:          0  MISS:          0
cpu0_L2C TOTAL     ACCESS:    1499795  HIT:    1413342  MISS:      86453
cpu0_L2C LOAD      ACCESS:    1297564  HIT:    1221413  MISS:      76151
cpu0_L2C RFO       ACCESS:      97356  HIT:      87399  MISS:       9957
cpu0_L2C PREFETCH  ACCESS:          0  HIT:          0  MISS:          0
cpu0_L2C WRITEBACK ACCESS:     104243  HIT:     104207  MISS:         36
LLC TOTAL     ACCESS:      95895  HIT:      53875  MISS:      42020
LLC LOAD      ACCESS:      76150  HIT:      43545  MISS:      32605
LLC RFO       ACCESS:       9634  HIT:        284  MISS:       9350
LLC PREFETCH  ACCESS:          0  HIT:          0  MISS:          0
LLC WRITEBACK ACCESS:       9802  HIT:       9739  MISS:         63
Heartbeat CPU 0 instructions: 68000004 cycles: 30159015 heartbeat IPC: 1.56413 cumulative IPC: 1.5717 (Simulation time: 1 hr 9 min 2 sec) 

Region of Interest Statistics
cpu0_DTLB TOTAL     ACCESS:    4779801  HIT:    4101802  MISS:     677999
cpu0_DTLB LOAD      ACCESS:    4103272  HIT:    3507065  MISS:     596207
cpu0_DTLB RFO       ACCESS:     676529  HIT:     594737  MISS:      81792
cpu0_DTLB PREFETCH  ACCESS:          0  HIT:          0  MISS:          0
cpu0_DTLB WRITEBACK ACCESS:          0  HIT:          0  MISS:          0
cpu0_ITLB TOTAL     ACCESS:     350078  HIT:     350078  MISS:          0
cpu0_ITLB LOAD      ACCESS:     350078  HIT:     350078  MISS:          0
cpu0_ITLB RFO       ACCESS:          0  HIT:          0  MISS:          0
cpu0_ITLB PREFETCH  ACCESS:          0  HIT:          0  MISS:          0
cpu0_ITLB WRITEBACK ACCESS:          0  HIT:          0  MISS:          0
cpu0_L1I TOTAL     ACCESS:    1762754  HIT:    1503257  MISS:     259497
cpu0_L1I LOAD      ACCESS:    1762754  HIT:    1503257  MISS:     259497
cpu0_L1I RFO       ACCESS:          0  HIT:          0  MISS:          0
cpu0_L1I PREFETCH  ACCESS:          0  HIT:          0  MISS:          0
cpu0_L1I WRITEBACK ACCESS:          0  HIT:          0  MISS:          0
cpu0_STLB TOTAL     ACCESS:     677999  HIT:     677282  MISS:        717
cpu0_STLB LOAD      ACCESS:     596207  HIT:     595641  MISS:        566
cpu0_STLB RFO       ACCESS:      81792  HIT:      81641  MISS:        151
cpu0_STLB PREFETCH  ACCESS:          0  HIT:          0  MISS:          0
cpu0_STLB WRITEBACK ACCESS:          0  HIT:          0  MISS:          0
cpu0_L1D TOTAL     ACCESS:    6755225  HIT:    5445490  MISS:    1309735
cpu0_L1D LOAD      ACCESS:    5339668  HIT:    4140301  MISS:    1199367
cpu0_L1D RFO       ACCESS:    1414840  HIT:    1305189  MISS:     109651
cpu0_L1D PREFETCH  ACCESS:          0  HIT:          0  MISS:          0
cpu0_L1D WRITEBACK ACCESS:          0  HIT:          0  MISS:          0
cpu0_L2C TOTAL     ACCESS:    1686220  HIT:    1587099  MISS:      99121
cpu0_L2C LOAD      ACCESS:    1458702  HIT:    1372190  MISS:      86512
cpu0_L2C RFO       ACCESS:     109550  HIT:      97342  MISS:      12208
cpu0_L2C PREFETCH  ACCESS:          0  HIT:          0  MISS:          0
cpu0_L2C WRITEBACK ACCESS:     117251  HIT:     117215  MISS:         36
LLC TOTAL     ACCESS:     109894  HIT:      62545  MISS:      47349
LLC LOAD      ACCESS:      86511  HIT:      49777  MISS:      36734
LLC RFO       ACCESS:      10893  HIT:        343  MISS:      10550
LLC PREFETCH  ACCESS:          0  HIT:          0  MISS:          0
LLC WRITEBACK ACCESS:      12125  HIT:      12062  MISS:         63
Heartbeat CPU 0 instructions: 70000000 cycles: 31422209 heartbeat IPC: 1.58328 cumulative IPC: 1.57285 (Simulation time: 1 hr 11 min 17 sec) 

Region of Interest Statistics
cpu0_DTLB TOTAL     ACCESS:    5311293  HIT:    4557941  MISS:     753352
cpu0_DTLB LOAD      ACCESS:    4559116  HIT:    3896611  MISS:     662505
cpu0_DTLB RFO       ACCESS:     752177  HIT:     661330  MISS:      90847
cpu0_DTLB PREFETCH  ACCESS:          0  HIT:          0  MISS:          0
cpu0_DTLB WRITEBACK ACCESS:          0  HIT:          0  MISS:          0
cpu0_ITLB TOTAL     ACCESS:     388853  HIT:     388853  MISS:          0
cpu0_ITLB LOAD      ACCESS:     388853  HIT:     388853  MISS:          0
cpu0_ITLB RFO       ACCESS:          0  HIT:          0  MISS:          0
cpu0_ITLB PREFETCH  ACCESS:          0  HIT:          0  MISS:          0
cpu0_ITLB WRITEBACK ACCESS:          0  HIT:          0  MISS:          0
cpu0_L1I TOTAL     ACCESS:    1958380  HIT:    1670668  MISS:     287712
cpu0_L1I LOAD      ACCESS:    1958380  HIT:    1670668  MISS:     287712
cpu0_L1I RFO       ACCESS:          0  HIT:          0  MISS:          0
cpu0_L1I PREFETCH  ACCESS:          0  HIT:          0  MISS:          0
cpu0_L1I WRITEBACK ACCESS:          0  HIT:          0  MISS:          0
cpu0_STLB TOTAL     ACCESS:     753352  HIT:     752543  MISS:        809
cpu0_STLB LOAD      ACCESS:     662505  HIT:     661872  MISS:        633
cpu0_STLB RFO       ACCESS:      90847  HIT:      90671  MISS:        176
cpu0_STLB PREFETCH  ACCESS:          0  HIT:          0  MISS:          0
cpu0_STLB WRITEBACK ACCESS:          0  HIT:          0  MISS:          0
cpu0_L1D TOTAL     ACCESS:    7506168  HIT:    6050703  MISS:    1455465
cpu0_L1D LOAD      ACCESS:    5933381  HIT:    4600621  MISS:    1332760
cpu0_L1D RFO       ACCESS:    1571978  HIT:    1450082  MISS:     121896
cpu0_L1D PREFETCH  ACCESS:          0  HIT:          0  MISS:          0
cpu0_L1D WRITEBACK ACCESS:          0  HIT:          0  MISS:          0
cpu0_L2C TOTAL     ACCESS:    1873285  HIT:    1762180  MISS:     111105
cpu0_L2C LOAD      ACCESS:    1620291  HIT:    1523680  MISS:      96611
cpu0_L2C RFO       ACCESS:     121783  HIT:     107752  MISS:      14031
cpu0_L2C PREFETCH  ACCESS:          0  HIT:          0  MISS:          0
cpu0_L2C WRITEBACK ACCESS:     130402  HIT:     130362  MISS:         40
LLC TOTAL     ACCESS:     123195  HIT:      70655  MISS:      52540
LLC LOAD      ACCESS:      96610  HIT:      55835  MISS:      40775
LLC RFO       ACCESS:      12095  HIT:        395  MISS:      11700
LLC PREFETCH  ACCESS:          0  HIT:          0  MISS:          0
LLC WRITEBACK ACCESS:      14067  HIT:      14004  MISS:         63
Heartbeat CPU 0 instructions: 72000004 cycles: 32694869 heartbeat IPC: 1.57151 cumulative IPC: 1.57273 (Simulation time: 1 hr 13 min 48 sec) 

Region of Interest Statistics
cpu0_DTLB TOTAL     ACCESS:    5841733  HIT:    5012612  MISS:     829121
cpu0_DTLB LOAD      ACCESS:    5014498  HIT:    4285251  MISS:     729247
cpu0_DTLB RFO       ACCESS:     827235  HIT:     727361  MISS:      99874
cpu0_DTLB PREFETCH  ACCESS:          0  HIT:          0  MISS:          0
cpu0_DTLB WRITEBACK ACCESS:          0  HIT:          0  MISS:          0
cpu0_ITLB TOTAL     ACCESS:     427775  HIT:     427775  MISS:          0
cpu0_ITLB LOAD      ACCESS:     427775  HIT:     427775  MISS:          0
cpu0_ITLB RFO       ACCESS:          0  HIT:          0  MISS:          0
cpu0_ITLB PREFETCH  ACCESS:          0  HIT:          0  MISS:          0
cpu0_ITLB WRITEBACK ACCESS:          0  HIT:          0  MISS:          0
cpu0_L1I TOTAL     ACCESS:    2154317  HIT:    1837567  MISS:     316750
cpu0_L1I LOAD      ACCESS:    2154317  HIT:    1837567  MISS:     316750
cpu0_L1I RFO       ACCESS:          0  HIT:          0  MISS:          0
cpu0_L1I PREFETCH  ACCESS:          0  HIT:          0  MISS:          0
cpu0_L1I WRITEBACK ACCESS:          0  HIT:          0  MISS:          0
cpu0_STLB TOTAL     ACCESS:     829121  HIT:     828220  MISS:        901
cpu0_STLB LOAD      ACCESS:     729247  HIT:     728547  MISS:        700
cpu0_STLB RFO       ACCESS:      99874  HIT:      99673  MISS:        201
cpu0_STLB PREFETCH  ACCESS:          0  HIT:          0  MISS:          0
cpu0_STLB WRITEBACK ACCESS:          0  HIT:          0  MISS:          0
cpu0_L1D TOTAL     ACCESS:    8256724  HIT:    6655859  MISS:    1600865
cpu0_L1D LOAD      ACCESS:    6526650  HIT:    5060799  MISS:    1465851
cpu0_L1D RFO       ACCESS:    1729173  HIT:    1595060  MISS:     134113
cpu0_L1D PREFETCH  ACCESS:          0  HIT:          0  MISS:          0
cpu0_L1D WRITEBACK ACCESS:          0  HIT:          0  MISS:          0
cpu0_L2C TOTAL     ACCESS:    2060759  HIT:    1938494  MISS:     122265
cpu0_L2C LOAD      ACCESS:    1782395  HIT:    1676077  MISS:     106318
cpu0_L2C RFO       ACCESS:     133986  HIT:     118580  MISS:      15406
cpu0_L2C PREFETCH  ACCESS:          0  HIT:          0  MISS:          0
cpu0_L2C WRITEBACK ACCESS:     143477  HIT:     143422  MISS:         55
LLC TOTAL     ACCESS:     135504  HIT:      77640  MISS:      57864
LLC LOAD      ACCESS:     106317  HIT:      61426  MISS:      44891
LLC RFO       ACCESS:      13324  HIT:        449  MISS:      12875
LLC PREFETCH  ACCESS:          0  HIT:          0  MISS:          0
LLC WRITEBACK ACCESS:      15377  HIT:      15281  MISS:         96
Heartbeat CPU 0 instructions: 74000003 cycles: 33964011 heartbeat IPC: 1.57587 cumulative IPC: 1.57299 (Simulation time: 1 hr 15 min 59 sec) 

Region of Interest Statistics
cpu0_DTLB TOTAL     ACCESS:    6372501  HIT:    5467874  MISS:     904627
cpu0_DTLB LOAD      ACCESS:    5470467  HIT:    4674766  MISS:     795701
cpu0_DTLB RFO       ACCESS:     902034  HIT:     793108  MISS:     108926
cpu0_DTLB PREFETCH  ACCESS:          0  HIT:          0  MISS:          0
cpu0_DTLB WRITEBACK ACCESS:          0  HIT:          0  MISS:          0
cpu0_ITLB TOTAL     ACCESS:     466633  HIT:     466633  MISS:          0
cpu0_ITLB LOAD      ACCESS:     466633  HIT:     466633  MISS:          0
cpu0_ITLB RFO       ACCESS:          0  HIT:          0  MISS:          0
cpu0_ITLB PREFETCH  ACCESS:          0  HIT:          0  MISS:          0
cpu0_ITLB WRITEBACK ACCESS:          0  HIT:          0  MISS:          0
cpu0_L1I TOTAL     ACCESS:    2350135  HIT:    2004423  MISS:     345712
cpu0_L1I LOAD      ACCESS:    2350135  HIT:    2004423  MISS:     345712
cpu0_L1I RFO       ACCESS:          0  HIT:          0  MISS:          0
cpu0_L1I PREFETCH  ACCESS:          0  HIT:          0  MISS:          0
cpu0_L1I WRITEBACK ACCESS:          0  HIT:          0  MISS:          0
cpu0_STLB TOTAL     ACCESS:     904627  HIT:     903673  MISS:        954
cpu0_STLB LOAD      ACCESS:     795701  HIT:     794948  MISS:        753
cpu0_STLB RFO       ACCESS:     108926  HIT:     108725  MISS:        201
cpu0_STLB PREFETCH  ACCESS:          0  HIT:          0  MISS:          0
cpu0_STLB WRITEBACK ACCESS:          0  HIT:          0  MISS:          0
cpu0_L1D TOTAL     ACCESS:    9007764  HIT:    7261278  MISS:    1746486
cpu0_L1D LOAD      ACCESS:    7120476  HIT:    5521259  MISS:    1599217
cpu0_L1D RFO       ACCESS:    1886334  HIT:    1740019  MISS:     146315
cpu0_L1D PREFETCH  ACCESS:          0  HIT:          0  MISS:          0
cpu0_L1D WRITEBACK ACCESS:          0  HIT:          0  MISS:          0
cpu0_L2C TOTAL     ACCESS:    2248369  HIT:    2115878  MISS:     132491
cpu0_L2C LOAD      ACCESS:    1944705  HIT:    1829386  MISS:     115319
cpu0_L2C RFO       ACCESS:     146170  HIT:     129578  MISS:      16592
cpu0_L2C PREFETCH  ACCESS:          0  HIT:          0  MISS:          0
cpu0_L2C WRITEBACK ACCESS:     156540  HIT:     156469  MISS:         71
LLC TOTAL     ACCESS:     146862  HIT:      83652  MISS:      63210
LLC LOAD      ACCESS:     115318  HIT:      66358  MISS:      48960
LLC RFO       ACCESS:      14510  HIT:        460  MISS:      14050
LLC PREFETCH  ACCESS:          0  HIT:          0  MISS:          0
LLC WRITEBACK ACCESS:      16525  HIT:      16327  MISS:        198
Heartbeat CPU 0 instructions: 76000003 cycles: 35225438 heartbeat IPC: 1.58551 cumulative IPC: 1.57395 (Simulation time: 1 hr 18 min 25 sec) 

Region of Interest Statistics
cpu0_DTLB TOTAL     ACCESS:    6903465  HIT:    5923296  MISS:     980169
cpu0_DTLB LOAD      ACCESS:    5926473  HIT:    5064268  MISS:     862205
cpu0_DTLB RFO       ACCESS:     976992  HIT:     859028  MISS:     117964
cpu0_DTLB PREFETCH  ACCESS:          0  HIT:          0  MISS:          0
cpu0_DTLB WRITEBACK ACCESS:          0  HIT:          0  MISS:          0
cpu0_ITLB TOTAL     ACCESS:     505428  HIT:     505428  MISS:          0
cpu0_ITLB LOAD      ACCESS:     505428  HIT:     505428  MISS:          0
cpu0_ITLB RFO       ACCESS:          0  HIT:          0  MISS:          0
cpu0_ITLB PREFETCH  ACCESS:          0  HIT:          0  MISS:          0
cpu0_ITLB WRITEBACK ACCESS:          0  HIT:          0  MISS:          0
cpu0_L1I TOTAL     ACCESS:    2545941  HIT:    2171857  MISS:     374084
cpu0_L1I LOAD      ACCESS:    2545941  HIT:    2171857  MISS:     374084
cpu0_L1I RFO       ACCESS:          0  HIT:          0  MISS:          0
cpu0_L1I PREFETCH  ACCESS:          0  HIT:          0  MISS:          0
cpu0_L1I WRITEBACK ACCESS:          0  HIT:          0  MISS:          0
cpu0_STLB TOTAL     ACCESS:     980169  HIT:     979119  MISS:       1050
cpu0_STLB LOAD      ACCESS:     862205  HIT:     861381  MISS:        824
cpu0_STLB RFO       ACCESS:     117964  HIT:     117738  MISS:        226
cpu0_STLB PREFETCH  ACCESS:          0  HIT:          0  MISS:          0
cpu0_STLB WRITEBACK ACCESS:          0  HIT:          0  MISS:          0
cpu0_L1D TOTAL     ACCESS:    9757714  HIT:    7865708  MISS:    1892006
cpu0_L1D LOAD      ACCESS:    7713160  HIT:    5980711  MISS:    1732449
cpu0_L1D RFO       ACCESS:    2043504  HIT:    1884997  MISS:     158507
cpu0_L1D PREFETCH  ACCESS:          0  HIT:          0  MISS:          0
cpu0_L1D WRITEBACK ACCESS:          0  HIT:          0  MISS:          0
cpu0_L2C TOTAL     ACCESS:    2435249  HIT:    2292334  MISS:     142915
cpu0_L2C LOAD      ACCESS:    2106291  HIT:    1981759  MISS:     124532
cpu0_L2C RFO       ACCESS:     158349  HIT:     140607  MISS:      17742
cpu0_L2C PREFETCH  ACCESS:          0  HIT:          0  MISS:          0
cpu0_L2C WRITEBACK ACCESS:     169559  HIT:     169488  MISS:         71
LLC TOTAL     ACCESS:     158449  HIT:      90091  MISS:      68358
LLC LOAD      ACCESS:     124531  HIT:      71578  MISS:      52953
LLC RFO       ACCESS:      15660  HIT:        460  MISS:      15200
LLC PREFETCH  ACCESS:          0  HIT:          0  MISS:          0
LLC WRITEBACK ACCESS:      17688  HIT:      17485  MISS:        203
Heartbeat CPU 0 instructions: 78000000 cycles: 36491530 heartbeat IPC: 1.57966 cumulative IPC: 1.57436 (Simulation time: 1 hr 20 min 41 sec) 

Region of Interest Statistics
cpu0_DTLB TOTAL     ACCESS:    7433628  HIT:    6377794  MISS:    1055834
cpu0_DTLB LOAD      ACCESS:    6381492  HIT:    5452678  MISS:     928814
cpu0_DTLB RFO       ACCESS:    1052136  HIT:     925116  MISS:     127020
cpu0_DTLB PREFETCH  ACCESS:          0  HIT:          0  MISS:          0
cpu0_DTLB WRITEBACK ACCESS:          0  HIT:          0  MISS:          0
cpu0_ITLB TOTAL     ACCESS:     544289  HIT:     544289  MISS:          0
cpu0_ITLB LOAD      ACCESS:     544289  HIT:     544289  MISS:          0
cpu0_ITLB RFO       ACCESS:          0  HIT:          0  MISS:          0
cpu0_ITLB PREFETCH  ACCESS:          0  HIT:          0  MISS:          0
cpu0_ITLB WRITEBACK ACCESS:          0  HIT:          0  MISS:          0
cpu0_L1I TOTAL     ACCESS:    2741836  HIT:    2338944  MISS:     402892
cpu0_L1I LOAD      ACCESS:    2741836  HIT:    2338944  MISS:     402892
cpu0_L1I RFO       ACCESS:          0  HIT:          0  MISS:          0
cpu0_L1I PREFETCH  ACCESS:          0  HIT:          0  MISS:          0
cpu0_L1I WRITEBACK ACCESS:          0  HIT:          0  MISS:          0
cpu0_STLB TOTAL     ACCESS:    1055834  HIT:    1054707  MISS:       1127
cpu0_STLB LOAD      ACCESS:     928814  HIT:     927938  MISS:        876
cpu0_STLB RFO       ACCESS:     127020  HIT:     126769  MISS:        251
cpu0_STLB PREFETCH  ACCESS:          0  HIT:          0  MISS:          0
cpu0_STLB WRITEBACK ACCESS:          0  HIT:          0  MISS:          0
cpu0_L1D TOTAL     ACCESS:   10507738  HIT:    8469859  MISS:    2037879
cpu0_L1D LOAD      ACCESS:    8305924  HIT:    6440018  MISS:    1865906
cpu0_L1D RFO       ACCESS:    2200687  HIT:    2029841  MISS:     170846
cpu0_L1D PREFETCH  ACCESS:          0  HIT:          0  MISS:          0
cpu0_L1D WRITEBACK ACCESS:          0  HIT:          0  MISS:          0
cpu0_L2C TOTAL     ACCESS:    2623140  HIT:    2469984  MISS:     153156
cpu0_L2C LOAD      ACCESS:    2268541  HIT:    2134993  MISS:     133548
cpu0_L2C RFO       ACCESS:     170682  HIT:     151765  MISS:      18917
cpu0_L2C PREFETCH  ACCESS:          0  HIT:          0  MISS:          0
cpu0_L2C WRITEBACK ACCESS:     182790  HIT:     182717  MISS:         73
LLC TOTAL     ACCESS:     169962  HIT:      96387  MISS:      73575
LLC LOAD      ACCESS:     133547  HIT:      76552  MISS:      56995
LLC RFO       ACCESS:      16835  HIT:        460  MISS:      16375
LLC PREFETCH  ACCESS:          0  HIT:          0  MISS:          0
LLC WRITEBACK ACCESS:      18962  HIT:      18759  MISS:        203
Heartbeat CPU 0 instructions: 80000000 cycles: 37768968 heartbeat IPC: 1.56563 cumulative IPC: 1.57377 (Simulation time: 1 hr 22 min 58 sec) 

Region of Interest Statistics
cpu0_DTLB TOTAL     ACCESS:    7963596  HIT:    6831511  MISS:    1132085
cpu0_DTLB LOAD      ACCESS:    6836428  HIT:    5840446  MISS:     995982
cpu0_DTLB RFO       ACCESS:    1127168  HIT:     991065  MISS:     136103
cpu0_DTLB PREFETCH  ACCESS:          0  HIT:          0  MISS:          0
cpu0_DTLB WRITEBACK ACCESS:          0  HIT:          0  MISS:          0
cpu0_ITLB TOTAL     ACCESS:     583150  HIT:     583150  MISS:          0
cpu0_ITLB LOAD      ACCESS:     583150  HIT:     583150  MISS:          0
cpu0_ITLB RFO       ACCESS:          0  HIT:          0  MISS:          0
cpu0_ITLB PREFETCH  ACCESS:          0  HIT:          0  MISS:          0
cpu0_ITLB WRITEBACK ACCESS:          0  HIT:          0  MISS:          0
cpu0_L1I TOTAL     ACCESS:    2937680  HIT:    2506186  MISS:     431494
cpu0_L1I LOAD      ACCESS:    2937680  HIT:    2506186  MISS:     431494
cpu0_L1I RFO       ACCESS:          0  HIT:          0  MISS:          0
cpu0_L1I PREFETCH  ACCESS:          0  HIT:          0  MISS:          0
cpu0_L1I WRITEBACK ACCESS:          0  HIT:          0  MISS:          0
cpu0_STLB TOTAL     ACCESS:    1132085  HIT:    1130862  MISS:       1223
cpu0_STLB LOAD      ACCESS:     995982  HIT:     995035  MISS:        947
cpu0_STLB RFO       ACCESS:     136103  HIT:     135827  MISS:        276
cpu0_STLB PREFETCH  ACCESS:          0  HIT:          0  MISS:          0
cpu0_STLB WRITEBACK ACCESS:          0  HIT:          0  MISS:          0
cpu0_L1D TOTAL     ACCESS:   11257376  HIT:    9073773  MISS:    2183603
cpu0_L1D LOAD      ACCESS:    8898312  HIT:    6898955  MISS:    1999357
cpu0_L1D RFO       ACCESS:    2357841  HIT:    2174818  MISS:     183023
cpu0_L1D PREFETCH  ACCESS:          0  HIT:          0  MISS:          0
cpu0_L1D WRITEBACK ACCESS:          0  HIT:          0  MISS:          0
cpu0_L2C TOTAL     ACCESS:    2810495  HIT:    2647308  MISS:     163187
cpu0_L2C LOAD      ACCESS:    2430573  HIT:    2288223  MISS:     142350
cpu0_L2C RFO       ACCESS:     182838  HIT:     162736  MISS:      20102
cpu0_L2C PREFETCH  ACCESS:          0  HIT:          0  MISS:          0
cpu0_L2C WRITEBACK ACCESS:     195861  HIT:     195788  MISS:         73
LLC TOTAL     ACCESS:     181128  HIT:     102191  MISS:      78937
LLC LOAD      ACCESS:     142349  HIT:      81184  MISS:      61165
LLC RFO       ACCESS:      18020  HIT:        460  MISS:      17560
LLC PREFETCH  ACCESS:          0  HIT:          0  MISS:          0
LLC WRITEBACK ACCESS:      20097  HIT:      19887  MISS:        210
Heartbeat CPU 0 instructions: 82000000 cycles: 39035003 heartbeat IPC: 1.57974 cumulative IPC: 1.57414 (Simulation time: 1 hr 25 min 12 sec) 

Region of Interest Statistics
cpu0_DTLB TOTAL     ACCESS:    8495131  HIT:    7288153  MISS:    1206978
cpu0_DTLB LOAD      ACCESS:    7292990  HIT:    6231145  MISS:    1061845
cpu0_DTLB RFO       ACCESS:    1202141  HIT:    1057008  MISS:     145133
cpu0_DTLB PREFETCH  ACCESS:          0  HIT:          0  MISS:          0
cpu0_DTLB WRITEBACK ACCESS:          0  HIT:          0  MISS:          0
cpu0_ITLB TOTAL     ACCESS:     622085  HIT:     622085  MISS:          0
cpu0_ITLB LOAD      ACCESS:     622085  HIT:     622085  MISS:          0
cpu0_ITLB RFO       ACCESS:          0  HIT:          0  MISS:          0
cpu0_ITLB PREFETCH  ACCESS:          0  HIT:          0  MISS:          0
cpu0_ITLB WRITEBACK ACCESS:          0  HIT:          0  MISS:          0
cpu0_L1I TOTAL     ACCESS:    3133504  HIT:    2673225  MISS:     460279
cpu0_L1I LOAD      ACCESS:    3133504  HIT:    2673225  MISS:     460279
cpu0_L1I RFO       ACCESS:          0  HIT:          0  MISS:          0
cpu0_L1I PREFETCH  ACCESS:          0  HIT:          0  MISS:          0
cpu0_L1I WRITEBACK ACCESS:          0  HIT:          0  MISS:          0
cpu0_STLB TOTAL     ACCESS:    1206978  HIT:    1205691  MISS:       1287
cpu0_STLB LOAD      ACCESS:    1061845  HIT:    1060834  MISS:       1011
cpu0_STLB RFO       ACCESS:     145133  HIT:     144857  MISS:        276
cpu0_STLB PREFETCH  ACCESS:          0  HIT:          0  MISS:          0
cpu0_STLB WRITEBACK ACCESS:          0  HIT:          0  MISS:          0
cpu0_L1D TOTAL     ACCESS:   12007761  HIT:    9678577  MISS:    2329184
cpu0_L1D LOAD      ACCESS:    9491431  HIT:    7358752  MISS:    2132679
cpu0_L1D RFO       ACCESS:    2515043  HIT:    2319825  MISS:     195218
cpu0_L1D PREFETCH  ACCESS:          0  HIT:          0  MISS:          0
cpu0_L1D WRITEBACK ACCESS:          0  HIT:          0  MISS:          0
cpu0_L2C TOTAL     ACCESS:    2997866  HIT:    2825497  MISS:     172369
cpu0_L2C LOAD      ACCESS:    2592660  HIT:    2442311  MISS:     150349
cpu0_L2C RFO       ACCESS:     195015  HIT:     173748  MISS:      21267
cpu0_L2C PREFETCH  ACCESS:          0  HIT:          0  MISS:          0
cpu0_L2C WRITEBACK ACCESS:     208904  HIT:     208831  MISS:         73
LLC TOTAL     ACCESS:     191626  HIT:     107515  MISS:      84111
LLC LOAD      ACCESS:     150348  HIT:      85178  MISS:      65170
LLC RFO       ACCESS:      19185  HIT:        460  MISS:      18725
LLC PREFETCH  ACCESS:          0  HIT:          0  MISS:          0
LLC WRITEBACK ACCESS:      21413  HIT:      21199  MISS:        214
Heartbeat CPU 0 instructions: 84000003 cycles: 40307982 heartbeat IPC: 1.57112 cumulative IPC: 1.57396 (Simulation time: 1 hr 27 min 28 sec) 

Region of Interest Statistics
cpu0_DTLB TOTAL     ACCESS:    9027064  HIT:    7744928  MISS:    1282136
cpu0_DTLB LOAD      ACCESS:    7749155  HIT:    6621202  MISS:    1127953
cpu0_DTLB RFO       ACCESS:    1277909  HIT:    1123726  MISS:     154183
cpu0_DTLB PREFETCH  ACCESS:          0  HIT:          0  MISS:          0
cpu0_DTLB WRITEBACK ACCESS:          0  HIT:          0  MISS:          0
cpu0_ITLB TOTAL     ACCESS:     660995  HIT:     660995  MISS:          0
cpu0_ITLB LOAD      ACCESS:     660995  HIT:     660995  MISS:          0
cpu0_ITLB RFO       ACCESS:          0  HIT:          0  MISS:          0
cpu0_ITLB PREFETCH  ACCESS:          0  HIT:          0  MISS:          0
cpu0_ITLB WRITEBACK ACCESS:          0  HIT:          0  MISS:          0
cpu0_L1I TOTAL     ACCESS:    3329320  HIT:    2840613  MISS:     488707
cpu0_L1I LOAD      ACCESS:    3329320  HIT:    2840613  MISS:     488707
cpu0_L1I RFO       ACCESS:          0  HIT:          0  MISS:          0
cpu0_L1I PREFETCH  ACCESS:          0  HIT:          0  MISS:          0
cpu0_L1I WRITEBACK ACCESS:          0  HIT:          0  MISS:          0
cpu0_STLB TOTAL     ACCESS:    1282136  HIT:    1280768  MISS:       1368
cpu0_STLB LOAD      ACCESS:    1127953  HIT:    1126886  MISS:       1067
cpu0_STLB RFO       ACCESS:     154183  HIT:     153882  MISS:        301
cpu0_STLB PREFETCH  ACCESS:          0  HIT:          0  MISS:          0
cpu0_STLB WRITEBACK ACCESS:          0  HIT:          0  MISS:          0
cpu0_L1D TOTAL     ACCESS:   12757621  HIT:   10283135  MISS:    2474486
cpu0_L1D LOAD      ACCESS:   10084106  HIT:    7818498  MISS:    2265608
cpu0_L1D RFO       ACCESS:    2672147  HIT:    2464637  MISS:     207510
cpu0_L1D PREFETCH  ACCESS:          0  HIT:          0  MISS:          0
cpu0_L1D WRITEBACK ACCESS:          0  HIT:          0  MISS:          0
cpu0_L2C TOTAL     ACCESS:    3184729  HIT:    3001403  MISS:     183326
cpu0_L2C LOAD      ACCESS:    2754006  HIT:    2594832  MISS:     159174
cpu0_L2C RFO       ACCESS:     207293  HIT:     183946  MISS:      23347
cpu0_L2C PREFETCH  ACCESS:          0  HIT:          0  MISS:          0
cpu0_L2C WRITEBACK ACCESS:     222062  HIT:     221989  MISS:         73
LLC TOTAL     ACCESS:     203998  HIT:     114647  MISS:      89351
LLC LOAD      ACCESS:     159173  HIT:      89938  MISS:      69235
LLC RFO       ACCESS:      20574  HIT:        674  MISS:      19900
LLC PREFETCH  ACCESS:          0  HIT:          0  MISS:          0
LLC WRITEBACK ACCESS:      23519  HIT:      23305  MISS:        214
Heartbeat CPU 0 instructions: 86000000 cycles: 41578365 heartbeat IPC: 1.57433 cumulative IPC: 1.57398 (Simulation time: 1 hr 29 min 52 sec) 

Region of Interest Statistics
cpu0_DTLB TOTAL     ACCESS:    9557967  HIT:    8200178  MISS:    1357789
cpu0_DTLB LOAD      ACCESS:    8204369  HIT:    7009810  MISS:    1194559
cpu0_DTLB RFO       ACCESS:    1353598  HIT:    1190368  MISS:     163230
cpu0_DTLB PREFETCH  ACCESS:          0  HIT:          0  MISS:          0
cpu0_DTLB WRITEBACK ACCESS:          0  HIT:          0  MISS:          0
cpu0_ITLB TOTAL     ACCESS:     699872  HIT:     699872  MISS:          0
cpu0_ITLB LOAD      ACCESS:     699872  HIT:     699872  MISS:          0
cpu0_ITLB RFO       ACCESS:          0  HIT:          0  MISS:          0
cpu0_ITLB PREFETCH  ACCESS:          0  HIT:          0  MISS:          0
cpu0_ITLB WRITEBACK ACCESS:          0  HIT:          0  MISS:          0
cpu0_L1I TOTAL     ACCESS:    3525232  HIT:    3007282  MISS:     517950
cpu0_L1I LOAD      ACCESS:    3525232  HIT:    3007282  MISS:     517950
cpu0_L1I RFO       ACCESS:          0  HIT:          0  MISS:          0
cpu0_L1I PREFETCH  ACCESS:          0  HIT:          0  MISS:          0
cpu0_L1I WRITEBACK ACCESS:          0  HIT:          0  MISS:          0
cpu0_STLB TOTAL     ACCESS:    1357789  HIT:    1356329  MISS:       1460
cpu0_STLB LOAD      ACCESS:    1194559  HIT:    1193425  MISS:       1134
cpu0_STLB RFO       ACCESS:     163230  HIT:     162904  MISS:        326
cpu0_STLB PREFETCH  ACCESS:          0  HIT:          0  MISS:          0
cpu0_STLB WRITEBACK ACCESS:          0  HIT:          0  MISS:          0
cpu0_L1D TOTAL     ACCESS:   13507817  HIT:   10887740  MISS:    2620077
cpu0_L1D LOAD      ACCESS:   10677026  HIT:    8278145  MISS:    2398881
cpu0_L1D RFO       ACCESS:    2829331  HIT:    2609595  MISS:     219736
cpu0_L1D PREFETCH  ACCESS:          0  HIT:          0  MISS:          0
cpu0_L1D WRITEBACK ACCESS:          0  HIT:          0  MISS:          0
cpu0_L2C TOTAL     ACCESS:    3372610  HIT:    3177894  MISS:     194716
cpu0_L2C LOAD      ACCESS:    2916507  HIT:    2747989  MISS:     168518
cpu0_L2C RFO       ACCESS:     219509  HIT:     194159  MISS:      25350
cpu0_L2C PREFETCH  ACCESS:          0  HIT:          0  MISS:          0
cpu0_L2C WRITEBACK ACCESS:     235134  HIT:     235061  MISS:         73
LLC TOTAL     ACCESS:     216766  HIT:     122171  MISS:      94595
LLC LOAD      ACCESS:     168517  HIT:      95210  MISS:      73307
LLC RFO       ACCESS:      21983  HIT:        911  MISS:      21072
LLC PREFETCH  ACCESS:          0  HIT:          0  MISS:          0
LLC WRITEBACK ACCESS:      25491  HIT:      25277  MISS:        214
Heartbeat CPU 0 instructions: 88000001 cycles: 42838798 heartbeat IPC: 1.58676 cumulative IPC: 1.57465 (Simulation time: 1 hr 32 min 6 sec) 

Region of Interest Statistics
cpu0_DTLB TOTAL     ACCESS:   10088447  HIT:    8655203  MISS:    1433244
cpu0_DTLB LOAD      ACCESS:    8660049  HIT:    7399085  MISS:    1260964
cpu0_DTLB RFO       ACCESS:    1428398  HIT:    1256118  MISS:     172280
cpu0_DTLB PREFETCH  ACCESS:          0  HIT:          0  MISS:          0
cpu0_DTLB WRITEBACK ACCESS:          0  HIT:          0  MISS:          0
cpu0_ITLB TOTAL     ACCESS:     738738  HIT:     738738  MISS:          0
cpu0_ITLB LOAD      ACCESS:     738738  HIT:     738738  MISS:          0
cpu0_ITLB RFO       ACCESS:          0  HIT:          0  MISS:          0
cpu0_ITLB PREFETCH  ACCESS:          0  HIT:          0  MISS:          0
cpu0_ITLB WRITEBACK ACCESS:          0  HIT:          0  MISS:          0
cpu0_L1I TOTAL     ACCESS:    3721087  HIT:    3174239  MISS:     546848
cpu0_L1I LOAD      ACCESS:    3721087  HIT:    3174239  MISS:     546848
cpu0_L1I RFO       ACCESS:          0  HIT:          0  MISS:          0
cpu0_L1I PREFETCH  ACCESS:          0  HIT:          0  MISS:          0
cpu0_L1I WRITEBACK ACCESS:          0  HIT:          0  MISS:          0
cpu0_STLB TOTAL     ACCESS:    1433244  HIT:    1431724  MISS:       1520
cpu0_STLB LOAD      ACCESS:    1260964  HIT:    1259770  MISS:       1194
cpu0_STLB RFO       ACCESS:     172280  HIT:     171954  MISS:        326
cpu0_STLB PREFETCH  ACCESS:          0  HIT:          0  MISS:          0
cpu0_STLB WRITEBACK ACCESS:          0  HIT:          0  MISS:          0
cpu0_L1D TOTAL     ACCESS:   14257962  HIT:   11492397  MISS:    2765565
cpu0_L1D LOAD      ACCESS:   11269925  HIT:    8737824  MISS:    2532101
cpu0_L1D RFO       ACCESS:    2986517  HIT:    2754573  MISS:     231944
cpu0_L1D PREFETCH  ACCESS:          0  HIT:          0  MISS:          0
cpu0_L1D WRITEBACK ACCESS:          0  HIT:          0  MISS:          0
cpu0_L2C TOTAL     ACCESS:    3560041  HIT:    3355256  MISS:     204785
cpu0_L2C LOAD      ACCESS:    3078601  HIT:    2901173  MISS:     177428
cpu0_L2C RFO       ACCESS:     231702  HIT:     205199  MISS:      26503
cpu0_L2C PREFETCH  ACCESS:          0  HIT:          0  MISS:          0
cpu0_L2C WRITEBACK ACCESS:     248218  HIT:     248145  MISS:         73
LLC TOTAL     ACCESS:     227803  HIT:     128080  MISS:      99723
LLC LOAD      ACCESS:     177427  HIT:     100145  MISS:      77282
LLC RFO       ACCESS:      23136  HIT:        911  MISS:      22225
LLC PREFETCH  ACCESS:          0  HIT:          0  MISS:          0
LLC WRITEBACK ACCESS:      26459  HIT:      26245  MISS:        214
Heartbeat CPU 0 instructions: 90000001 cycles: 44117904 heartbeat IPC: 1.56359 cumulative IPC: 1.57409 (Simulation time: 1 hr 34 min 18 sec) 

Region of Interest Statistics
cpu0_DTLB TOTAL     ACCESS:   10619634  HIT:    9110839  MISS:    1508795
cpu0_DTLB LOAD      ACCESS:    9116409  HIT:    7788965  MISS:    1327444
cpu0_DTLB RFO       ACCESS:    1503225  HIT:    1321874  MISS:     181351
cpu0_DTLB PREFETCH  ACCESS:          0  HIT:          0  MISS:          0
cpu0_DTLB WRITEBACK ACCESS:          0  HIT:          0  MISS:          0
cpu0_ITLB TOTAL     ACCESS:     777610  HIT:     777610  MISS:          0
cpu0_ITLB LOAD      ACCESS:     777610  HIT:     777610  MISS:          0
cpu0_ITLB RFO       ACCESS:          0  HIT:          0  MISS:          0
cpu0_ITLB PREFETCH  ACCESS:          0  HIT:          0  MISS:          0
cpu0_ITLB WRITEBACK ACCESS:          0  HIT:          0  MISS:          0
cpu0_L1I TOTAL     ACCESS:    3916884  HIT:    3341355  MISS:     575529
cpu0_L1I LOAD      ACCESS:    3916884  HIT:    3341355  MISS:     575529
cpu0_L1I RFO       ACCESS:          0  HIT:          0  MISS:          0
cpu0_L1I PREFETCH  ACCESS:          0  HIT:          0  MISS:          0
cpu0_L1I WRITEBACK ACCESS:          0  HIT:          0  MISS:          0
cpu0_STLB TOTAL     ACCESS:    1508795  HIT:    1507190  MISS:       1605
cpu0_STLB LOAD      ACCESS:    1327444  HIT:    1326190  MISS:       1254
cpu0_STLB RFO       ACCESS:     181351  HIT:     181000  MISS:        351
cpu0_STLB PREFETCH  ACCESS:          0  HIT:          0  MISS:          0
cpu0_STLB WRITEBACK ACCESS:          0  HIT:          0  MISS:          0
cpu0_L1D TOTAL     ACCESS:   15008453  HIT:   12097187  MISS:    2911266
cpu0_L1D LOAD      ACCESS:   11863043  HIT:    9197496  MISS:    2665547
cpu0_L1D RFO       ACCESS:    3143805  HIT:    2899691  MISS:     244114
cpu0_L1D PREFETCH  ACCESS:          0  HIT:          0  MISS:          0
cpu0_L1D WRITEBACK ACCESS:          0  HIT:          0  MISS:          0
cpu0_L2C TOTAL     ACCESS:    3747369  HIT:    3531701  MISS:     215668
cpu0_L2C LOAD      ACCESS:    3240714  HIT:    3053630  MISS:     187084
cpu0_L2C RFO       ACCESS:     243859  HIT:     216156  MISS:      27703
cpu0_L2C PREFETCH  ACCESS:          0  HIT:          0  MISS:          0
cpu0_L2C WRITEBACK ACCESS:     261191  HIT:     261118  MISS:         73
LLC TOTAL     ACCESS:     239886  HIT:     134794  MISS:     105092
LLC LOAD      ACCESS:     187083  HIT:     105632  MISS:      81451
LLC RFO       ACCESS:      24336  HIT:        911  MISS:      23425
LLC PREFETCH  ACCESS:          0  HIT:          0  MISS:          0
LLC WRITEBACK ACCESS:      27659  HIT:      27445  MISS:        214
Heartbeat CPU 0 instructions: 92000002 cycles: 45380895 heartbeat IPC: 1.58354 cumulative IPC: 1.57454 (Simulation time: 1 hr 36 min 34 sec) 

Region of Interest Statistics
cpu0_DTLB TOTAL     ACCESS:   11150552  HIT:    9566280  MISS:    1584272
cpu0_DTLB LOAD      ACCESS:    9572369  HIT:    8178555  MISS:    1393814
cpu0_DTLB RFO       ACCESS:    1578183  HIT:    1387725  MISS:     190458
cpu0_DTLB PREFETCH  ACCESS:          0  HIT:          0  MISS:          0
cpu0_DTLB WRITEBACK ACCESS:          0  HIT:          0  MISS:          0
cpu0_ITLB TOTAL     ACCESS:     816477  HIT:     816477  MISS:          0
cpu0_ITLB LOAD      ACCESS:     816477  HIT:     816477  MISS:          0
cpu0_ITLB RFO       ACCESS:          0  HIT:          0  MISS:          0
cpu0_ITLB PREFETCH  ACCESS:          0  HIT:          0  MISS:          0
cpu0_ITLB WRITEBACK ACCESS:          0  HIT:          0  MISS:          0
cpu0_L1I TOTAL     ACCESS:    4112718  HIT:    3508393  MISS:     604325
cpu0_L1I LOAD      ACCESS:    4112718  HIT:    3508393  MISS:     604325
cpu0_L1I RFO       ACCESS:          0  HIT:          0  MISS:          0
cpu0_L1I PREFETCH  ACCESS:          0  HIT:          0  MISS:          0
cpu0_L1I WRITEBACK ACCESS:          0  HIT:          0  MISS:          0
cpu0_STLB TOTAL     ACCESS:    1584272  HIT:    1582571  MISS:       1701
cpu0_STLB LOAD      ACCESS:    1393814  HIT:    1392489  MISS:       1325
cpu0_STLB RFO       ACCESS:     190458  HIT:     190082  MISS:        376
cpu0_STLB PREFETCH  ACCESS:          0  HIT:          0  MISS:          0
cpu0_STLB WRITEBACK ACCESS:          0  HIT:          0  MISS:          0
cpu0_L1D TOTAL     ACCESS:   15759026  HIT:   12702277  MISS:    3056749
cpu0_L1D LOAD      ACCESS:   12456392  HIT:    9657754  MISS:    2798638
cpu0_L1D RFO       ACCESS:    3300933  HIT:    3044523  MISS:     256410
cpu0_L1D PREFETCH  ACCESS:          0  HIT:          0  MISS:          0
cpu0_L1D WRITEBACK ACCESS:          0  HIT:          0  MISS:          0
cpu0_L2C TOTAL     ACCESS:    3934721  HIT:    3708238  MISS:     226483
cpu0_L2C LOAD      ACCESS:    3402585  HIT:    3205887  MISS:     196698
cpu0_L2C RFO       ACCESS:     256149  HIT:     227296  MISS:      28853
cpu0_L2C PREFETCH  ACCESS:          0  HIT:          0  MISS:          0
cpu0_L2C WRITEBACK ACCESS:     274286  HIT:     274204  MISS:         82
LLC TOTAL     ACCESS:     251843  HIT:     141579  MISS:     110264
LLC LOAD      ACCESS:     196697  HIT:     111227  MISS:      85470
LLC RFO       ACCESS:      25486  HIT:        911  MISS:      24575
LLC PREFETCH  ACCESS:          0  HIT:          0  MISS:          0
LLC WRITEBACK ACCESS:      28810  HIT:      28593  MISS:        217
Heartbeat CPU 0 instructions: 94000001 cycles: 46645266 heartbeat IPC: 1.58181 cumulative IPC: 1.57487 (Simulation time: 1 hr 38 min 46 sec) 

Region of Interest Statistics
cpu0_DTLB TOTAL     ACCESS:   11680898  HIT:   10021349  MISS:    1659549
cpu0_DTLB LOAD      ACCESS:   10027684  HIT:    8567623  MISS:    1460061
cpu0_DTLB RFO       ACCESS:    1653214  HIT:    1453726  MISS:     199488
cpu0_DTLB PREFETCH  ACCESS:          0  HIT:          0  MISS:          0
cpu0_DTLB WRITEBACK ACCESS:          0  HIT:          0  MISS:          0
cpu0_ITLB TOTAL     ACCESS:     855276  HIT:     855276  MISS:          0
cpu0_ITLB LOAD      ACCESS:     855276  HIT:     855276  MISS:          0
cpu0_ITLB RFO       ACCESS:          0  HIT:          0  MISS:          0
cpu0_ITLB PREFETCH  ACCESS:          0  HIT:          0  MISS:          0
cpu0_ITLB WRITEBACK ACCESS:          0  HIT:          0  MISS:          0
cpu0_L1I TOTAL     ACCESS:    4308543  HIT:    3675240  MISS:     633303
cpu0_L1I LOAD      ACCESS:    4308543  HIT:    3675240  MISS:     633303
cpu0_L1I RFO       ACCESS:          0  HIT:          0  MISS:          0
cpu0_L1I PREFETCH  ACCESS:          0  HIT:          0  MISS:          0
cpu0_L1I WRITEBACK ACCESS:          0  HIT:          0  MISS:          0
cpu0_STLB TOTAL     ACCESS:    1659549  HIT:    1657760  MISS:       1789
cpu0_STLB LOAD      ACCESS:    1460061  HIT:    1458673  MISS:       1388
cpu0_STLB RFO       ACCESS:     199488  HIT:     199087  MISS:        401
cpu0_STLB PREFETCH  ACCESS:          0  HIT:          0  MISS:          0
cpu0_STLB WRITEBACK ACCESS:          0  HIT:          0  MISS:          0
cpu0_L1D TOTAL     ACCESS:   16509227  HIT:   13306932  MISS:    3202295
cpu0_L1D LOAD      ACCESS:   13049297  HIT:   10117411  MISS:    2931886
cpu0_L1D RFO       ACCESS:    3458141  HIT:    3189521  MISS:     268620
cpu0_L1D PREFETCH  ACCESS:          0  HIT:          0  MISS:          0
cpu0_L1D WRITEBACK ACCESS:          0  HIT:          0  MISS:          0
cpu0_L2C TOTAL     ACCESS:    4122290  HIT:    3884868  MISS:     237422
cpu0_L2C LOAD      ACCESS:    3564792  HIT:    3358384  MISS:     206408
cpu0_L2C RFO       ACCESS:     268347  HIT:     238319  MISS:      30028
cpu0_L2C PREFETCH  ACCESS:          0  HIT:          0  MISS:          0
cpu0_L2C WRITEBACK ACCESS:     287362  HIT:     287271  MISS:         91
LLC TOTAL     ACCESS:     263853  HIT:     148414  MISS:     115439
LLC LOAD      ACCESS:     206407  HIT:     116938  MISS:      89469
LLC RFO       ACCESS:      26661  HIT:        911  MISS:      25750
LLC PREFETCH  ACCESS:          0  HIT:          0  MISS:          0
LLC WRITEBACK ACCESS:      29890  HIT:      29672  MISS:        218
Heartbeat CPU 0 instructions: 96000000 cycles: 47913711 heartbeat IPC: 1.57673 cumulative IPC: 1.57495 (Simulation time: 1 hr 41 min 5 sec) 

Region of Interest Statistics
cpu0_DTLB TOTAL     ACCESS:   12212028  HIT:   10477382  MISS:    1734646
cpu0_DTLB LOAD      ACCESS:   10483815  HIT:    8957708  MISS:    1526107
cpu0_DTLB RFO       ACCESS:    1728213  HIT:    1519674  MISS:     208539
cpu0_DTLB PREFETCH  ACCESS:          0  HIT:          0  MISS:          0
cpu0_DTLB WRITEBACK ACCESS:          0  HIT:          0  MISS:          0
cpu0_ITLB TOTAL     ACCESS:     894190  HIT:     894190  MISS:          0
cpu0_ITLB LOAD      ACCESS:     894190  HIT:     894190  MISS:          0
cpu0_ITLB RFO       ACCESS:          0  HIT:          0  MISS:          0
cpu0_ITLB PREFETCH  ACCESS:          0  HIT:          0  MISS:          0
cpu0_ITLB WRITEBACK ACCESS:          0  HIT:          0  MISS:          0
cpu0_L1I TOTAL     ACCESS:    4504517  HIT:    3842095  MISS:     662422
cpu0_L1I LOAD      ACCESS:    4504517  HIT:    3842095  MISS:     662422
cpu0_L1I RFO       ACCESS:          0  HIT:          0  MISS:          0
cpu0_L1I PREFETCH  ACCESS:          0  HIT:          0  MISS:          0
cpu0_L1I WRITEBACK ACCESS:          0  HIT:          0  MISS:          0
cpu0_STLB TOTAL     ACCESS:    1734646  HIT:    1732793  MISS:       1853
cpu0_STLB LOAD      ACCESS:    1526107  HIT:    1524655  MISS:       1452
cpu0_STLB RFO       ACCESS:     208539  HIT:     208138  MISS:        401
cpu0_STLB PREFETCH  ACCESS:          0  HIT:          0  MISS:          0
cpu0_STLB WRITEBACK ACCESS:          0  HIT:          0  MISS:          0
cpu0_L1D TOTAL     ACCESS:   17259579  HIT:   13911801  MISS:    3347778
cpu0_L1D LOAD      ACCESS:   13642414  HIT:   10577260  MISS:    3065154
cpu0_L1D RFO       ACCESS:    3615312  HIT:    3334541  MISS:     280771
cpu0_L1D PREFETCH  ACCESS:          0  HIT:          0  MISS:          0
cpu0_L1D WRITEBACK ACCESS:          0  HIT:          0  MISS:          0
cpu0_L2C TOTAL     ACCESS:    4309822  HIT:    4061274  MISS:     248548
cpu0_L2C LOAD      ACCESS:    3727159  HIT:    3510829  MISS:     216330
cpu0_L2C RFO       ACCESS:     280477  HIT:     249274  MISS:      31203
cpu0_L2C PREFETCH  ACCESS:          0  HIT:          0  MISS:          0
cpu0_L2C WRITEBACK ACCESS:     300333  HIT:     300224  MISS:        109
LLC TOTAL     ACCESS:     276379  HIT:     155720  MISS:     120659
LLC LOAD      ACCESS:     216329  HIT:     122817  MISS:      93512
LLC RFO       ACCESS:      27836  HIT:        911  MISS:      26925
LLC PREFETCH  ACCESS:          0  HIT:          0  MISS:          0
LLC WRITEBACK ACCESS:      31308  HIT:      31088  MISS:        220
Heartbeat CPU 0 instructions: 98000003 cycles: 49179380 heartbeat IPC: 1.58019 cumulative IPC: 1.57517 (Simulation time: 1 hr 43 min 19 sec) 

Region of Interest Statistics
cpu0_DTLB TOTAL     ACCESS:   12743276  HIT:   10933431  MISS:    1809845
cpu0_DTLB LOAD      ACCESS:   10940262  HIT:    9348110  MISS:    1592152
cpu0_DTLB RFO       ACCESS:    1803014  HIT:    1585321  MISS:     217693
cpu0_DTLB PREFETCH  ACCESS:          0  HIT:          0  MISS:          0
cpu0_DTLB WRITEBACK ACCESS:          0  HIT:          0  MISS:          0
cpu0_ITLB TOTAL     ACCESS:     933123  HIT:     933123  MISS:          0
cpu0_ITLB LOAD      ACCESS:     933123  HIT:     933123  MISS:          0
cpu0_ITLB RFO       ACCESS:          0  HIT:          0  MISS:          0
cpu0_ITLB PREFETCH  ACCESS:          0  HIT:          0  MISS:          0
cpu0_ITLB WRITEBACK ACCESS:          0  HIT:          0  MISS:          0
cpu0_L1I TOTAL     ACCESS:    4700464  HIT:    4009145  MISS:     691319
cpu0_L1I LOAD      ACCESS:    4700464  HIT:    4009145  MISS:     691319
cpu0_L1I RFO       ACCESS:          0  HIT:          0  MISS:          0
cpu0_L1I PREFETCH  ACCESS:          0  HIT:          0  MISS:          0
cpu0_L1I WRITEBACK ACCESS:          0  HIT:          0  MISS:          0
cpu0_STLB TOTAL     ACCESS:    1809845  HIT:    1807907  MISS:       1938
cpu0_STLB LOAD      ACCESS:    1592152  HIT:    1590640  MISS:       1512
cpu0_STLB RFO       ACCESS:     217693  HIT:     217267  MISS:        426
cpu0_STLB PREFETCH  ACCESS:          0  HIT:          0  MISS:          0
cpu0_STLB WRITEBACK ACCESS:          0  HIT:          0  MISS:          0
cpu0_L1D TOTAL     ACCESS:   18010202  HIT:   14516830  MISS:    3493372
cpu0_L1D LOAD      ACCESS:   14235743  HIT:   11037289  MISS:    3198454
cpu0_L1D RFO       ACCESS:    3772521  HIT:    3479541  MISS:     292980
cpu0_L1D PREFETCH  ACCESS:          0  HIT:          0  MISS:          0
cpu0_L1D WRITEBACK ACCESS:          0  HIT:          0  MISS:          0
cpu0_L2C TOTAL     ACCESS:    4497328  HIT:    4238740  MISS:     258588
cpu0_L2C LOAD      ACCESS:    3889346  HIT:    3664177  MISS:     225169
cpu0_L2C RFO       ACCESS:     292672  HIT:     260319  MISS:      32353
cpu0_L2C PREFETCH  ACCESS:          0  HIT:          0  MISS:          0
cpu0_L2C WRITEBACK ACCESS:     313372  HIT:     313260  MISS:        112
LLC TOTAL     ACCESS:     287578  HIT:     161718  MISS:     125860
LLC LOAD      ACCESS:     225168  HIT:     127605  MISS:      97563
LLC RFO       ACCESS:      28986  HIT:        911  MISS:      28075
LLC PREFETCH  ACCESS:          0  HIT:          0  MISS:          0
LLC WRITEBACK ACCESS:      32470  HIT:      32250  MISS:        220
Heartbeat CPU 0 instructions: 100000001 cycles: 50444798 heartbeat IPC: 1.5805 cumulative IPC: 1.57538 (Simulation time: 1 hr 45 min 38 sec) 

Region of Interest Statistics
cpu0_DTLB TOTAL     ACCESS:   13273983  HIT:   11389039  MISS:    1884944
cpu0_DTLB LOAD      ACCESS:   11395988  HIT:    9737795  MISS:    1658193
cpu0_DTLB RFO       ACCESS:    1877995  HIT:    1651244  MISS:     226751
cpu0_DTLB PREFETCH  ACCESS:          0  HIT:          0  MISS:          0
cpu0_DTLB WRITEBACK ACCESS:          0  HIT:          0  MISS:          0
cpu0_ITLB TOTAL     ACCESS:     972049  HIT:     972049  MISS:          0
cpu0_ITLB LOAD      ACCESS:     972049  HIT:     972049  MISS:          0
cpu0_ITLB RFO       ACCESS:          0  HIT:          0  MISS:          0
cpu0_ITLB PREFETCH  ACCESS:          0  HIT:          0  MISS:          0
cpu0_ITLB WRITEBACK ACCESS:          0  HIT:          0  MISS:          0
cpu0_L1I TOTAL     ACCESS:    4896499  HIT:    4176222  MISS:     720277
cpu0_L1I LOAD      ACCESS:    4896499  HIT:    4176222  MISS:     720277
cpu0_L1I RFO       ACCESS:          0  HIT:          0  MISS:          0
cpu0_L1I PREFETCH  ACCESS:          0  HIT:          0  MISS:          0
cpu0_L1I WRITEBACK ACCESS:          0  HIT:          0  MISS:          0
cpu0_STLB TOTAL     ACCESS:    1884944  HIT:    1882914  MISS:       2030
cpu0_STLB LOAD      ACCESS:    1658193  HIT:    1656614  MISS:       1579
cpu0_STLB RFO       ACCESS:     226751  HIT:     226300  MISS:        451
cpu0_STLB PREFETCH  ACCESS:          0  HIT:          0  MISS:          0
cpu0_STLB WRITEBACK ACCESS:          0  HIT:          0  MISS:          0
cpu0_L1D TOTAL     ACCESS:   18760351  HIT:   15121191  MISS:    3639160
cpu0_L1D LOAD      ACCESS:   14828666  HIT:   11496709  MISS:    3331957
cpu0_L1D RFO       ACCESS:    3929655  HIT:    3624482  MISS:     305173
cpu0_L1D PREFETCH  ACCESS:          0  HIT:          0  MISS:          0
cpu0_L1D WRITEBACK ACCESS:          0  HIT:          0  MISS:          0
cpu0_L2C TOTAL     ACCESS:    4685114  HIT:    4416484  MISS:     268630
cpu0_L2C LOAD      ACCESS:    4051791  HIT:    3817820  MISS:     233971
cpu0_L2C RFO       ACCESS:     304858  HIT:     271316  MISS:      33542
cpu0_L2C PREFETCH  ACCESS:          0  HIT:          0  MISS:          0
cpu0_L2C WRITEBACK ACCESS:     326435  HIT:     326318  MISS:        117
LLC TOTAL     ACCESS:     298726  HIT:     167718  MISS:     131008
LLC LOAD      ACCESS:     233970  HIT:     132434  MISS:     101536
LLC RFO       ACCESS:      30168  HIT:        918  MISS:      29250
LLC PREFETCH  ACCESS:          0  HIT:          0  MISS:          0
LLC WRITEBACK ACCESS:      33588  HIT:      33368  MISS:        220
Heartbeat CPU 0 instructions: 102000004 cycles: 51719014 heartbeat IPC: 1.56959 cumulative IPC: 1.57516 (Simulation time: 1 hr 47 min 54 sec) 

Region of Interest Statistics
cpu0_DTLB TOTAL     ACCESS:   13804429  HIT:   11844002  MISS:    1960427
cpu0_DTLB LOAD      ACCESS:   11851548  HIT:   10126978  MISS:    1724570
cpu0_DTLB RFO       ACCESS:    1952881  HIT:    1717024  MISS:     235857
cpu0_DTLB PREFETCH  ACCESS:          0  HIT:          0  MISS:          0
cpu0_DTLB WRITEBACK ACCESS:          0  HIT:          0  MISS:          0
cpu0_ITLB TOTAL     ACCESS:    1010937  HIT:    1010937  MISS:          0
cpu0_ITLB LOAD      ACCESS:    1010937  HIT:    1010937  MISS:          0
cpu0_ITLB RFO       ACCESS:          0  HIT:          0  MISS:          0
cpu0_ITLB PREFETCH  ACCESS:          0  HIT:          0  MISS:          0
cpu0_ITLB WRITEBACK ACCESS:          0  HIT:          0  MISS:          0
cpu0_L1I TOTAL     ACCESS:    5092512  HIT:    4343377  MISS:     749135
cpu0_L1I LOAD      ACCESS:    5092512  HIT:    4343377  MISS:     749135
cpu0_L1I RFO       ACCESS:          0  HIT:          0  MISS:          0
cpu0_L1I PREFETCH  ACCESS:          0  HIT:          0  MISS:          0
cpu0_L1I WRITEBACK ACCESS:          0  HIT:          0  MISS:          0
cpu0_STLB TOTAL     ACCESS:    1960427  HIT:    1958305  MISS:       2122
cpu0_STLB LOAD      ACCESS:    1724570  HIT:    1722924  MISS:       1646
cpu0_STLB RFO       ACCESS:     235857  HIT:     235381  MISS:        476
cpu0_STLB PREFETCH  ACCESS:          0  HIT:          0  MISS:          0
cpu0_STLB WRITEBACK ACCESS:          0  HIT:          0  MISS:          0
cpu0_L1D TOTAL     ACCESS:   19510387  HIT:   15725649  MISS:    3784738
cpu0_L1D LOAD      ACCESS:   15421357  HIT:   11956086  MISS:    3465271
cpu0_L1D RFO       ACCESS:    4086908  HIT:    3769563  MISS:     317345
cpu0_L1D PREFETCH  ACCESS:          0  HIT:          0  MISS:          0
cpu0_L1D WRITEBACK ACCESS:          0  HIT:          0  MISS:          0
cpu0_L2C TOTAL     ACCESS:    4872573  HIT:    4592579  MISS:     279994
cpu0_L2C LOAD      ACCESS:    4213944  HIT:    3969854  MISS:     244090
cpu0_L2C RFO       ACCESS:     317020  HIT:     282278  MISS:      34742
cpu0_L2C PREFETCH  ACCESS:          0  HIT:          0  MISS:          0
cpu0_L2C WRITEBACK ACCESS:     339487  HIT:     339370  MISS:        117
LLC TOTAL     ACCESS:     311158  HIT:     174832  MISS:     136326
LLC LOAD      ACCESS:     244089  HIT:     138434  MISS:     105655
LLC RFO       ACCESS:      31368  HIT:        919  MISS:      30449
LLC PREFETCH  ACCESS:          0  HIT:          0  MISS:          0
LLC WRITEBACK ACCESS:      34656  HIT:      34436  MISS:        220
Heartbeat CPU 0 instructions: 104000004 cycles: 52981489 heartbeat IPC: 1.58419 cumulative IPC: 1.57549 (Simulation time: 1 hr 50 min 9 sec) 

Region of Interest Statistics
cpu0_DTLB TOTAL     ACCESS:   14335105  HIT:   12299207  MISS:    2035898
cpu0_DTLB LOAD      ACCESS:   12307556  HIT:   10516687  MISS:    1790869
cpu0_DTLB RFO       ACCESS:    2027549  HIT:    1782520  MISS:     245029
cpu0_DTLB PREFETCH  ACCESS:          0  HIT:          0  MISS:          0
cpu0_DTLB WRITEBACK ACCESS:          0  HIT:          0  MISS:          0
cpu0_ITLB TOTAL     ACCESS:    1049841  HIT:    1049841  MISS:          0
cpu0_ITLB LOAD      ACCESS:    1049841  HIT:    1049841  MISS:          0
cpu0_ITLB RFO       ACCESS:          0  HIT:          0  MISS:          0
cpu0_ITLB PREFETCH  ACCESS:          0  HIT:          0  MISS:          0
cpu0_ITLB WRITEBACK ACCESS:          0  HIT:          0  MISS:          0
cpu0_L1I TOTAL     ACCESS:    5288513  HIT:    4510221  MISS:     778292
cpu0_L1I LOAD      ACCESS:    5288513  HIT:    4510221  MISS:     778292
cpu0_L1I RFO       ACCESS:          0  HIT:          0  MISS:          0
cpu0_L1I PREFETCH  ACCESS:          0  HIT:          0  MISS:          0
cpu0_L1I WRITEBACK ACCESS:          0  HIT:          0  MISS:          0
cpu0_STLB TOTAL     ACCESS:    2035898  HIT:    2033723  MISS:       2175
cpu0_STLB LOAD      ACCESS:    1790869  HIT:    1789170  MISS:       1699
cpu0_STLB RFO       ACCESS:     245029  HIT:     244553  MISS:        476
cpu0_STLB PREFETCH  ACCESS:          0  HIT:          0  MISS:          0
cpu0_STLB WRITEBACK ACCESS:          0  HIT:          0  MISS:          0
cpu0_L1D TOTAL     ACCESS:   20261935  HIT:   16331782  MISS:    3930153
cpu0_L1D LOAD      ACCESS:   16015637  HIT:   12417135  MISS:    3598502
cpu0_L1D RFO       ACCESS:    4244123  HIT:    3914647  MISS:     329476
cpu0_L1D PREFETCH  ACCESS:          0  HIT:          0  MISS:          0
cpu0_L1D WRITEBACK ACCESS:          0  HIT:          0  MISS:          0
cpu0_L2C TOTAL     ACCESS:    5060115  HIT:    4769034  MISS:     291081
cpu0_L2C LOAD      ACCESS:    4376311  HIT:    4122301  MISS:     254010
cpu0_L2C RFO       ACCESS:     329136  HIT:     293243  MISS:      35893
cpu0_L2C PREFETCH  ACCESS:          0  HIT:          0  MISS:          0
cpu0_L2C WRITEBACK ACCESS:     352493  HIT:     352376  MISS:        117
LLC TOTAL     ACCESS:     323495  HIT:     182031  MISS:     141464
LLC LOAD      ACCESS:     254009  HIT:     144367  MISS:     109642
LLC RFO       ACCESS:      32519  HIT:        919  MISS:      31600
LLC PREFETCH  ACCESS:          0  HIT:          0  MISS:          0
LLC WRITEBACK ACCESS:      35906  HIT:      35686  MISS:        220
Heartbeat CPU 0 instructions: 106000003 cycles: 54249855 heartbeat IPC: 1.57683 cumulative IPC: 1.57554 (Simulation time: 1 hr 52 min 23 sec) 

Region of Interest Statistics
cpu0_DTLB TOTAL     ACCESS:   14866100  HIT:   12755205  MISS:    2110895
cpu0_DTLB LOAD      ACCESS:   12763678  HIT:   10906839  MISS:    1856839
cpu0_DTLB RFO       ACCESS:    2102422  HIT:    1848366  MISS:     254056
cpu0_DTLB PREFETCH  ACCESS:          0  HIT:          0  MISS:          0
cpu0_DTLB WRITEBACK ACCESS:          0  HIT:          0  MISS:          0
cpu0_ITLB TOTAL     ACCESS:    1088655  HIT:    1088655  MISS:          0
cpu0_ITLB LOAD      ACCESS:    1088655  HIT:    1088655  MISS:          0
cpu0_ITLB RFO       ACCESS:          0  HIT:          0  MISS:          0
cpu0_ITLB PREFETCH  ACCESS:          0  HIT:          0  MISS:          0
cpu0_ITLB WRITEBACK ACCESS:          0  HIT:          0  MISS:          0
cpu0_L1I TOTAL     ACCESS:    5484329  HIT:    4677327  MISS:     807002
cpu0_L1I LOAD      ACCESS:    5484329  HIT:    4677327  MISS:     807002
cpu0_L1I RFO       ACCESS:          0  HIT:          0  MISS:          0
cpu0_L1I PREFETCH  ACCESS:          0  HIT:          0  MISS:          0
cpu0_L1I WRITEBACK ACCESS:          0  HIT:          0  MISS:          0
cpu0_STLB TOTAL     ACCESS:    2110895  HIT:    2108624  MISS:       2271
cpu0_STLB LOAD      ACCESS:    1856839  HIT:    1855069  MISS:       1770
cpu0_STLB RFO       ACCESS:     254056  HIT:     253555  MISS:        501
cpu0_STLB PREFETCH  ACCESS:          0  HIT:          0  MISS:          0
cpu0_STLB WRITEBACK ACCESS:          0  HIT:          0  MISS:          0
cpu0_L1D TOTAL     ACCESS:   21011733  HIT:   16936213  MISS:    4075520
cpu0_L1D LOAD      ACCESS:   16608075  HIT:   12876517  MISS:    3731558
cpu0_L1D RFO       ACCESS:    4401387  HIT:    4059696  MISS:     341691
cpu0_L1D PREFETCH  ACCESS:          0  HIT:          0  MISS:          0
cpu0_L1D WRITEBACK ACCESS:          0  HIT:          0  MISS:          0
cpu0_L2C TOTAL     ACCESS:    5247188  HIT:    4945785  MISS:     301403
cpu0_L2C LOAD      ACCESS:    4538062  HIT:    4274954  MISS:     263108
cpu0_L2C RFO       ACCESS:     341335  HIT:     304267  MISS:      37068
cpu0_L2C PREFETCH  ACCESS:          0  HIT:          0  MISS:          0
cpu0_L2C WRITEBACK ACCESS:     365520  HIT:     365403  MISS:        117
[...]
cpu0_ITLB RFO       ACCESS:          0  HIT:          0  MISS:          0
cpu0_ITLB PREFETCH  ACCESS:          0  HIT:          0  MISS:          0
cpu0_ITLB WRITEBACK ACCESS:          0  HIT:          0  MISS:          0
cpu0_L1I TOTAL     ACCESS:  146915515  HIT:  125258945  MISS:   21656570
cpu0_L1I LOAD      ACCESS:  146915515  HIT:  125258945  MISS:   21656570
cpu0_L1I RFO       ACCESS:          0  HIT:          0  MISS:          0
cpu0_L1I PREFETCH  ACCESS:          0  HIT:          0  MISS:          0
cpu0_L1I WRITEBACK ACCESS:          0  HIT:          0  MISS:          0
cpu0_STLB TOTAL     ACCESS:   56575528  HIT:   56513074  MISS:      62454
cpu0_STLB LOAD      ACCESS:   49774033  HIT:   49725508  MISS:      48525
cpu0_STLB RFO       ACCESS:    6801495  HIT:    6787566  MISS:      13929
cpu0_STLB PREFETCH  ACCESS:          0  HIT:          0  MISS:          0
cpu0_STLB WRITEBACK ACCESS:          0  HIT:          0  MISS:          0
cpu0_L1D TOTAL     ACCESS:  562750869  HIT:  453566842  MISS:  109184027
cpu0_L1D LOAD      ACCESS:  444800446  HIT:  344834992  MISS:   99965454
cpu0_L1D RFO       ACCESS:  117888618  HIT:  108731358  MISS:    9157260
cpu0_L1D PREFETCH  ACCESS:          0  HIT:          0  MISS:          0
cpu0_L1D WRITEBACK ACCESS:          0  HIT:          0  MISS:          0
cpu0_L2C TOTAL     ACCESS:  140614451  HIT:  132583854  MISS:    8030597
cpu0_L2C LOAD      ACCESS:  121608146  HIT:  114551686  MISS:    7056460
cpu0_L2C RFO       ACCESS:    9147691  HIT:    8205107  MISS:     942584
cpu0_L2C PREFETCH  ACCESS:          0  HIT:          0  MISS:          0
cpu0_L2C WRITEBACK ACCESS:    9797301  HIT:    9794692  MISS:       2609
LLC TOTAL     ACCESS:    8925476  HIT:    4957630  MISS:    3967846
LLC LOAD      ACCESS:    7056427  HIT:    3969537  MISS:    3086890
LLC RFO       ACCESS:     894948  HIT:      16912  MISS:     878036
LLC PREFETCH  ACCESS:          0  HIT:          0  MISS:          0
LLC WRITEBACK ACCESS:     945157  HIT:     942266  MISS:       2891
Finished CPU 0 instructions: 1500000001 cycles: 953307457 cumulative IPC: 1.57347 (Simulation time: 20 hr 35 min 7 sec) 

ChampSim completed all CPUs

Region of Interest Statistics

CPU 0 cumulative IPC: 1.57347 instructions: 1500000001 cycles: 953307457
cpu0_DTLB TOTAL     ACCESS:  398181919  HIT:  341606391  MISS:   56575528
cpu0_DTLB LOAD      ACCESS:  341895596  HIT:  292121563  MISS:   49774033
cpu0_DTLB RFO       ACCESS:   56286323  HIT:   49484828  MISS:    6801495
cpu0_DTLB PREFETCH  ACCESS:          0  HIT:          0  MISS:          0
cpu0_DTLB WRITEBACK ACCESS:          0  HIT:          0  MISS:          0
cpu0_DTLB TRANSLATION ACCESS:          0  HIT:          0  MISS:          0
cpu0_DTLB PREFETCH  REQUESTED:          0  ISSUED:          0  USEFUL:          0  USELESS:          0
cpu0_DTLB AVERAGE MISS LATENCY: 9.62142 cycles
cpu0_ITLB TOTAL     ACCESS:   29159593  HIT:   29159593  MISS:          0
cpu0_ITLB LOAD      ACCESS:   29159593  HIT:   29159593  MISS:          0
cpu0_ITLB RFO       ACCESS:          0  HIT:          0  MISS:          0
cpu0_ITLB PREFETCH  ACCESS:          0  HIT:          0  MISS:          0
cpu0_ITLB WRITEBACK ACCESS:          0  HIT:          0  MISS:          0
cpu0_ITLB TRANSLATION ACCESS:          0  HIT:          0  MISS:          0
cpu0_ITLB PREFETCH  REQUESTED:          0  ISSUED:          0  USEFUL:          0  USELESS:          0
cpu0_ITLB AVERAGE MISS LATENCY: -nan cycles
cpu0_L1I TOTAL     ACCESS:  146915515  HIT:  125258945  MISS:   21656570
cpu0_L1I LOAD      ACCESS:  146915515  HIT:  125258945  MISS:   21656570
cpu0_L1I RFO       ACCESS:          0  HIT:          0  MISS:          0
cpu0_L1I PREFETCH  ACCESS:          0  HIT:          0  MISS:          0
cpu0_L1I WRITEBACK ACCESS:          0  HIT:          0  MISS:          0
cpu0_L1I TRANSLATION ACCESS:          0  HIT:          0  MISS:          0
cpu0_L1I PREFETCH  REQUESTED:          0  ISSUED:          0  USEFUL:          0  USELESS:          0
cpu0_L1I AVERAGE MISS LATENCY: 11.1964 cycles
cpu0_STLB TOTAL     ACCESS:   56575528  HIT:   56513074  MISS:      62454
cpu0_STLB LOAD      ACCESS:   49774033  HIT:   49725508  MISS:      48525
cpu0_STLB RFO       ACCESS:    6801495  HIT:    6787566  MISS:      13929
cpu0_STLB PREFETCH  ACCESS:          0  HIT:          0  MISS:          0
cpu0_STLB WRITEBACK ACCESS:          0  HIT:          0  MISS:          0
cpu0_STLB TRANSLATION ACCESS:          0  HIT:          0  MISS:          0
cpu0_STLB PREFETCH  REQUESTED:          0  ISSUED:          0  USEFUL:          0  USELESS:          0
cpu0_STLB AVERAGE MISS LATENCY: 197.707 cycles
cpu0_L1D TOTAL     ACCESS:  562750869  HIT:  453566842  MISS:  109184027
cpu0_L1D LOAD      ACCESS:  444800446  HIT:  344834992  MISS:   99965454
cpu0_L1D RFO       ACCESS:  117888618  HIT:  108731358  MISS:    9157260
cpu0_L1D PREFETCH  ACCESS:          0  HIT:          0  MISS:          0
cpu0_L1D WRITEBACK ACCESS:          0  HIT:          0  MISS:          0
cpu0_L1D TRANSLATION ACCESS:      61805  HIT:        492  MISS:      61313
cpu0_L1D PREFETCH  REQUESTED:          0  ISSUED:          0  USEFUL:          0  USELESS:          0
cpu0_L1D AVERAGE MISS LATENCY: 48.5412 cycles
cpu0_L2C TOTAL     ACCESS:  140614452  HIT:  132583855  MISS:    8030597
cpu0_L2C LOAD      ACCESS:  121608147  HIT:  114551687  MISS:    7056460
cpu0_L2C RFO       ACCESS:    9147691  HIT:    8205107  MISS:     942584
cpu0_L2C PREFETCH  ACCESS:          0  HIT:          0  MISS:          0
cpu0_L2C WRITEBACK ACCESS:    9797301  HIT:    9794692  MISS:       2609
cpu0_L2C TRANSLATION ACCESS:      61313  HIT:      32369  MISS:      28944
cpu0_L2C PREFETCH  REQUESTED:          0  ISSUED:          0  USEFUL:          0  USELESS:          0
cpu0_L2C AVERAGE MISS LATENCY: 500.26 cycles
LLC TOTAL     ACCESS:    8925476  HIT:    4957630  MISS:    3967846
LLC LOAD      ACCESS:    7056427  HIT:    3969537  MISS:    3086890
LLC RFO       ACCESS:     894948  HIT:      16912  MISS:     878036
LLC PREFETCH  ACCESS:          0  HIT:          0  MISS:          0
LLC WRITEBACK ACCESS:     945157  HIT:     942266  MISS:       2891
LLC TRANSLATION ACCESS:      28944  HIT:      28915  MISS:         29
LLC PREFETCH  REQUESTED:          0  ISSUED:          0  USEFUL:          0  USELESS:          0
LLC AVERAGE MISS LATENCY: 970.236 cycles
~~~~~~~~~~Reuse Distance Profiler output~~~~~~~~~~
0	14016192	2450992
1	8699040	3352912
2	8077632	4345088
3	9642016	6792208
4	11372752	8117616
5	11386704	9563328
6	11162256	9193072
7	10993232	9514480
8	10902064	8919680
9	10636112	9034384
10	10832272	8994912
11	10049936	8018944
12	8730560	6973696
13	9196192	7275616
14	8054704	6277136
15	7051792	5647392
16	6861552	5524416
17	7491904	5539824
18	7283104	6041712
19	6330176	5296288
20	6088864	4912320
21	5642080	4375216
22	5961472	4834800
23	5872592	4760352
24	5612688	4429888
25	5690016	4471680
26	5628352	4506016
27	4898720	4023200
28	4972512	4105120
29	5161216	4230992
30	4796048	4098912
31	4550208	4071328
32	4149456	3602416
33	3875312	3286144
34	3774160	3157584
35	4105984	3180320
36	4472160	3694592
37	4359168	3664192
38	4109360	3260720
39	3972720	3367760
40	3733152	3143760
41	3823904	3163472
42	3629776	2902864
43	3338720	2650464
44	3082208	2473504
45	3196096	2563952
46	3060688	2539840
47	2907120	2388256
48	2958192	2312928
49	2649296	2160208
50	2689120	2176848
51	2824592	2273040
52	2568032	2072608
53	2596848	2172304
54	2544112	2140688
55	2561664	2212960
56	2321856	1939328
57	2200272	1870928
58	2218432	1907392
59	2211952	1883216
60	2170288	1794464
61	2067184	1768416
62	1956576	1692912
63	1860960	1585360
64	3149360	2772736
66	2677904	2355312
68	2472816	2072960
70	2669344	2079136
72	2689024	2146032
74	2464400	2020768
76	2387216	2135392
78	2451776	2243472
80	2282208	1984304
82	1839600	1520000
84	1577520	1328384
86	1528416	1282800
88	1559312	1258816
90	1487744	1108240
92	1509184	1024928
94	1221984	799440
96	1134480	771232
98	1351648	977648
100	1336400	963920
102	1165392	842144
104	1163920	756384
106	935008	610256
108	771776	527056
110	606704	431024
112	741472	537568
114	989216	753616
116	1073472	870672
118	1054784	847632
120	1037584	835008
122	893408	687552
124	788256	553760
126	652144	435328
128	1306240	792704
132	1427376	738592
136	1149920	662064
140	1041120	671360
144	1586208	1078160
148	1525792	1022704
152	1452176	997888
156	1424080	984400
160	1315456	848912
164	1199104	772480
168	1128464	705104
172	1130192	758928
176	1031552	666512
180	851248	594176
184	638928	415408
188	712320	462528
192	622576	470864
196	562752	472000
200	667312	586160
204	637408	568560
208	496688	421072
212	339200	267952
216	348224	250640
220	531872	355232
224	739760	460272
228	657920	437152
232	588928	423072
236	508832	425520
240	407664	338096
244	451552	349952
248	433264	318288
252	426704	293296
256	1309824	1180832
264	830768	753616
272	340592	282448
280	359360	260688
288	424544	248080
296	400944	306000
304	716528	428208
312	834736	489312
320	602016	382992
328	333056	227216
336	278016	154208
344	372992	272256
352	418368	317344
360	784688	688448
368	576800	487104
376	749904	629856
384	610624	519280
392	404576	299408
400	374304	219168
408	222128	137936
416	262464	162432
424	331648	158896
432	308928	177856
440	221408	145776
448	209968	93248
456	180400	77648
464	222688	117632
472	341760	187232
480	375616	245408
488	309456	196768
496	328272	202720
504	318000	210928
512	531456	362352
528	438432	280032
544	293296	238336
560	404528	359008
576	184000	103680
592	425408	186832
608	441104	350304
624	461536	387680
640	414752	323632
656	229120	118336
672	323392	126352
688	312912	179664
704	232288	132560
720	497232	241664
736	316640	189952
752	281472	74720
768	207904	48528
784	156048	106560
800	182928	123040
816	162208	117312
832	222944	177168
848	240176	185696
864	264480	179152
880	335904	203760
896	292288	224784
912	278896	205696
928	534960	451072
944	401440	233968
960	305248	53904
976	204448	22960
992	82640	16432
1008	111600	11360
1024	310336	140256
1056	393760	189136
1088	571872	153056
1120	721840	216240
1152	1377008	561696
1184	1665840	979056
1216	977936	373024
1248	743200	403456
1280	664864	379744
1312	580160	237680
1344	726176	326640
1376	808592	429472
1408	448752	297440
1440	368128	275296
1472	472848	350752
1504	310944	231936
1536	466448	290288
1568	160416	58336
1600	453824	254000
1632	362560	299360
1664	564944	488400
1696	753072	590640
1728	731552	641968
1760	548128	390976
1792	469472	367760
1824	773920	716256
1856	1251872	1240112
1888	1595200	1556432
1920	3834480	3792400
1952	6008064	5919264
1984	10332928	10127952
2016	14724992	13999520
2048	48102304	43819968
2112	11531312	10648816
2176	1017488	989728
2240	2412064	2216896
2304	112	112
2368	16	16
2432	32	32
2496	32	32
2560	0	0
2624	0	0
2688	16	16
2752	0	0
2816	0	0
2880	0	0
2944	0	0
3008	0	0
3072	16	16
3136	16	16
3200	16	16
3264	0	0
3328	16	0
3392	0	0
3456	0	0
3520	16	16
3584	16	16
3648	16	16
3712	32	32
3776	16	16
3840	0	0
3904	32	32
3968	352	336
4032	528	528
4096	1216	1216
4224	176	160
4352	464	416
4480	576	576
4608	32	32
4736	0	0
4864	0	0
4992	0	0
5120	0	0
5248	0	0
5376	0	0
5504	0	0
5632	0	0
5760	0	0
5888	0	0
6016	544	544
6144	1184	1184
6272	368	368
6400	0	0
6528	0	0
6656	32	32
6784	16	16
6912	0	0
7040	0	0
7168	0	0
7296	0	0
7424	0	0
7552	0	0
7680	0	0
7808	0	0
7936	0	0
8064	80	80
8192	1104	1104
8448	0	0
8704	0	0
8960	112	112
9216	0	0
9472	0	0
9728	0	0
9984	192	192
10240	2448	2448
10496	16	16
10752	0	0
11008	32	32
11264	208	208
11520	0	0
11776	0	0
12032	16	16
12288	848	848
12544	0	0
12800	0	0
13056	0	0
13312	0	0
13568	16	16
13824	0	0
14080	48	48
14336	1872	1872
14592	208	208
14848	0	0
15104	0	0
15360	0	0
15616	128	128
15872	0	0
16128	0	0
16384	1680	1680
16896	0	0
17408	0	0
17920	128	128
18432	47056	47056
18944	0	0
19456	0	0
19968	1952	1952
20480	364064	364064
20992	112	112
21504	0	0
22016	416	416
22528	12864	12864
23040	32	32
23552	0	0
24064	16	16
24576	1056	1056
25088	0	0
25600	0	0
26112	0	0
26624	368	368
27136	16	16
27648	0	0
28160	0	0
28672	192	192
29184	16	16
29696	0	0
30208	0	0
30720	720	720
31232	48	48
31744	0	0
32256	0	0
32768	1600	1600
33792	16	16
34816	6016	6016
35840	80	80
36864	720	720
37888	176	176
38912	560	560
39936	32	32
40960	192	192
41984	0	0
43008	160	160
44032	0	0
45056	64	64
46080	0	0
47104	80	80
48128	0	0
49152	224	224
50176	0	0
51200	288	288
52224	0	0
53248	736	736
54272	0	0
55296	10464	10464
56320	16	16
57344	32	32
58368	48	48
59392	0	0
60416	224	224
61440	0	0
62464	0	0
63488	0	0
64512	0	0
65536	0	0
67584	0	0
69632	0	0
71680	16	16
73728	0	0
75776	4288	4288
77824	0	0
79872	0	0
81920	144	144
83968	0	0
86016	0	0
88064	0	0
90112	0	0
92160	0	0
94208	0	0
96256	0	0
98304	0	0
100352	0	0
102400	0	0
104448	0	0
106496	0	0
108544	0	0
110592	0	0
112640	0	0
114688	0	0
116736	0	0
118784	0	0
120832	0	0
122880	0	0
124928	0	0
126976	0	0
129024	0	0
131072	0	0
135168	0	0
139264	0	0
143360	0	0
147456	0	0
151552	0	0
155648	0	0
159744	0	0
163840	0	0
167936	0	0
172032	0	0
176128	0	0
180224	0	0
184320	0	0
188416	0	0
192512	0	0
196608	0	0
200704	0	0
204800	0	0
208896	0	0
212992	0	0
217088	0	0
221184	0	0
225280	0	0
229376	0	0
233472	0	0
237568	0	0
241664	0	0
245760	0	0
249856	0	0
253952	0	0
258048	0	0
262144	0	0
270336	0	0
278528	0	0
286720	0	0
294912	0	0
303104	64	64
311296	1504	1504
319488	4478736	4478736
327680	3459488	3459488
335872	297264	297264
344064	49952	49952
352256	200848	200848
360448	17440	17440
368640	4992	4992
376832	288	288
385024	128	128
393216	96	96
401408	64	64
409600	64	64
417792	32	32
425984	0	0
434176	16	16
442368	0	0
450560	0	0
458752	0	0
466944	0	0
475136	0	0
483328	0	0
491520	0	0
499712	0	0
507904	0	0
516096	0	0
524288	0	0
540672	0	0
557056	0	0
573440	0	0
589824	0	0
606208	0	0
622592	0	0
638976	304	304
655360	400	400
671744	1968	1968
688128	1664	1664
704512	1168	1168
720896	224	224
737280	160	160
753664	32	32
770048	32	32
786432	0	0
802816	0	0
819200	0	0
835584	0	0
851968	0	0
868352	0	0
884736	0	0
901120	0	0
917504	0	0
933888	0	0
950272	0	0
966656	0	0
983040	144	144
999424	496	496
1015808	832	832
1032192	1552	1552
1048576	1120	1120
1081344	112	112
1114112	80	80
1146880	32	32
1179648	16	16
1212416	0	0
1245184	0	0
1277952	0	0
1310720	16	16
1343488	1392	1392
1376256	1312	1312
1409024	176	176
1441792	48	48
1474560	32	32
1507328	48	48
1540096	0	0
1572864	0	0
1605632	0	0
1638400	0	0
1671168	864	864
1703936	2384	2384
1736704	1024	1024
1769472	80	80
1802240	16	16
1835008	48	48
1867776	48	48
1900544	32	32
1933312	0	0
1966080	0	0
1998848	128	128
2031616	1088	1088
2064384	656	656
2097152	144	144
2162688	48	48
2228224	48	48
2293760	0	0
2359296	1296	1296
2424832	528	528
2490368	16	16
2555904	32	32
2621440	16	16
2686976	336	336
2752512	624	624
2818048	16	16
2883584	0	0
2949120	32	32
3014656	288	288
3080192	1344	1344
3145728	32	32
3211264	16	16
3276800	0	0
3342336	16	16
3407872	5856	5856
3473408	64	64
3538944	0	0
3604480	0	0
3670016	0	0
3735552	160	160
3801088	48	48
3866624	0	0
3932160	0	0
3997696	0	0
4063232	16	16
4128768	32	32
4194304	0	0
4325376	16	16
4456448	128	128
4587520	0	0
4718592	0	0
4849664	0	0
4980736	0	0
5111808	80	80
5242880	0	0
5373952	16	16
5505024	16	16
5636096	16	16
5767168	32	32
5898240	16	16
6029312	0	0
6160384	32	32
6291456	0	0
6422528	0	0
6553600	32	32
6684672	16	16
6815744	32	32
6946816	0	0
7077888	0	0
7208960	0	0
7340032	0	0
7471104	0	0
7602176	0	0
7733248	0	0
7864320	0	0
7995392	0	0
8126464	0	0
8257536	0	0
8388608	0	0
8650752	0	0
8912896	0	0
9175040	0	0
9437184	0	0
9699328	0	0
9961472	0	0
10223616	0	0
10485760	0	0
10747904	0	0
11010048	0	0
11272192	0	0
11534336	0	0
11796480	0	0
12058624	0	0
12320768	0	0
12582912	0	0
12845056	0	0
13107200	0	0
13369344	0	0
13631488	0	0
13893632	0	0
14155776	0	0
14417920	0	0
14680064	0	0
14942208	0	0
15204352	0	0
15466496	0	0
15728640	0	0
15990784	0	0
16252928	0	0
16515072	0	0
16777216	0	0
17301504	0	0
17825792	0	0
18350080	0	0
18874368	0	0
19398656	0	0
19922944	0	0
20447232	0	0
20971520	0	0
21495808	0	0
22020096	0	0
22544384	0	0
23068672	0	0
23592960	0	0
24117248	0	0
24641536	0	0
25165824	0	0
25690112	0	0
26214400	0	0
26738688	0	0
27262976	0	0
27787264	0	0
28311552	0	0
28835840	0	0
29360128	0	0
29884416	0	0
30408704	0	0
30932992	0	0
31457280	0	0
31981568	0	0
32505856	0	0
33030144	0	0
33554432	0	0
34603008	0	0
35651584	0	0
36700160	0	0
37748736	0	0
38797312	0	0
39845888	0	0
40894464	32	0
41943040	0	0
42991616	0	0
44040192	0	0
45088768	0	0
46137344	0	0
47185920	0	0
48234496	0	0
49283072	32	32
50331648	0	0
51380224	32	32
52428800	16	16
53477376	16	16
54525952	32	32
55574528	1673456	1673456
56623104	323264	323264
57671680	8768	8768
58720256	608	608
59768832	16	16
60817408	0	0
61865984	0	0
62914560	0	0
63963136	0	0
65011712	0	0
66060288	0	0
67108864	0	0
69206016	0	0
71303168	0	0
73400320	0	0
75497472	0	0
77594624	0	0
79691776	0	0
81788928	0	0
83886080	32	16
85983232	0	0
88080384	0	0
90177536	0	0
92274688	0	0
94371840	0	0
96468992	0	0
98566144	0	0
100663296	0	0
102760448	0	0
104857600	0	0
106954752	0	0
109051904	0	0
111149056	0	0
113246208	0	0
115343360	0	0
117440512	0	0
119537664	0	0
121634816	0	0
123731968	0	0
125829120	0	0
127926272	0	0
130023424	0	0
132120576	0	0
134217728	0	0
138412032	0	0
142606336	0	0
146800640	0	0
150994944	0	0
155189248	0	0
159383552	0	0
163577856	0	0
167772160	0	0
171966464	0	0
176160768	0	0
180355072	0	0
184549376	0	0
188743680	0	0
192937984	0	0
197132288	0	0
201326592	0	0
205520896	0	0
209715200	0	0
213909504	0	0
218103808	0	0
222298112	0	0
226492416	0	0
230686720	0	0
234881024	0	0
239075328	0	0
243269632	0	0
247463936	0	0
251658240	0	0
255852544	0	0
260046848	0	0
264241152	0	0
268435456	0	0
276824064	0	0
285212672	0	0
293601280	0	0
301989888	0	0
310378496	0	0
318767104	0	0
327155712	0	0
335544320	0	0
343932928	0	0
352321536	0	0
360710144	0	0
369098752	0	0
377487360	0	0
385875968	0	0
394264576	0	0
402653184	0	0
411041792	0	0
419430400	0	0
427819008	16	0
436207616	0	0
444596224	0	0
452984832	0	0
461373440	0	0
469762048	0	0
478150656	0	0
486539264	0	0
494927872	0	0
503316480	0	0
511705088	0	0
520093696	0	0
528482304	0	0
536870912	0	0
553648128	0	0
570425344	0	0
587202560	0	0
603979776	0	0
620756992	0	0
637534208	0	0
654311424	0	0
671088640	0	0
687865856	0	0
704643072	0	0
721420288	0	0
738197504	0	0
754974720	0	0
771751936	0	0
788529152	0	0
805306368	0	0
822083584	0	0
838860800	0	0
855638016	0	0
872415232	0	0
889192448	0	0
905969664	0	0
922746880	0	0
939524096	0	0
956301312	0	0
973078528	0	0
989855744	0	0
1006632960	0	0
1023410176	0	0
1040187392	0	0
1056964608	0	0
1073741824	0	0
1107296256	0	0
1140850688	0	0
1174405120	0	0
1207959552	0	0
1241513984	0	0
1275068416	0	0
1308622848	0	0
1342177280	0	0
1375731712	0	0
1409286144	0	0
1442840576	0	0
1476395008	0	0
1509949440	0	0
1543503872	0	0
1577058304	0	0
1610612736	0	0
1644167168	0	0
1677721600	0	0
1711276032	0	0
1744830464	0	0
1778384896	0	0
1811939328	0	0
1845493760	0	0
1879048192	0	0
1912602624	0	0
1946157056	0	0
1979711488	0	0
2013265920	0	0
2046820352	0	0
2080374784	0	0
2113929216	0	0
2147483648	0	0
2214592512	0	0
2281701376	0	0
2348810240	0	0
2415919104	0	0
2483027968	0	0
2550136832	0	0
2617245696	0	0
2684354560	0	0
2751463424	0	0
2818572288	0	0
2885681152	0	0
2952790016	0	0
3019898880	0	0
3087007744	0	0
3154116608	0	0
3221225472	0	0
3288334336	0	0
3355443200	0	0
3422552064	0	0
3489660928	0	0
3556769792	0	0
3623878656	0	0
3690987520	0	0
3758096384	0	0
3825205248	0	0
3892314112	0	0
3959422976	0	0
4026531840	0	0
4093640704	0	0
4160749568	0	0
4227858432	0	0
~~~~~~~~~~Reuse Distance Profiler output end~~~~~~~~~~

Sampler size:129955

DRAM Statistics
 CHANNEL 0
 RQ ROW_BUFFER_HIT:        141  ROW_BUFFER_MISS:    3964814
 DBUS AVG_CONGESTED_CYCLE:    3.99975
 WQ ROW_BUFFER_HIT:      15561  ROW_BUFFER_MISS:     862685  FULL:          0


CPU 0 Branch Prediction Accuracy: 99.9626% MPKI: 0.00331333 Average ROB Occupancy at Mispredict: 63.2368
Branch type MPKI
BRANCH_DIRECT_JUMP: 6.66667e-07
BRANCH_INDIRECT: 1.33333e-06
BRANCH_CONDITIONAL: 0.00330733
BRANCH_DIRECT_CALL: 2e-06
BRANCH_INDIRECT_CALL: 0
BRANCH_RETURN: 2e-06

