
*** ChampSim Multicore Out-of-Order Simulator ***

Warmup Instructions: 50000000
Simulation Instructions: 1500000000
Number of CPUs: 1
Off-chip DRAM Size: 4 GiB Channels: 1 Width: 64-bit Data Rate: 3200 MT/s

VirtualMemory physical capacity: 8588881920 num_ppages: 2096895
VirtualMemory page size: 4096 log2_page_size: 12

CPU 0 runs /s/traces/champsim_traces/619.lbm_s-3766B.champsimtrace.xz
CPU 0 Bimodal branch predictor
Basic BTB sets: 1024 ways: 8 indirect buffer size: 4096 RAS size: 64
Initializing LRU.
Initializing LRU.
Initializing LRU.
Initializing LRU.
Initializing rdLRU.
Initializing LRU.
Heartbeat CPU 0 instructions: 2000001 cycles: 500112 heartbeat IPC: 3.99911 cumulative IPC: 3.99911 (Simulation time: 0 hr 0 min 42 sec) 
Heartbeat CPU 0 instructions: 4000001 cycles: 1000112 heartbeat IPC: 4 cumulative IPC: 3.99955 (Simulation time: 0 hr 1 min 18 sec) 
Heartbeat CPU 0 instructions: 6000001 cycles: 1500112 heartbeat IPC: 4 cumulative IPC: 3.9997 (Simulation time: 0 hr 1 min 57 sec) 
Heartbeat CPU 0 instructions: 8000001 cycles: 2000112 heartbeat IPC: 4 cumulative IPC: 3.99978 (Simulation time: 0 hr 2 min 35 sec) 
Heartbeat CPU 0 instructions: 10000001 cycles: 2500112 heartbeat IPC: 4 cumulative IPC: 3.99982 (Simulation time: 0 hr 3 min 13 sec) 
Heartbeat CPU 0 instructions: 12000001 cycles: 3000112 heartbeat IPC: 4 cumulative IPC: 3.99985 (Simulation time: 0 hr 3 min 50 sec) 
Heartbeat CPU 0 instructions: 14000002 cycles: 3505108 heartbeat IPC: 3.96043 cumulative IPC: 3.99417 (Simulation time: 0 hr 4 min 29 sec) 
Heartbeat CPU 0 instructions: 16000002 cycles: 4005108 heartbeat IPC: 4 cumulative IPC: 3.9949 (Simulation time: 0 hr 5 min 7 sec) 
Heartbeat CPU 0 instructions: 18000002 cycles: 4505108 heartbeat IPC: 4 cumulative IPC: 3.99547 (Simulation time: 0 hr 5 min 44 sec) 
Heartbeat CPU 0 instructions: 20000002 cycles: 5005108 heartbeat IPC: 4 cumulative IPC: 3.99592 (Simulation time: 0 hr 6 min 23 sec) 
Heartbeat CPU 0 instructions: 22000002 cycles: 5505108 heartbeat IPC: 4 cumulative IPC: 3.99629 (Simulation time: 0 hr 7 min 2 sec) 
Heartbeat CPU 0 instructions: 24000002 cycles: 6005108 heartbeat IPC: 4 cumulative IPC: 3.9966 (Simulation time: 0 hr 7 min 40 sec) 
Heartbeat CPU 0 instructions: 26000002 cycles: 6505108 heartbeat IPC: 4 cumulative IPC: 3.99686 (Simulation time: 0 hr 8 min 18 sec) 
Heartbeat CPU 0 instructions: 28000002 cycles: 7005108 heartbeat IPC: 4 cumulative IPC: 3.99708 (Simulation time: 0 hr 8 min 56 sec) 
Heartbeat CPU 0 instructions: 30000002 cycles: 7505108 heartbeat IPC: 4 cumulative IPC: 3.99728 (Simulation time: 0 hr 9 min 33 sec) 
Heartbeat CPU 0 instructions: 32000000 cycles: 8010082 heartbeat IPC: 3.9606 cumulative IPC: 3.99497 (Simulation time: 0 hr 10 min 12 sec) 
Heartbeat CPU 0 instructions: 34000000 cycles: 8510082 heartbeat IPC: 4 cumulative IPC: 3.99526 (Simulation time: 0 hr 10 min 50 sec) 
Heartbeat CPU 0 instructions: 36000000 cycles: 9010082 heartbeat IPC: 4 cumulative IPC: 3.99552 (Simulation time: 0 hr 11 min 27 sec) 
Heartbeat CPU 0 instructions: 38000000 cycles: 9510082 heartbeat IPC: 4 cumulative IPC: 3.99576 (Simulation time: 0 hr 12 min 6 sec) 
Heartbeat CPU 0 instructions: 40000000 cycles: 10010082 heartbeat IPC: 4 cumulative IPC: 3.99597 (Simulation time: 0 hr 12 min 44 sec) 
Heartbeat CPU 0 instructions: 42000000 cycles: 10510082 heartbeat IPC: 4 cumulative IPC: 3.99616 (Simulation time: 0 hr 13 min 23 sec) 
Heartbeat CPU 0 instructions: 44000000 cycles: 11010082 heartbeat IPC: 4 cumulative IPC: 3.99634 (Simulation time: 0 hr 14 min 1 sec) 
Heartbeat CPU 0 instructions: 46000000 cycles: 11510082 heartbeat IPC: 4 cumulative IPC: 3.9965 (Simulation time: 0 hr 14 min 39 sec) 
Heartbeat CPU 0 instructions: 48000000 cycles: 12010082 heartbeat IPC: 4 cumulative IPC: 3.99664 (Simulation time: 0 hr 15 min 16 sec) 
Heartbeat CPU 0 instructions: 50000002 cycles: 12515122 heartbeat IPC: 3.96009 cumulative IPC: 3.99517 (Simulation time: 0 hr 15 min 54 sec) 

Warmup complete CPU 0 instructions: 50000002 cycles: 12515122 (Simulation time: 0 hr 15 min 54 sec) 

Heartbeat CPU 0 instructions: 52000001 cycles: 17318840 heartbeat IPC: 0.416344 cumulative IPC: 0.416344 (Simulation time: 0 hr 19 min 5 sec) 

Region of Interest Statistics
cpu0_DTLB TOTAL     ACCESS:     277751  HIT:     276519  MISS:       1232
cpu0_DTLB LOAD      ACCESS:     146873  HIT:     146706  MISS:        167
cpu0_DTLB RFO       ACCESS:     130878  HIT:     129813  MISS:       1065
cpu0_DTLB PREFETCH  ACCESS:          0  HIT:          0  MISS:          0
cpu0_DTLB WRITEBACK ACCESS:          0  HIT:          0  MISS:          0
cpu0_ITLB TOTAL     ACCESS:       9279  HIT:       9279  MISS:          0
cpu0_ITLB LOAD      ACCESS:       9279  HIT:       9279  MISS:          0
cpu0_ITLB RFO       ACCESS:          0  HIT:          0  MISS:          0
cpu0_ITLB PREFETCH  ACCESS:          0  HIT:          0  MISS:          0
cpu0_ITLB WRITEBACK ACCESS:          0  HIT:          0  MISS:          0
cpu0_L1I TOTAL     ACCESS:      38161  HIT:      38161  MISS:          0
cpu0_L1I LOAD      ACCESS:      38161  HIT:      38161  MISS:          0
cpu0_L1I RFO       ACCESS:          0  HIT:          0  MISS:          0
cpu0_L1I PREFETCH  ACCESS:          0  HIT:          0  MISS:          0
cpu0_L1I WRITEBACK ACCESS:          0  HIT:          0  MISS:          0
cpu0_STLB TOTAL     ACCESS:       1232  HIT:        564  MISS:        668
cpu0_STLB LOAD      ACCESS:        167  HIT:          0  MISS:        167
cpu0_STLB RFO       ACCESS:       1065  HIT:        564  MISS:        501
cpu0_STLB PREFETCH  ACCESS:          0  HIT:          0  MISS:          0
cpu0_STLB WRITEBACK ACCESS:          0  HIT:          0  MISS:          0
cpu0_L1D TOTAL     ACCESS:     412279  HIT:     341746  MISS:      70533
cpu0_L1D LOAD      ACCESS:     114605  HIT:     103920  MISS:      10685
cpu0_L1D RFO       ACCESS:     297006  HIT:     237158  MISS:      59848
cpu0_L1D PREFETCH  ACCESS:          0  HIT:          0  MISS:          0
cpu0_L1D WRITEBACK ACCESS:          0  HIT:          0  MISS:          0
cpu0_L2C TOTAL     ACCESS:     130376  HIT:      86524  MISS:      43852
cpu0_L2C LOAD      ACCESS:      10685  HIT:          0  MISS:      10685
cpu0_L2C RFO       ACCESS:      59848  HIT:      26681  MISS:      33167
cpu0_L2C PREFETCH  ACCESS:          0  HIT:          0  MISS:          0
cpu0_L2C WRITEBACK ACCESS:      59843  HIT:      59843  MISS:          0
LLC TOTAL     ACCESS:      76935  HIT:      33846  MISS:      43089
LLC LOAD      ACCESS:      10685  HIT:          0  MISS:      10685
LLC RFO       ACCESS:      33167  HIT:       1107  MISS:      32060
LLC PREFETCH  ACCESS:          0  HIT:          0  MISS:          0
LLC WRITEBACK ACCESS:      33083  HIT:      32739  MISS:        344
Heartbeat CPU 0 instructions: 54000000 cycles: 22065841 heartbeat IPC: 0.421318 cumulative IPC: 0.418816 (Simulation time: 0 hr 22 min 8 sec) 

Region of Interest Statistics
cpu0_DTLB TOTAL     ACCESS:     555876  HIT:     553412  MISS:       2464
cpu0_DTLB LOAD      ACCESS:     294033  HIT:     293699  MISS:        334
cpu0_DTLB RFO       ACCESS:     261843  HIT:     259713  MISS:       2130
cpu0_DTLB PREFETCH  ACCESS:          0  HIT:          0  MISS:          0
cpu0_DTLB WRITEBACK ACCESS:          0  HIT:          0  MISS:          0
cpu0_ITLB TOTAL     ACCESS:      18560  HIT:      18560  MISS:          0
cpu0_ITLB LOAD      ACCESS:      18560  HIT:      18560  MISS:          0
cpu0_ITLB RFO       ACCESS:          0  HIT:          0  MISS:          0
cpu0_ITLB PREFETCH  ACCESS:          0  HIT:          0  MISS:          0
cpu0_ITLB WRITEBACK ACCESS:          0  HIT:          0  MISS:          0
cpu0_L1I TOTAL     ACCESS:      76371  HIT:      76371  MISS:          0
cpu0_L1I LOAD      ACCESS:      76371  HIT:      76371  MISS:          0
cpu0_L1I RFO       ACCESS:          0  HIT:          0  MISS:          0
cpu0_L1I PREFETCH  ACCESS:          0  HIT:          0  MISS:          0
cpu0_L1I WRITEBACK ACCESS:          0  HIT:          0  MISS:          0
cpu0_STLB TOTAL     ACCESS:       2464  HIT:       1128  MISS:       1336
cpu0_STLB LOAD      ACCESS:        334  HIT:          0  MISS:        334
cpu0_STLB RFO       ACCESS:       2130  HIT:       1128  MISS:       1002
cpu0_STLB PREFETCH  ACCESS:          0  HIT:          0  MISS:          0
cpu0_STLB WRITEBACK ACCESS:          0  HIT:          0  MISS:          0
cpu0_L1D TOTAL     ACCESS:     824801  HIT:     683716  MISS:     141085
cpu0_L1D LOAD      ACCESS:     229427  HIT:     208052  MISS:      21375
cpu0_L1D RFO       ACCESS:     594038  HIT:     474328  MISS:     119710
cpu0_L1D PREFETCH  ACCESS:          0  HIT:          0  MISS:          0
cpu0_L1D WRITEBACK ACCESS:          0  HIT:          0  MISS:          0
cpu0_L2C TOTAL     ACCESS:     260792  HIT:     172878  MISS:      87914
cpu0_L2C LOAD      ACCESS:      21375  HIT:          0  MISS:      21375
cpu0_L2C RFO       ACCESS:     119710  HIT:      53171  MISS:      66539
cpu0_L2C PREFETCH  ACCESS:          0  HIT:          0  MISS:          0
cpu0_L2C WRITEBACK ACCESS:     119707  HIT:     119707  MISS:          0
LLC TOTAL     ACCESS:     154675  HIT:      68618  MISS:      86057
LLC LOAD      ACCESS:      21375  HIT:          0  MISS:      21375
LLC RFO       ACCESS:      66539  HIT:       2407  MISS:      64132
LLC PREFETCH  ACCESS:          0  HIT:          0  MISS:          0
LLC WRITEBACK ACCESS:      66761  HIT:      66211  MISS:        550
Heartbeat CPU 0 instructions: 56000001 cycles: 26846211 heartbeat IPC: 0.418378 cumulative IPC: 0.41867 (Simulation time: 0 hr 25 min 17 sec) 

Region of Interest Statistics
cpu0_DTLB TOTAL     ACCESS:     833679  HIT:     829983  MISS:       3696
cpu0_DTLB LOAD      ACCESS:     440901  HIT:     440399  MISS:        502
cpu0_DTLB RFO       ACCESS:     392778  HIT:     389584  MISS:       3194
cpu0_DTLB PREFETCH  ACCESS:          0  HIT:          0  MISS:          0
cpu0_DTLB WRITEBACK ACCESS:          0  HIT:          0  MISS:          0
cpu0_ITLB TOTAL     ACCESS:      27872  HIT:      27872  MISS:          0
cpu0_ITLB LOAD      ACCESS:      27872  HIT:      27872  MISS:          0
cpu0_ITLB RFO       ACCESS:          0  HIT:          0  MISS:          0
cpu0_ITLB PREFETCH  ACCESS:          0  HIT:          0  MISS:          0
cpu0_ITLB WRITEBACK ACCESS:          0  HIT:          0  MISS:          0
cpu0_L1I TOTAL     ACCESS:     114543  HIT:     114543  MISS:          0
cpu0_L1I LOAD      ACCESS:     114543  HIT:     114543  MISS:          0
cpu0_L1I RFO       ACCESS:          0  HIT:          0  MISS:          0
cpu0_L1I PREFETCH  ACCESS:          0  HIT:          0  MISS:          0
cpu0_L1I WRITEBACK ACCESS:          0  HIT:          0  MISS:          0
cpu0_STLB TOTAL     ACCESS:       3696  HIT:       1691  MISS:       2005
cpu0_STLB LOAD      ACCESS:        502  HIT:          0  MISS:        502
cpu0_STLB RFO       ACCESS:       3194  HIT:       1691  MISS:       1503
cpu0_STLB PREFETCH  ACCESS:          0  HIT:          0  MISS:          0
cpu0_STLB WRITEBACK ACCESS:          0  HIT:          0  MISS:          0
cpu0_L1D TOTAL     ACCESS:    1237109  HIT:    1025452  MISS:     211657
cpu0_L1D LOAD      ACCESS:     343982  HIT:     311914  MISS:      32068
cpu0_L1D RFO       ACCESS:     891122  HIT:     711533  MISS:     179589
cpu0_L1D PREFETCH  ACCESS:          0  HIT:          0  MISS:          0
cpu0_L1D WRITEBACK ACCESS:          0  HIT:          0  MISS:          0
cpu0_L2C TOTAL     ACCESS:     391245  HIT:     259157  MISS:     132088
cpu0_L2C LOAD      ACCESS:      32068  HIT:          0  MISS:      32068
cpu0_L2C RFO       ACCESS:     179589  HIT:      79569  MISS:     100020
cpu0_L2C PREFETCH  ACCESS:          0  HIT:          0  MISS:          0
cpu0_L2C WRITEBACK ACCESS:     179588  HIT:     179588  MISS:          0
LLC TOTAL     ACCESS:     231952  HIT:     102842  MISS:     129110
LLC LOAD      ACCESS:      32068  HIT:          0  MISS:      32068
LLC RFO       ACCESS:     100020  HIT:       3811  MISS:      96209
LLC PREFETCH  ACCESS:          0  HIT:          0  MISS:          0
LLC WRITEBACK ACCESS:      99864  HIT:      99031  MISS:        833
Heartbeat CPU 0 instructions: 58000004 cycles: 31522766 heartbeat IPC: 0.427666 cumulative IPC: 0.420883 (Simulation time: 0 hr 28 min 22 sec) 

Region of Interest Statistics
cpu0_DTLB TOTAL     ACCESS:    1111773  HIT:    1106845  MISS:       4928
cpu0_DTLB LOAD      ACCESS:     588081  HIT:     587413  MISS:        668
cpu0_DTLB RFO       ACCESS:     523692  HIT:     519432  MISS:       4260
cpu0_DTLB PREFETCH  ACCESS:          0  HIT:          0  MISS:          0
cpu0_DTLB WRITEBACK ACCESS:          0  HIT:          0  MISS:          0
cpu0_ITLB TOTAL     ACCESS:      37151  HIT:      37151  MISS:          0
cpu0_ITLB LOAD      ACCESS:      37151  HIT:      37151  MISS:          0
cpu0_ITLB RFO       ACCESS:          0  HIT:          0  MISS:          0
cpu0_ITLB PREFETCH  ACCESS:          0  HIT:          0  MISS:          0
cpu0_ITLB WRITEBACK ACCESS:          0  HIT:          0  MISS:          0
cpu0_L1I TOTAL     ACCESS:     152775  HIT:     152775  MISS:          0
cpu0_L1I LOAD      ACCESS:     152775  HIT:     152775  MISS:          0
cpu0_L1I RFO       ACCESS:          0  HIT:          0  MISS:          0
cpu0_L1I PREFETCH  ACCESS:          0  HIT:          0  MISS:          0
cpu0_L1I WRITEBACK ACCESS:          0  HIT:          0  MISS:          0
cpu0_STLB TOTAL     ACCESS:       4928  HIT:       2256  MISS:       2672
cpu0_STLB LOAD      ACCESS:        668  HIT:          0  MISS:        668
cpu0_STLB RFO       ACCESS:       4260  HIT:       2256  MISS:       2004
cpu0_STLB PREFETCH  ACCESS:          0  HIT:          0  MISS:          0
cpu0_STLB WRITEBACK ACCESS:          0  HIT:          0  MISS:          0
cpu0_L1D TOTAL     ACCESS:    1649778  HIT:    1367593  MISS:     282185
cpu0_L1D LOAD      ACCESS:     458908  HIT:     416153  MISS:      42755
cpu0_L1D RFO       ACCESS:    1188198  HIT:     948768  MISS:     239430
cpu0_L1D PREFETCH  ACCESS:          0  HIT:          0  MISS:          0
cpu0_L1D WRITEBACK ACCESS:          0  HIT:          0  MISS:          0
cpu0_L2C TOTAL     ACCESS:     521614  HIT:     346001  MISS:     175613
cpu0_L2C LOAD      ACCESS:      42755  HIT:          0  MISS:      42755
cpu0_L2C RFO       ACCESS:     239430  HIT:     106572  MISS:     132858
cpu0_L2C PREFETCH  ACCESS:          0  HIT:          0  MISS:          0
cpu0_L2C WRITEBACK ACCESS:     239429  HIT:     239429  MISS:          0
LLC TOTAL     ACCESS:     308471  HIT:     136464  MISS:     172007
LLC LOAD      ACCESS:      42755  HIT:          0  MISS:      42755
LLC RFO       ACCESS:     132858  HIT:       4594  MISS:     128264
LLC PREFETCH  ACCESS:          0  HIT:          0  MISS:          0
LLC WRITEBACK ACCESS:     132858  HIT:     131870  MISS:        988
Heartbeat CPU 0 instructions: 60000000 cycles: 36290541 heartbeat IPC: 0.419482 cumulative IPC: 0.420602 (Simulation time: 0 hr 31 min 34 sec) 

Region of Interest Statistics
cpu0_DTLB TOTAL     ACCESS:    1389692  HIT:    1383534  MISS:       6158
cpu0_DTLB LOAD      ACCESS:     735103  HIT:     734268  MISS:        835
cpu0_DTLB RFO       ACCESS:     654589  HIT:     649266  MISS:       5323
cpu0_DTLB PREFETCH  ACCESS:          0  HIT:          0  MISS:          0
cpu0_DTLB WRITEBACK ACCESS:          0  HIT:          0  MISS:          0
cpu0_ITLB TOTAL     ACCESS:      46430  HIT:      46430  MISS:          0
cpu0_ITLB LOAD      ACCESS:      46430  HIT:      46430  MISS:          0
cpu0_ITLB RFO       ACCESS:          0  HIT:          0  MISS:          0
cpu0_ITLB PREFETCH  ACCESS:          0  HIT:          0  MISS:          0
cpu0_ITLB WRITEBACK ACCESS:          0  HIT:          0  MISS:          0
cpu0_L1I TOTAL     ACCESS:     190962  HIT:     190962  MISS:          0
cpu0_L1I LOAD      ACCESS:     190962  HIT:     190962  MISS:          0
cpu0_L1I RFO       ACCESS:          0  HIT:          0  MISS:          0
cpu0_L1I PREFETCH  ACCESS:          0  HIT:          0  MISS:          0
cpu0_L1I WRITEBACK ACCESS:          0  HIT:          0  MISS:          0
cpu0_STLB TOTAL     ACCESS:       6158  HIT:       2818  MISS:       3340
cpu0_STLB LOAD      ACCESS:        835  HIT:          0  MISS:        835
cpu0_STLB RFO       ACCESS:       5323  HIT:       2818  MISS:       2505
cpu0_STLB PREFETCH  ACCESS:          0  HIT:          0  MISS:          0
cpu0_STLB WRITEBACK ACCESS:          0  HIT:          0  MISS:          0
cpu0_L1D TOTAL     ACCESS:    2062233  HIT:    1709498  MISS:     352735
cpu0_L1D LOAD      ACCESS:     573671  HIT:     520228  MISS:      53443
cpu0_L1D RFO       ACCESS:    1485222  HIT:    1185931  MISS:     299291
cpu0_L1D PREFETCH  ACCESS:          0  HIT:          0  MISS:          0
cpu0_L1D WRITEBACK ACCESS:          0  HIT:          0  MISS:          0
cpu0_L2C TOTAL     ACCESS:     652025  HIT:     433029  MISS:     218996
cpu0_L2C LOAD      ACCESS:      53443  HIT:          0  MISS:      53443
cpu0_L2C RFO       ACCESS:     299291  HIT:     133739  MISS:     165552
cpu0_L2C PREFETCH  ACCESS:          0  HIT:          0  MISS:          0
cpu0_L2C WRITEBACK ACCESS:     299290  HIT:     299290  MISS:          0
LLC TOTAL     ACCESS:     384582  HIT:     169419  MISS:     215163
LLC LOAD      ACCESS:      53443  HIT:          0  MISS:      53443
LLC RFO       ACCESS:     165552  HIT:       5218  MISS:     160334
LLC PREFETCH  ACCESS:          0  HIT:          0  MISS:          0
LLC WRITEBACK ACCESS:     165586  HIT:     164201  MISS:       1385
Heartbeat CPU 0 instructions: 62000004 cycles: 41057485 heartbeat IPC: 0.419557 cumulative IPC: 0.420428 (Simulation time: 0 hr 34 min 48 sec) 

Region of Interest Statistics
cpu0_DTLB TOTAL     ACCESS:    1667505  HIT:    1660113  MISS:       7392
cpu0_DTLB LOAD      ACCESS:     881962  HIT:     880959  MISS:       1003
cpu0_DTLB RFO       ACCESS:     785543  HIT:     779154  MISS:       6389
cpu0_DTLB PREFETCH  ACCESS:          0  HIT:          0  MISS:          0
cpu0_DTLB WRITEBACK ACCESS:          0  HIT:          0  MISS:          0
cpu0_ITLB TOTAL     ACCESS:      55743  HIT:      55743  MISS:          0
cpu0_ITLB LOAD      ACCESS:      55743  HIT:      55743  MISS:          0
cpu0_ITLB RFO       ACCESS:          0  HIT:          0  MISS:          0
cpu0_ITLB PREFETCH  ACCESS:          0  HIT:          0  MISS:          0
cpu0_ITLB WRITEBACK ACCESS:          0  HIT:          0  MISS:          0
cpu0_L1I TOTAL     ACCESS:     229097  HIT:     229097  MISS:          0
cpu0_L1I LOAD      ACCESS:     229097  HIT:     229097  MISS:          0
cpu0_L1I RFO       ACCESS:          0  HIT:          0  MISS:          0
cpu0_L1I PREFETCH  ACCESS:          0  HIT:          0  MISS:          0
cpu0_L1I WRITEBACK ACCESS:          0  HIT:          0  MISS:          0
cpu0_STLB TOTAL     ACCESS:       7392  HIT:       3383  MISS:       4009
cpu0_STLB LOAD      ACCESS:       1003  HIT:          0  MISS:       1003
cpu0_STLB RFO       ACCESS:       6389  HIT:       3383  MISS:       3006
cpu0_STLB PREFETCH  ACCESS:          0  HIT:          0  MISS:          0
cpu0_STLB WRITEBACK ACCESS:          0  HIT:          0  MISS:          0
cpu0_L1D TOTAL     ACCESS:    2474490  HIT:    2051173  MISS:     423317
cpu0_L1D LOAD      ACCESS:     688210  HIT:     624073  MISS:      64137
cpu0_L1D RFO       ACCESS:    1782271  HIT:    1423092  MISS:     359179
cpu0_L1D PREFETCH  ACCESS:          0  HIT:          0  MISS:          0
cpu0_L1D WRITEBACK ACCESS:          0  HIT:          0  MISS:          0
cpu0_L2C TOTAL     ACCESS:     782494  HIT:     519662  MISS:     262832
cpu0_L2C LOAD      ACCESS:      64137  HIT:          0  MISS:      64137
cpu0_L2C RFO       ACCESS:     359179  HIT:     160485  MISS:     198694
cpu0_L2C PREFETCH  ACCESS:          0  HIT:          0  MISS:          0
cpu0_L2C WRITEBACK ACCESS:     359177  HIT:     359177  MISS:          0
LLC TOTAL     ACCESS:     461644  HIT:     203107  MISS:     258537
LLC LOAD      ACCESS:      64138  HIT:          0  MISS:      64138
LLC RFO       ACCESS:     198694  HIT:       6277  MISS:     192417
LLC PREFETCH  ACCESS:          0  HIT:          0  MISS:          0
LLC WRITEBACK ACCESS:     198811  HIT:     196830  MISS:       1981
Heartbeat CPU 0 instructions: 64000002 cycles: 45784804 heartbeat IPC: 0.423072 cumulative IPC: 0.420804 (Simulation time: 0 hr 37 min 52 sec) 

Region of Interest Statistics
cpu0_DTLB TOTAL     ACCESS:    1945690  HIT:    1937067  MISS:       8623
cpu0_DTLB LOAD      ACCESS:    1029178  HIT:    1028008  MISS:       1170
cpu0_DTLB RFO       ACCESS:     916512  HIT:     909059  MISS:       7453
cpu0_DTLB PREFETCH  ACCESS:          0  HIT:          0  MISS:          0
cpu0_DTLB WRITEBACK ACCESS:          0  HIT:          0  MISS:          0
cpu0_ITLB TOTAL     ACCESS:      65023  HIT:      65023  MISS:          0
cpu0_ITLB LOAD      ACCESS:      65023  HIT:      65023  MISS:          0
cpu0_ITLB RFO       ACCESS:          0  HIT:          0  MISS:          0
cpu0_ITLB PREFETCH  ACCESS:          0  HIT:          0  MISS:          0
cpu0_ITLB WRITEBACK ACCESS:          0  HIT:          0  MISS:          0
cpu0_L1I TOTAL     ACCESS:     267282  HIT:     267282  MISS:          0
cpu0_L1I LOAD      ACCESS:     267282  HIT:     267282  MISS:          0
cpu0_L1I RFO       ACCESS:          0  HIT:          0  MISS:          0
cpu0_L1I PREFETCH  ACCESS:          0  HIT:          0  MISS:          0
cpu0_L1I WRITEBACK ACCESS:          0  HIT:          0  MISS:          0
cpu0_STLB TOTAL     ACCESS:       8623  HIT:       3946  MISS:       4677
cpu0_STLB LOAD      ACCESS:       1170  HIT:          0  MISS:       1170
cpu0_STLB RFO       ACCESS:       7453  HIT:       3946  MISS:       3507
cpu0_STLB PREFETCH  ACCESS:          0  HIT:          0  MISS:          0
cpu0_STLB WRITEBACK ACCESS:          0  HIT:          0  MISS:          0
cpu0_L1D TOTAL     ACCESS:    2887074  HIT:    2393220  MISS:     493854
cpu0_L1D LOAD      ACCESS:     803161  HIT:     728336  MISS:      74825
cpu0_L1D RFO       ACCESS:    2079307  HIT:    1660279  MISS:     419028
cpu0_L1D PREFETCH  ACCESS:          0  HIT:          0  MISS:          0
cpu0_L1D WRITEBACK ACCESS:          0  HIT:          0  MISS:          0
cpu0_L2C TOTAL     ACCESS:     912878  HIT:     606252  MISS:     306626
cpu0_L2C LOAD      ACCESS:      74825  HIT:          0  MISS:      74825
cpu0_L2C RFO       ACCESS:     419028  HIT:     187228  MISS:     231800
cpu0_L2C PREFETCH  ACCESS:          0  HIT:          0  MISS:          0
cpu0_L2C WRITEBACK ACCESS:     419024  HIT:     419024  MISS:          0
LLC TOTAL     ACCESS:     538205  HIT:     236591  MISS:     301614
LLC LOAD      ACCESS:      74825  HIT:          0  MISS:      74825
LLC RFO       ACCESS:     231800  HIT:       7320  MISS:     224480
LLC PREFETCH  ACCESS:          0  HIT:          0  MISS:          0
LLC WRITEBACK ACCESS:     231579  HIT:     229271  MISS:       2308
Heartbeat CPU 0 instructions: 66000000 cycles: 50465291 heartbeat IPC: 0.427306 cumulative IPC: 0.421605 (Simulation time: 0 hr 40 min 56 sec) 

Region of Interest Statistics
cpu0_DTLB TOTAL     ACCESS:    2223379  HIT:    2213524  MISS:       9855
cpu0_DTLB LOAD      ACCESS:    1175912  HIT:    1174575  MISS:       1337
cpu0_DTLB RFO       ACCESS:    1047467  HIT:    1038949  MISS:       8518
cpu0_DTLB PREFETCH  ACCESS:          0  HIT:          0  MISS:          0
cpu0_DTLB WRITEBACK ACCESS:          0  HIT:          0  MISS:          0
cpu0_ITLB TOTAL     ACCESS:      74341  HIT:      74341  MISS:          0
cpu0_ITLB LOAD      ACCESS:      74341  HIT:      74341  MISS:          0
cpu0_ITLB RFO       ACCESS:          0  HIT:          0  MISS:          0
cpu0_ITLB PREFETCH  ACCESS:          0  HIT:          0  MISS:          0
cpu0_ITLB WRITEBACK ACCESS:          0  HIT:          0  MISS:          0
cpu0_L1I TOTAL     ACCESS:     305423  HIT:     305423  MISS:          0
cpu0_L1I LOAD      ACCESS:     305423  HIT:     305423  MISS:          0
cpu0_L1I RFO       ACCESS:          0  HIT:          0  MISS:          0
cpu0_L1I PREFETCH  ACCESS:          0  HIT:          0  MISS:          0
cpu0_L1I WRITEBACK ACCESS:          0  HIT:          0  MISS:          0
cpu0_STLB TOTAL     ACCESS:       9855  HIT:       4510  MISS:       5345
cpu0_STLB LOAD      ACCESS:       1337  HIT:          0  MISS:       1337
cpu0_STLB RFO       ACCESS:       8518  HIT:       4510  MISS:       4008
cpu0_STLB PREFETCH  ACCESS:          0  HIT:          0  MISS:          0
cpu0_STLB WRITEBACK ACCESS:          0  HIT:          0  MISS:          0
cpu0_L1D TOTAL     ACCESS:    3299074  HIT:    2734647  MISS:     564427
cpu0_L1D LOAD      ACCESS:     917575  HIT:     832057  MISS:      85518
cpu0_L1D RFO       ACCESS:    2376390  HIT:    1897482  MISS:     478908
cpu0_L1D PREFETCH  ACCESS:          0  HIT:          0  MISS:          0
cpu0_L1D WRITEBACK ACCESS:          0  HIT:          0  MISS:          0
cpu0_L2C TOTAL     ACCESS:    1043334  HIT:     692215  MISS:     351119
cpu0_L2C LOAD      ACCESS:      85518  HIT:          0  MISS:      85518
cpu0_L2C RFO       ACCESS:     478908  HIT:     213308  MISS:     265600
cpu0_L2C PREFETCH  ACCESS:          0  HIT:          0  MISS:          0
cpu0_L2C WRITEBACK ACCESS:     478907  HIT:     478907  MISS:          0
LLC TOTAL     ACCESS:     616809  HIT:     272017  MISS:     344792
LLC LOAD      ACCESS:      85518  HIT:          0  MISS:      85518
LLC RFO       ACCESS:     265600  HIT:       9042  MISS:     256558
LLC PREFETCH  ACCESS:          0  HIT:          0  MISS:          0
LLC WRITEBACK ACCESS:     265690  HIT:     262975  MISS:       2715
Heartbeat CPU 0 instructions: 68000001 cycles: 55201477 heartbeat IPC: 0.422281 cumulative IPC: 0.42168 (Simulation time: 0 hr 44 min 3 sec) 

Region of Interest Statistics
cpu0_DTLB TOTAL     ACCESS:    2501214  HIT:    2490127  MISS:      11087
cpu0_DTLB LOAD      ACCESS:    1322864  HIT:    1321360  MISS:       1504
cpu0_DTLB RFO       ACCESS:    1178350  HIT:    1168767  MISS:       9583
cpu0_DTLB PREFETCH  ACCESS:          0  HIT:          0  MISS:          0
cpu0_DTLB WRITEBACK ACCESS:          0  HIT:          0  MISS:          0
cpu0_ITLB TOTAL     ACCESS:      83614  HIT:      83614  MISS:          0
cpu0_ITLB LOAD      ACCESS:      83614  HIT:      83614  MISS:          0
cpu0_ITLB RFO       ACCESS:          0  HIT:          0  MISS:          0
cpu0_ITLB PREFETCH  ACCESS:          0  HIT:          0  MISS:          0
cpu0_ITLB WRITEBACK ACCESS:          0  HIT:          0  MISS:          0
cpu0_L1I TOTAL     ACCESS:     343638  HIT:     343638  MISS:          0
cpu0_L1I LOAD      ACCESS:     343638  HIT:     343638  MISS:          0
cpu0_L1I RFO       ACCESS:          0  HIT:          0  MISS:          0
cpu0_L1I PREFETCH  ACCESS:          0  HIT:          0  MISS:          0
cpu0_L1I WRITEBACK ACCESS:          0  HIT:          0  MISS:          0
cpu0_STLB TOTAL     ACCESS:      11087  HIT:       5074  MISS:       6013
cpu0_STLB LOAD      ACCESS:       1504  HIT:          0  MISS:       1504
cpu0_STLB RFO       ACCESS:       9583  HIT:       5074  MISS:       4509
cpu0_STLB PREFETCH  ACCESS:          0  HIT:          0  MISS:          0
cpu0_STLB WRITEBACK ACCESS:          0  HIT:          0  MISS:          0
cpu0_L1D TOTAL     ACCESS:    3711341  HIT:    3076381  MISS:     634960
cpu0_L1D LOAD      ACCESS:    1032270  HIT:     936065  MISS:      96205
cpu0_L1D RFO       ACCESS:    2673459  HIT:    2134705  MISS:     538754
cpu0_L1D PREFETCH  ACCESS:          0  HIT:          0  MISS:          0
cpu0_L1D WRITEBACK ACCESS:          0  HIT:          0  MISS:          0
cpu0_L2C TOTAL     ACCESS:    1173711  HIT:     779058  MISS:     394653
cpu0_L2C LOAD      ACCESS:      96205  HIT:          0  MISS:      96205
cpu0_L2C RFO       ACCESS:     538754  HIT:     240307  MISS:     298447
cpu0_L2C PREFETCH  ACCESS:          0  HIT:          0  MISS:          0
cpu0_L2C WRITEBACK ACCESS:     538751  HIT:     538751  MISS:          0
LLC TOTAL     ACCESS:     693003  HIT:     305069  MISS:     387934
LLC LOAD      ACCESS:      96205  HIT:          0  MISS:      96205
LLC RFO       ACCESS:     298447  HIT:       9829  MISS:     288618
LLC PREFETCH  ACCESS:          0  HIT:          0  MISS:          0
LLC WRITEBACK ACCESS:     298350  HIT:     295240  MISS:       3110
Heartbeat CPU 0 instructions: 70000001 cycles: 60236457 heartbeat IPC: 0.397221 cumulative IPC: 0.4191 (Simulation time: 0 hr 47 min 31 sec) 

Region of Interest Statistics
cpu0_DTLB TOTAL     ACCESS:    2784645  HIT:    2772223  MISS:      12422
cpu0_DTLB LOAD      ACCESS:    1470807  HIT:    1469121  MISS:       1686
cpu0_DTLB RFO       ACCESS:    1313838  HIT:    1303102  MISS:      10736
cpu0_DTLB PREFETCH  ACCESS:          0  HIT:          0  MISS:          0
cpu0_DTLB WRITEBACK ACCESS:          0  HIT:          0  MISS:          0
cpu0_ITLB TOTAL     ACCESS:      93624  HIT:      93624  MISS:          0
cpu0_ITLB LOAD      ACCESS:      93624  HIT:      93624  MISS:          0
cpu0_ITLB RFO       ACCESS:          0  HIT:          0  MISS:          0
cpu0_ITLB PREFETCH  ACCESS:          0  HIT:          0  MISS:          0
cpu0_ITLB WRITEBACK ACCESS:          0  HIT:          0  MISS:          0
cpu0_L1I TOTAL     ACCESS:     383998  HIT:     383998  MISS:          0
cpu0_L1I LOAD      ACCESS:     383998  HIT:     383998  MISS:          0
cpu0_L1I RFO       ACCESS:          0  HIT:          0  MISS:          0
cpu0_L1I PREFETCH  ACCESS:          0  HIT:          0  MISS:          0
cpu0_L1I WRITEBACK ACCESS:          0  HIT:          0  MISS:          0
cpu0_STLB TOTAL     ACCESS:      12422  HIT:       5682  MISS:       6740
cpu0_STLB LOAD      ACCESS:       1686  HIT:          0  MISS:       1686
cpu0_STLB RFO       ACCESS:      10736  HIT:       5682  MISS:       5054
cpu0_STLB PREFETCH  ACCESS:          0  HIT:          0  MISS:          0
cpu0_STLB WRITEBACK ACCESS:          0  HIT:          0  MISS:          0
cpu0_L1D TOTAL     ACCESS:    4128126  HIT:    3416639  MISS:     711487
cpu0_L1D LOAD      ACCESS:    1146688  HIT:    1038887  MISS:     107801
cpu0_L1D RFO       ACCESS:    2975279  HIT:    2371596  MISS:     603683
cpu0_L1D PREFETCH  ACCESS:          0  HIT:          0  MISS:          0
cpu0_L1D WRITEBACK ACCESS:          0  HIT:          0  MISS:          0
cpu0_L2C TOTAL     ACCESS:    1315164  HIT:     873556  MISS:     441608
cpu0_L2C LOAD      ACCESS:     107801  HIT:          0  MISS:     107801
cpu0_L2C RFO       ACCESS:     603683  HIT:     269885  MISS:     333798
cpu0_L2C PREFETCH  ACCESS:          0  HIT:          0  MISS:          0
cpu0_L2C WRITEBACK ACCESS:     603677  HIT:     603671  MISS:          6
LLC TOTAL     ACCESS:     775231  HIT:     340566  MISS:     434665
LLC LOAD      ACCESS:     107801  HIT:          0  MISS:     107801
LLC RFO       ACCESS:     333798  HIT:      10401  MISS:     323397
LLC PREFETCH  ACCESS:          0  HIT:          0  MISS:          0
LLC WRITEBACK ACCESS:     333629  HIT:     330165  MISS:       3464
Heartbeat CPU 0 instructions: 72000004 cycles: 65016848 heartbeat IPC: 0.418376 cumulative IPC: 0.419034 (Simulation time: 0 hr 50 min 42 sec) 

Region of Interest Statistics
cpu0_DTLB TOTAL     ACCESS:    3062352  HIT:    3048696  MISS:      13656
cpu0_DTLB LOAD      ACCESS:    1617587  HIT:    1615734  MISS:       1853
cpu0_DTLB RFO       ACCESS:    1444765  HIT:    1432962  MISS:      11803
cpu0_DTLB PREFETCH  ACCESS:          0  HIT:          0  MISS:          0
cpu0_DTLB WRITEBACK ACCESS:          0  HIT:          0  MISS:          0
cpu0_ITLB TOTAL     ACCESS:     102942  HIT:     102942  MISS:          0
cpu0_ITLB LOAD      ACCESS:     102942  HIT:     102942  MISS:          0
cpu0_ITLB RFO       ACCESS:          0  HIT:          0  MISS:          0
cpu0_ITLB PREFETCH  ACCESS:          0  HIT:          0  MISS:          0
cpu0_ITLB WRITEBACK ACCESS:          0  HIT:          0  MISS:          0
cpu0_L1I TOTAL     ACCESS:     422144  HIT:     422144  MISS:          0
cpu0_L1I LOAD      ACCESS:     422144  HIT:     422144  MISS:          0
cpu0_L1I RFO       ACCESS:          0  HIT:          0  MISS:          0
cpu0_L1I PREFETCH  ACCESS:          0  HIT:          0  MISS:          0
cpu0_L1I WRITEBACK ACCESS:          0  HIT:          0  MISS:          0
cpu0_STLB TOTAL     ACCESS:      13656  HIT:       6248  MISS:       7408
cpu0_STLB LOAD      ACCESS:       1853  HIT:          0  MISS:       1853
cpu0_STLB RFO       ACCESS:      11803  HIT:       6248  MISS:       5555
cpu0_STLB PREFETCH  ACCESS:          0  HIT:          0  MISS:          0
cpu0_STLB WRITEBACK ACCESS:          0  HIT:          0  MISS:          0
cpu0_L1D TOTAL     ACCESS:    4540212  HIT:    3758164  MISS:     782048
cpu0_L1D LOAD      ACCESS:    1261209  HIT:    1142713  MISS:     118496
cpu0_L1D RFO       ACCESS:    3272341  HIT:    2608792  MISS:     663549
cpu0_L1D PREFETCH  ACCESS:          0  HIT:          0  MISS:          0
cpu0_L1D WRITEBACK ACCESS:          0  HIT:          0  MISS:          0
cpu0_L2C TOTAL     ACCESS:    1445594  HIT:     960446  MISS:     485148
cpu0_L2C LOAD      ACCESS:     118496  HIT:          0  MISS:     118496
cpu0_L2C RFO       ACCESS:     663549  HIT:     296906  MISS:     366643
cpu0_L2C PREFETCH  ACCESS:          0  HIT:          0  MISS:          0
cpu0_L2C WRITEBACK ACCESS:     663546  HIT:     663540  MISS:          6
LLC TOTAL     ACCESS:     851689  HIT:     373912  MISS:     477777
LLC LOAD      ACCESS:     118496  HIT:          0  MISS:     118496
LLC RFO       ACCESS:     366643  HIT:      11175  MISS:     355468
LLC PREFETCH  ACCESS:          0  HIT:          0  MISS:          0
LLC WRITEBACK ACCESS:     366547  HIT:     362737  MISS:       3810
Heartbeat CPU 0 instructions: 74000002 cycles: 69733974 heartbeat IPC: 0.423987 cumulative IPC: 0.419442 (Simulation time: 0 hr 53 min 53 sec) 

Region of Interest Statistics
cpu0_DTLB TOTAL     ACCESS:    3340428  HIT:    3325541  MISS:      14887
cpu0_DTLB LOAD      ACCESS:    1764739  HIT:    1762719  MISS:       2020
cpu0_DTLB RFO       ACCESS:    1575689  HIT:    1562822  MISS:      12867
cpu0_DTLB PREFETCH  ACCESS:          0  HIT:          0  MISS:          0
cpu0_DTLB WRITEBACK ACCESS:          0  HIT:          0  MISS:          0
cpu0_ITLB TOTAL     ACCESS:     112217  HIT:     112217  MISS:          0
cpu0_ITLB LOAD      ACCESS:     112217  HIT:     112217  MISS:          0
cpu0_ITLB RFO       ACCESS:          0  HIT:          0  MISS:          0
cpu0_ITLB PREFETCH  ACCESS:          0  HIT:          0  MISS:          0
cpu0_ITLB WRITEBACK ACCESS:          0  HIT:          0  MISS:          0
cpu0_L1I TOTAL     ACCESS:     460379  HIT:     460379  MISS:          0
cpu0_L1I LOAD      ACCESS:     460379  HIT:     460379  MISS:          0
cpu0_L1I RFO       ACCESS:          0  HIT:          0  MISS:          0
cpu0_L1I PREFETCH  ACCESS:          0  HIT:          0  MISS:          0
cpu0_L1I WRITEBACK ACCESS:          0  HIT:          0  MISS:          0
cpu0_STLB TOTAL     ACCESS:      14887  HIT:       6811  MISS:       8076
cpu0_STLB LOAD      ACCESS:       2020  HIT:          0  MISS:       2020
cpu0_STLB RFO       ACCESS:      12867  HIT:       6811  MISS:       6056
cpu0_STLB PREFETCH  ACCESS:          0  HIT:          0  MISS:          0
cpu0_STLB WRITEBACK ACCESS:          0  HIT:          0  MISS:          0
cpu0_L1D TOTAL     ACCESS:    4952633  HIT:    4100031  MISS:     852602
cpu0_L1D LOAD      ACCESS:    1376063  HIT:    1246880  MISS:     129183
cpu0_L1D RFO       ACCESS:    3569404  HIT:    2845988  MISS:     723416
cpu0_L1D PREFETCH  ACCESS:          0  HIT:          0  MISS:          0
cpu0_L1D WRITEBACK ACCESS:          0  HIT:          0  MISS:          0
cpu0_L2C TOTAL     ACCESS:    1576015  HIT:    1047200  MISS:     528815
cpu0_L2C LOAD      ACCESS:     129183  HIT:          0  MISS:     129183
cpu0_L2C RFO       ACCESS:     723416  HIT:     323793  MISS:     399623
cpu0_L2C PREFETCH  ACCESS:          0  HIT:          0  MISS:          0
cpu0_L2C WRITEBACK ACCESS:     723413  HIT:     723407  MISS:          6
LLC TOTAL     ACCESS:     928483  HIT:     407696  MISS:     520787
LLC LOAD      ACCESS:     129183  HIT:          0  MISS:     129183
LLC RFO       ACCESS:     399623  HIT:      12084  MISS:     387539
LLC PREFETCH  ACCESS:          0  HIT:          0  MISS:          0
LLC WRITEBACK ACCESS:     399674  HIT:     395612  MISS:       4062
Heartbeat CPU 0 instructions: 76000001 cycles: 74463410 heartbeat IPC: 0.422883 cumulative IPC: 0.419705 (Simulation time: 0 hr 57 min 5 sec) 

Region of Interest Statistics
cpu0_DTLB TOTAL     ACCESS:    3618286  HIT:    3602167  MISS:      16119
cpu0_DTLB LOAD      ACCESS:    1911665  HIT:    1909478  MISS:       2187
cpu0_DTLB RFO       ACCESS:    1706621  HIT:    1692689  MISS:      13932
cpu0_DTLB PREFETCH  ACCESS:          0  HIT:          0  MISS:          0
cpu0_DTLB WRITEBACK ACCESS:          0  HIT:          0  MISS:          0
cpu0_ITLB TOTAL     ACCESS:     121496  HIT:     121496  MISS:          0
cpu0_ITLB LOAD      ACCESS:     121496  HIT:     121496  MISS:          0
cpu0_ITLB RFO       ACCESS:          0  HIT:          0  MISS:          0
cpu0_ITLB PREFETCH  ACCESS:          0  HIT:          0  MISS:          0
cpu0_ITLB WRITEBACK ACCESS:          0  HIT:          0  MISS:          0
cpu0_L1I TOTAL     ACCESS:     498551  HIT:     498551  MISS:          0
cpu0_L1I LOAD      ACCESS:     498551  HIT:     498551  MISS:          0
cpu0_L1I RFO       ACCESS:          0  HIT:          0  MISS:          0
cpu0_L1I PREFETCH  ACCESS:          0  HIT:          0  MISS:          0
cpu0_L1I WRITEBACK ACCESS:          0  HIT:          0  MISS:          0
cpu0_STLB TOTAL     ACCESS:      16119  HIT:       7375  MISS:       8744
cpu0_STLB LOAD      ACCESS:       2187  HIT:          0  MISS:       2187
cpu0_STLB RFO       ACCESS:      13932  HIT:       7375  MISS:       6557
cpu0_STLB PREFETCH  ACCESS:          0  HIT:          0  MISS:          0
cpu0_STLB WRITEBACK ACCESS:          0  HIT:          0  MISS:          0
cpu0_L1D TOTAL     ACCESS:    5364970  HIT:    4441819  MISS:     923151
cpu0_L1D LOAD      ACCESS:    1490715  HIT:    1350844  MISS:     139871
cpu0_L1D RFO       ACCESS:    3866470  HIT:    3083195  MISS:     783275
cpu0_L1D PREFETCH  ACCESS:          0  HIT:          0  MISS:          0
cpu0_L1D WRITEBACK ACCESS:          0  HIT:          0  MISS:          0
cpu0_L2C TOTAL     ACCESS:    1706423  HIT:    1133936  MISS:     572487
cpu0_L2C LOAD      ACCESS:     139871  HIT:          0  MISS:     139871
cpu0_L2C RFO       ACCESS:     783275  HIT:     350670  MISS:     432605
cpu0_L2C PREFETCH  ACCESS:          0  HIT:          0  MISS:          0
cpu0_L2C WRITEBACK ACCESS:     783272  HIT:     783266  MISS:          6
LLC TOTAL     ACCESS:    1004905  HIT:     441121  MISS:     563784
LLC LOAD      ACCESS:     139871  HIT:          0  MISS:     139871
LLC RFO       ACCESS:     432605  HIT:      12996  MISS:     419609
LLC PREFETCH  ACCESS:          0  HIT:          0  MISS:          0
LLC WRITEBACK ACCESS:     432424  HIT:     428125  MISS:       4299
Heartbeat CPU 0 instructions: 78000002 cycles: 79211185 heartbeat IPC: 0.42125 cumulative IPC: 0.419815 (Simulation time: 1 hr 0 min 23 sec) 

Region of Interest Statistics
cpu0_DTLB TOTAL     ACCESS:    3896177  HIT:    3878827  MISS:      17350
cpu0_DTLB LOAD      ACCESS:    2058609  HIT:    2056255  MISS:       2354
cpu0_DTLB RFO       ACCESS:    1837568  HIT:    1822572  MISS:      14996
cpu0_DTLB PREFETCH  ACCESS:          0  HIT:          0  MISS:          0
cpu0_DTLB WRITEBACK ACCESS:          0  HIT:          0  MISS:          0
cpu0_ITLB TOTAL     ACCESS:     130814  HIT:     130814  MISS:          0
cpu0_ITLB LOAD      ACCESS:     130814  HIT:     130814  MISS:          0
cpu0_ITLB RFO       ACCESS:          0  HIT:          0  MISS:          0
cpu0_ITLB PREFETCH  ACCESS:          0  HIT:          0  MISS:          0
cpu0_ITLB WRITEBACK ACCESS:          0  HIT:          0  MISS:          0
cpu0_L1I TOTAL     ACCESS:     536714  HIT:     536714  MISS:          0
cpu0_L1I LOAD      ACCESS:     536714  HIT:     536714  MISS:          0
cpu0_L1I RFO       ACCESS:          0  HIT:          0  MISS:          0
cpu0_L1I PREFETCH  ACCESS:          0  HIT:          0  MISS:          0
cpu0_L1I WRITEBACK ACCESS:          0  HIT:          0  MISS:          0
cpu0_STLB TOTAL     ACCESS:      17350  HIT:       7938  MISS:       9412
cpu0_STLB LOAD      ACCESS:       2354  HIT:          0  MISS:       2354
cpu0_STLB RFO       ACCESS:      14996  HIT:       7938  MISS:       7058
cpu0_STLB PREFETCH  ACCESS:          0  HIT:          0  MISS:          0
cpu0_STLB WRITEBACK ACCESS:          0  HIT:          0  MISS:          0
cpu0_L1D TOTAL     ACCESS:    5777258  HIT:    4783540  MISS:     993718
cpu0_L1D LOAD      ACCESS:    1605315  HIT:    1454752  MISS:     150563
cpu0_L1D RFO       ACCESS:    4163490  HIT:    3320340  MISS:     843150
cpu0_L1D PREFETCH  ACCESS:          0  HIT:          0  MISS:          0
cpu0_L1D WRITEBACK ACCESS:          0  HIT:          0  MISS:          0
cpu0_L2C TOTAL     ACCESS:    1836863  HIT:    1220632  MISS:     616231
cpu0_L2C LOAD      ACCESS:     150563  HIT:          0  MISS:     150563
cpu0_L2C RFO       ACCESS:     843150  HIT:     377493  MISS:     465657
cpu0_L2C PREFETCH  ACCESS:          0  HIT:          0  MISS:          0
cpu0_L2C WRITEBACK ACCESS:     843145  HIT:     843139  MISS:          6
LLC TOTAL     ACCESS:    1081690  HIT:     474908  MISS:     606782
LLC LOAD      ACCESS:     150563  HIT:          0  MISS:     150563
LLC RFO       ACCESS:     465657  HIT:      13972  MISS:     451685
LLC PREFETCH  ACCESS:          0  HIT:          0  MISS:          0
LLC WRITEBACK ACCESS:     465465  HIT:     460936  MISS:       4529
Heartbeat CPU 0 instructions: 80000003 cycles: 83934126 heartbeat IPC: 0.423465 cumulative IPC: 0.420056 (Simulation time: 1 hr 3 min 34 sec) 

Region of Interest Statistics
cpu0_DTLB TOTAL     ACCESS:    4174194  HIT:    4155612  MISS:      18582
cpu0_DTLB LOAD      ACCESS:    2205694  HIT:    2203173  MISS:       2521
cpu0_DTLB RFO       ACCESS:    1968500  HIT:    1952439  MISS:      16061
cpu0_DTLB PREFETCH  ACCESS:          0  HIT:          0  MISS:          0
cpu0_DTLB WRITEBACK ACCESS:          0  HIT:          0  MISS:          0
cpu0_ITLB TOTAL     ACCESS:     140087  HIT:     140087  MISS:          0
cpu0_ITLB LOAD      ACCESS:     140087  HIT:     140087  MISS:          0
cpu0_ITLB RFO       ACCESS:          0  HIT:          0  MISS:          0
cpu0_ITLB PREFETCH  ACCESS:          0  HIT:          0  MISS:          0
cpu0_ITLB WRITEBACK ACCESS:          0  HIT:          0  MISS:          0
cpu0_L1I TOTAL     ACCESS:     574897  HIT:     574897  MISS:          0
cpu0_L1I LOAD      ACCESS:     574897  HIT:     574897  MISS:          0
cpu0_L1I RFO       ACCESS:          0  HIT:          0  MISS:          0
cpu0_L1I PREFETCH  ACCESS:          0  HIT:          0  MISS:          0
cpu0_L1I WRITEBACK ACCESS:          0  HIT:          0  MISS:          0
cpu0_STLB TOTAL     ACCESS:      18582  HIT:       8502  MISS:      10080
cpu0_STLB LOAD      ACCESS:       2521  HIT:          0  MISS:       2521
cpu0_STLB RFO       ACCESS:      16061  HIT:       8502  MISS:       7559
cpu0_STLB PREFETCH  ACCESS:          0  HIT:          0  MISS:          0
cpu0_STLB WRITEBACK ACCESS:          0  HIT:          0  MISS:          0
cpu0_L1D TOTAL     ACCESS:    6189831  HIT:    5125570  MISS:    1064261
cpu0_L1D LOAD      ACCESS:    1720139  HIT:    1558888  MISS:     161251
cpu0_L1D RFO       ACCESS:    4460571  HIT:    3557566  MISS:     903005
cpu0_L1D PREFETCH  ACCESS:          0  HIT:          0  MISS:          0
cpu0_L1D WRITEBACK ACCESS:          0  HIT:          0  MISS:          0
cpu0_L2C TOTAL     ACCESS:    1967262  HIT:    1307420  MISS:     659842
cpu0_L2C LOAD      ACCESS:     161251  HIT:          0  MISS:     161251
cpu0_L2C RFO       ACCESS:     903005  HIT:     404425  MISS:     498580
cpu0_L2C PREFETCH  ACCESS:          0  HIT:          0  MISS:          0
cpu0_L2C WRITEBACK ACCESS:     903001  HIT:     902995  MISS:          6
LLC TOTAL     ACCESS:    1158429  HIT:     508509  MISS:     649920
LLC LOAD      ACCESS:     161251  HIT:          0  MISS:     161251
LLC RFO       ACCESS:     498580  HIT:      14831  MISS:     483749
LLC PREFETCH  ACCESS:          0  HIT:          0  MISS:          0
LLC WRITEBACK ACCESS:     498593  HIT:     493678  MISS:       4915
Heartbeat CPU 0 instructions: 82000003 cycles: 88699775 heartbeat IPC: 0.41967 cumulative IPC: 0.420032 (Simulation time: 1 hr 6 min 43 sec) 

Region of Interest Statistics
cpu0_DTLB TOTAL     ACCESS:    4451999  HIT:    4432185  MISS:      19814
cpu0_DTLB LOAD      ACCESS:    2352576  HIT:    2349888  MISS:       2688
cpu0_DTLB RFO       ACCESS:    2099423  HIT:    2082297  MISS:      17126
cpu0_DTLB PREFETCH  ACCESS:          0  HIT:          0  MISS:          0
cpu0_DTLB WRITEBACK ACCESS:          0  HIT:          0  MISS:          0
cpu0_ITLB TOTAL     ACCESS:     149367  HIT:     149367  MISS:          0
cpu0_ITLB LOAD      ACCESS:     149367  HIT:     149367  MISS:          0
cpu0_ITLB RFO       ACCESS:          0  HIT:          0  MISS:          0
cpu0_ITLB PREFETCH  ACCESS:          0  HIT:          0  MISS:          0
cpu0_ITLB WRITEBACK ACCESS:          0  HIT:          0  MISS:          0
cpu0_L1I TOTAL     ACCESS:     613066  HIT:     613066  MISS:          0
cpu0_L1I LOAD      ACCESS:     613066  HIT:     613066  MISS:          0
cpu0_L1I RFO       ACCESS:          0  HIT:          0  MISS:          0
cpu0_L1I PREFETCH  ACCESS:          0  HIT:          0  MISS:          0
cpu0_L1I WRITEBACK ACCESS:          0  HIT:          0  MISS:          0
cpu0_STLB TOTAL     ACCESS:      19814  HIT:       9066  MISS:      10748
cpu0_STLB LOAD      ACCESS:       2688  HIT:          0  MISS:       2688
cpu0_STLB RFO       ACCESS:      17126  HIT:       9066  MISS:       8060
cpu0_STLB PREFETCH  ACCESS:          0  HIT:          0  MISS:          0
cpu0_STLB WRITEBACK ACCESS:          0  HIT:          0  MISS:          0
cpu0_L1D TOTAL     ACCESS:    6602158  HIT:    5467345  MISS:    1134813
cpu0_L1D LOAD      ACCESS:    1834762  HIT:    1662821  MISS:     171941
cpu0_L1D RFO       ACCESS:    4757607  HIT:    3794740  MISS:     962867
cpu0_L1D PREFETCH  ACCESS:          0  HIT:          0  MISS:          0
cpu0_L1D WRITEBACK ACCESS:          0  HIT:          0  MISS:          0
cpu0_L2C TOTAL     ACCESS:    2097677  HIT:    1394233  MISS:     703444
cpu0_L2C LOAD      ACCESS:     171941  HIT:          0  MISS:     171941
cpu0_L2C RFO       ACCESS:     962867  HIT:     431375  MISS:     531492
cpu0_L2C PREFETCH  ACCESS:          0  HIT:          0  MISS:          0
cpu0_L2C WRITEBACK ACCESS:     962864  HIT:     962858  MISS:          6
LLC TOTAL     ACCESS:    1235057  HIT:     542023  MISS:     693034
LLC LOAD      ACCESS:     171941  HIT:          0  MISS:     171941
LLC RFO       ACCESS:     531492  HIT:      15673  MISS:     515819
LLC PREFETCH  ACCESS:          0  HIT:          0  MISS:          0
LLC WRITEBACK ACCESS:     531619  HIT:     526350  MISS:       5269
Heartbeat CPU 0 instructions: 84000000 cycles: 93437914 heartbeat IPC: 0.422106 cumulative IPC: 0.420154 (Simulation time: 1 hr 9 min 48 sec) 

Region of Interest Statistics
cpu0_DTLB TOTAL     ACCESS:    4729690  HIT:    4708645  MISS:      21045
cpu0_DTLB LOAD      ACCESS:    2499307  HIT:    2496452  MISS:       2855
cpu0_DTLB RFO       ACCESS:    2230383  HIT:    2212193  MISS:      18190
cpu0_DTLB PREFETCH  ACCESS:          0  HIT:          0  MISS:          0
cpu0_DTLB WRITEBACK ACCESS:          0  HIT:          0  MISS:          0
cpu0_ITLB TOTAL     ACCESS:     158686  HIT:     158686  MISS:          0
cpu0_ITLB LOAD      ACCESS:     158686  HIT:     158686  MISS:          0
cpu0_ITLB RFO       ACCESS:          0  HIT:          0  MISS:          0
cpu0_ITLB PREFETCH  ACCESS:          0  HIT:          0  MISS:          0
cpu0_ITLB WRITEBACK ACCESS:          0  HIT:          0  MISS:          0
cpu0_L1I TOTAL     ACCESS:     651186  HIT:     651186  MISS:          0
cpu0_L1I LOAD      ACCESS:     651186  HIT:     651186  MISS:          0
cpu0_L1I RFO       ACCESS:          0  HIT:          0  MISS:          0
cpu0_L1I PREFETCH  ACCESS:          0  HIT:          0  MISS:          0
cpu0_L1I WRITEBACK ACCESS:          0  HIT:          0  MISS:          0
cpu0_STLB TOTAL     ACCESS:      21045  HIT:       9629  MISS:      11416
cpu0_STLB LOAD      ACCESS:       2855  HIT:          0  MISS:       2855
cpu0_STLB RFO       ACCESS:      18190  HIT:       9629  MISS:       8561
cpu0_STLB PREFETCH  ACCESS:          0  HIT:          0  MISS:          0
cpu0_STLB WRITEBACK ACCESS:          0  HIT:          0  MISS:          0
cpu0_L1D TOTAL     ACCESS:    7014354  HIT:    5808974  MISS:    1205380
cpu0_L1D LOAD      ACCESS:    1949170  HIT:    1766537  MISS:     182633
cpu0_L1D RFO       ACCESS:    5054727  HIT:    4031985  MISS:    1022742
cpu0_L1D PREFETCH  ACCESS:          0  HIT:          0  MISS:          0
cpu0_L1D WRITEBACK ACCESS:          0  HIT:          0  MISS:          0
cpu0_L2C TOTAL     ACCESS:    2228119  HIT:    1480894  MISS:     747225
cpu0_L2C LOAD      ACCESS:     182633  HIT:          0  MISS:     182633
cpu0_L2C RFO       ACCESS:    1022742  HIT:     458161  MISS:     564581
cpu0_L2C PREFETCH  ACCESS:          0  HIT:          0  MISS:          0
cpu0_L2C WRITEBACK ACCESS:    1022739  HIT:    1022733  MISS:          6
LLC TOTAL     ACCESS:    1311886  HIT:     575712  MISS:     736174
LLC LOAD      ACCESS:     182633  HIT:          0  MISS:     182633
LLC RFO       ACCESS:     564581  HIT:      16686  MISS:     547895
LLC PREFETCH  ACCESS:          0  HIT:          0  MISS:          0
LLC WRITEBACK ACCESS:     564667  HIT:     559026  MISS:       5641
Heartbeat CPU 0 instructions: 86000003 cycles: 98195154 heartbeat IPC: 0.420412 cumulative IPC: 0.420168 (Simulation time: 1 hr 13 min 4 sec) 

Region of Interest Statistics
cpu0_DTLB TOTAL     ACCESS:    5007592  HIT:    4985315  MISS:      22277
cpu0_DTLB LOAD      ACCESS:    2646301  HIT:    2643279  MISS:       3022
cpu0_DTLB RFO       ACCESS:    2361291  HIT:    2342036  MISS:      19255
cpu0_DTLB PREFETCH  ACCESS:          0  HIT:          0  MISS:          0
cpu0_DTLB WRITEBACK ACCESS:          0  HIT:          0  MISS:          0
cpu0_ITLB TOTAL     ACCESS:     167959  HIT:     167959  MISS:          0
cpu0_ITLB LOAD      ACCESS:     167959  HIT:     167959  MISS:          0
cpu0_ITLB RFO       ACCESS:          0  HIT:          0  MISS:          0
cpu0_ITLB PREFETCH  ACCESS:          0  HIT:          0  MISS:          0
cpu0_ITLB WRITEBACK ACCESS:          0  HIT:          0  MISS:          0
cpu0_L1I TOTAL     ACCESS:     689391  HIT:     689391  MISS:          0
cpu0_L1I LOAD      ACCESS:     689391  HIT:     689391  MISS:          0
cpu0_L1I RFO       ACCESS:          0  HIT:          0  MISS:          0
cpu0_L1I PREFETCH  ACCESS:          0  HIT:          0  MISS:          0
cpu0_L1I WRITEBACK ACCESS:          0  HIT:          0  MISS:          0
cpu0_STLB TOTAL     ACCESS:      22277  HIT:      10193  MISS:      12084
cpu0_STLB LOAD      ACCESS:       3022  HIT:          0  MISS:       3022
cpu0_STLB RFO       ACCESS:      19255  HIT:      10193  MISS:       9062
cpu0_STLB PREFETCH  ACCESS:          0  HIT:          0  MISS:          0
cpu0_STLB WRITEBACK ACCESS:          0  HIT:          0  MISS:          0
cpu0_L1D TOTAL     ACCESS:    7426736  HIT:    6150817  MISS:    1275919
cpu0_L1D LOAD      ACCESS:    2063856  HIT:    1870535  MISS:     193321
cpu0_L1D RFO       ACCESS:    5351755  HIT:    4269162  MISS:    1082593
cpu0_L1D PREFETCH  ACCESS:          0  HIT:          0  MISS:          0
cpu0_L1D WRITEBACK ACCESS:          0  HIT:          0  MISS:          0
cpu0_L2C TOTAL     ACCESS:    2358509  HIT:    1567297  MISS:     791212
cpu0_L2C LOAD      ACCESS:     193321  HIT:          0  MISS:     193321
cpu0_L2C RFO       ACCESS:    1082593  HIT:     484713  MISS:     597880
cpu0_L2C PREFETCH  ACCESS:          0  HIT:          0  MISS:          0
cpu0_L2C WRITEBACK ACCESS:    1082590  HIT:    1082584  MISS:          6
LLC TOTAL     ACCESS:    1388969  HIT:     609861  MISS:     779108
LLC LOAD      ACCESS:     193321  HIT:          0  MISS:     193321
LLC RFO       ACCESS:     597880  HIT:      17923  MISS:     579957
LLC PREFETCH  ACCESS:          0  HIT:          0  MISS:          0
LLC WRITEBACK ACCESS:     597763  HIT:     591938  MISS:       5825
Heartbeat CPU 0 instructions: 88000003 cycles: 103275519 heartbeat IPC: 0.393672 cumulative IPC: 0.418685 (Simulation time: 1 hr 16 min 29 sec) 

Region of Interest Statistics
cpu0_DTLB TOTAL     ACCESS:    5291178  HIT:    5267567  MISS:      23611
cpu0_DTLB LOAD      ACCESS:    2794408  HIT:    2791204  MISS:       3204
cpu0_DTLB RFO       ACCESS:    2496770  HIT:    2476363  MISS:      20407
cpu0_DTLB PREFETCH  ACCESS:          0  HIT:          0  MISS:          0
cpu0_DTLB WRITEBACK ACCESS:          0  HIT:          0  MISS:          0
cpu0_ITLB TOTAL     ACCESS:     177968  HIT:     177968  MISS:          0
cpu0_ITLB LOAD      ACCESS:     177968  HIT:     177968  MISS:          0
cpu0_ITLB RFO       ACCESS:          0  HIT:          0  MISS:          0
cpu0_ITLB PREFETCH  ACCESS:          0  HIT:          0  MISS:          0
cpu0_ITLB WRITEBACK ACCESS:          0  HIT:          0  MISS:          0
cpu0_L1I TOTAL     ACCESS:     729820  HIT:     729820  MISS:          0
cpu0_L1I LOAD      ACCESS:     729820  HIT:     729820  MISS:          0
cpu0_L1I RFO       ACCESS:          0  HIT:          0  MISS:          0
cpu0_L1I PREFETCH  ACCESS:          0  HIT:          0  MISS:          0
cpu0_L1I WRITEBACK ACCESS:          0  HIT:          0  MISS:          0
cpu0_STLB TOTAL     ACCESS:      23611  HIT:      10801  MISS:      12810
cpu0_STLB LOAD      ACCESS:       3204  HIT:          0  MISS:       3204
cpu0_STLB RFO       ACCESS:      20407  HIT:      10801  MISS:       9606
cpu0_STLB PREFETCH  ACCESS:          0  HIT:          0  MISS:          0
cpu0_STLB WRITEBACK ACCESS:          0  HIT:          0  MISS:          0
cpu0_L1D TOTAL     ACCESS:    7843946  HIT:    6491507  MISS:    1352439
cpu0_L1D LOAD      ACCESS:    2178508  HIT:    1973592  MISS:     204916
cpu0_L1D RFO       ACCESS:    5653587  HIT:    4506071  MISS:    1147516
cpu0_L1D PREFETCH  ACCESS:          0  HIT:          0  MISS:          0
cpu0_L1D WRITEBACK ACCESS:          0  HIT:          0  MISS:          0
cpu0_L2C TOTAL     ACCESS:    2499950  HIT:    1661291  MISS:     838659
cpu0_L2C LOAD      ACCESS:     204916  HIT:          0  MISS:     204916
cpu0_L2C RFO       ACCESS:    1147516  HIT:     513792  MISS:     633724
cpu0_L2C PREFETCH  ACCESS:          0  HIT:          0  MISS:          0
cpu0_L2C WRITEBACK ACCESS:    1147511  HIT:    1147499  MISS:         12
LLC TOTAL     ACCESS:    1472447  HIT:     646730  MISS:     825717
LLC LOAD      ACCESS:     204916  HIT:          0  MISS:     204916
LLC RFO       ACCESS:     633724  HIT:      18989  MISS:     614735
LLC PREFETCH  ACCESS:          0  HIT:          0  MISS:          0
LLC WRITEBACK ACCESS:     633800  HIT:     627741  MISS:       6059
Heartbeat CPU 0 instructions: 90000004 cycles: 107969144 heartbeat IPC: 0.42611 cumulative IPC: 0.41905 (Simulation time: 1 hr 19 min 37 sec) 

Region of Interest Statistics
cpu0_DTLB TOTAL     ACCESS:    5569316  HIT:    5544473  MISS:      24843
cpu0_DTLB LOAD      ACCESS:    2941599  HIT:    2938228  MISS:       3371
cpu0_DTLB RFO       ACCESS:    2627717  HIT:    2606245  MISS:      21472
cpu0_DTLB PREFETCH  ACCESS:          0  HIT:          0  MISS:          0
cpu0_DTLB WRITEBACK ACCESS:          0  HIT:          0  MISS:          0
cpu0_ITLB TOTAL     ACCESS:     187286  HIT:     187286  MISS:          0
cpu0_ITLB LOAD      ACCESS:     187286  HIT:     187286  MISS:          0
cpu0_ITLB RFO       ACCESS:          0  HIT:          0  MISS:          0
cpu0_ITLB PREFETCH  ACCESS:          0  HIT:          0  MISS:          0
cpu0_ITLB WRITEBACK ACCESS:          0  HIT:          0  MISS:          0
cpu0_L1I TOTAL     ACCESS:     768031  HIT:     768031  MISS:          0
cpu0_L1I LOAD      ACCESS:     768031  HIT:     768031  MISS:          0
cpu0_L1I RFO       ACCESS:          0  HIT:          0  MISS:          0
cpu0_L1I PREFETCH  ACCESS:          0  HIT:          0  MISS:          0
cpu0_L1I WRITEBACK ACCESS:          0  HIT:          0  MISS:          0
cpu0_STLB TOTAL     ACCESS:      24843  HIT:      11365  MISS:      13478
cpu0_STLB LOAD      ACCESS:       3371  HIT:          0  MISS:       3371
cpu0_STLB RFO       ACCESS:      21472  HIT:      11365  MISS:      10107
cpu0_STLB PREFETCH  ACCESS:          0  HIT:          0  MISS:          0
cpu0_STLB WRITEBACK ACCESS:          0  HIT:          0  MISS:          0
cpu0_L1D TOTAL     ACCESS:    8256606  HIT:    6833596  MISS:    1423010
cpu0_L1D LOAD      ACCESS:    2293442  HIT:    2077833  MISS:     215609
cpu0_L1D RFO       ACCESS:    5950645  HIT:    4743251  MISS:    1207394
cpu0_L1D PREFETCH  ACCESS:          0  HIT:          0  MISS:          0
cpu0_L1D WRITEBACK ACCESS:          0  HIT:          0  MISS:          0
cpu0_L2C TOTAL     ACCESS:    2630401  HIT:    1748003  MISS:     882398
cpu0_L2C LOAD      ACCESS:     215609  HIT:          0  MISS:     215609
cpu0_L2C RFO       ACCESS:    1207394  HIT:     540624  MISS:     666770
cpu0_L2C PREFETCH  ACCESS:          0  HIT:          0  MISS:          0
cpu0_L2C WRITEBACK ACCESS:    1207391  HIT:    1207379  MISS:         12
LLC TOTAL     ACCESS:    1549133  HIT:     680291  MISS:     868842
LLC LOAD      ACCESS:     215609  HIT:          0  MISS:     215609
LLC RFO       ACCESS:     666770  HIT:      19960  MISS:     646810
LLC PREFETCH  ACCESS:          0  HIT:          0  MISS:          0
LLC WRITEBACK ACCESS:     666747  HIT:     660331  MISS:       6416
Heartbeat CPU 0 instructions: 92000002 cycles: 112698261 heartbeat IPC: 0.422911 cumulative IPC: 0.419232 (Simulation time: 1 hr 22 min 39 sec) 

Region of Interest Statistics
cpu0_DTLB TOTAL     ACCESS:    5847298  HIT:    5821222  MISS:      26076
cpu0_DTLB LOAD      ACCESS:    3088614  HIT:    3085076  MISS:       3538
cpu0_DTLB RFO       ACCESS:    2758684  HIT:    2736146  MISS:      22538
cpu0_DTLB PREFETCH  ACCESS:          0  HIT:          0  MISS:          0
cpu0_DTLB WRITEBACK ACCESS:          0  HIT:          0  MISS:          0
cpu0_ITLB TOTAL     ACCESS:     196560  HIT:     196560  MISS:          0
cpu0_ITLB LOAD      ACCESS:     196560  HIT:     196560  MISS:          0
cpu0_ITLB RFO       ACCESS:          0  HIT:          0  MISS:          0
cpu0_ITLB PREFETCH  ACCESS:          0  HIT:          0  MISS:          0
cpu0_ITLB WRITEBACK ACCESS:          0  HIT:          0  MISS:          0
cpu0_L1I TOTAL     ACCESS:     806209  HIT:     806209  MISS:          0
cpu0_L1I LOAD      ACCESS:     806209  HIT:     806209  MISS:          0
cpu0_L1I RFO       ACCESS:          0  HIT:          0  MISS:          0
cpu0_L1I PREFETCH  ACCESS:          0  HIT:          0  MISS:          0
cpu0_L1I WRITEBACK ACCESS:          0  HIT:          0  MISS:          0
cpu0_STLB TOTAL     ACCESS:      26076  HIT:      11928  MISS:      14148
cpu0_STLB LOAD      ACCESS:       3538  HIT:          0  MISS:       3538
cpu0_STLB RFO       ACCESS:      22538  HIT:      11928  MISS:      10610
cpu0_STLB PREFETCH  ACCESS:          0  HIT:          0  MISS:          0
cpu0_STLB WRITEBACK ACCESS:          0  HIT:          0  MISS:          0
cpu0_L1D TOTAL     ACCESS:    8669002  HIT:    7175438  MISS:    1493564
cpu0_L1D LOAD      ACCESS:    2408137  HIT:    2181838  MISS:     226299
cpu0_L1D RFO       ACCESS:    6247676  HIT:    4980418  MISS:    1267258
cpu0_L1D PREFETCH  ACCESS:          0  HIT:          0  MISS:          0
cpu0_L1D WRITEBACK ACCESS:          0  HIT:          0  MISS:          0
cpu0_L2C TOTAL     ACCESS:    2760821  HIT:    1835163  MISS:     925658
cpu0_L2C LOAD      ACCESS:     226299  HIT:          0  MISS:     226299
cpu0_L2C RFO       ACCESS:    1267258  HIT:     567918  MISS:     699340
cpu0_L2C PREFETCH  ACCESS:          0  HIT:          0  MISS:          0
cpu0_L2C WRITEBACK ACCESS:    1267257  HIT:    1267245  MISS:         12
LLC TOTAL     ACCESS:    1625166  HIT:     713404  MISS:     911762
LLC LOAD      ACCESS:     226299  HIT:          0  MISS:     226299
LLC RFO       ACCESS:     699340  HIT:      20459  MISS:     678881
LLC PREFETCH  ACCESS:          0  HIT:          0  MISS:          0
LLC WRITEBACK ACCESS:     699520  HIT:     692945  MISS:       6575
Heartbeat CPU 0 instructions: 94000001 cycles: 117435629 heartbeat IPC: 0.422175 cumulative IPC: 0.419365 (Simulation time: 1 hr 25 min 48 sec) 

Region of Interest Statistics
cpu0_DTLB TOTAL     ACCESS:    6125241  HIT:    6097933  MISS:      27308
cpu0_DTLB LOAD      ACCESS:    3235641  HIT:    3231936  MISS:       3705
cpu0_DTLB RFO       ACCESS:    2889600  HIT:    2865997  MISS:      23603
cpu0_DTLB PREFETCH  ACCESS:          0  HIT:          0  MISS:          0
cpu0_DTLB WRITEBACK ACCESS:          0  HIT:          0  MISS:          0
cpu0_ITLB TOTAL     ACCESS:     205840  HIT:     205840  MISS:          0
cpu0_ITLB LOAD      ACCESS:     205840  HIT:     205840  MISS:          0
cpu0_ITLB RFO       ACCESS:          0  HIT:          0  MISS:          0
cpu0_ITLB PREFETCH  ACCESS:          0  HIT:          0  MISS:          0
cpu0_ITLB WRITEBACK ACCESS:          0  HIT:          0  MISS:          0
cpu0_L1I TOTAL     ACCESS:     844423  HIT:     844423  MISS:          0
cpu0_L1I LOAD      ACCESS:     844423  HIT:     844423  MISS:          0
cpu0_L1I RFO       ACCESS:          0  HIT:          0  MISS:          0
cpu0_L1I PREFETCH  ACCESS:          0  HIT:          0  MISS:          0
cpu0_L1I WRITEBACK ACCESS:          0  HIT:          0  MISS:          0
cpu0_STLB TOTAL     ACCESS:      27308  HIT:      12492  MISS:      14816
cpu0_STLB LOAD      ACCESS:       3705  HIT:          0  MISS:       3705
cpu0_STLB RFO       ACCESS:      23603  HIT:      12492  MISS:      11111
cpu0_STLB PREFETCH  ACCESS:          0  HIT:          0  MISS:          0
cpu0_STLB WRITEBACK ACCESS:          0  HIT:          0  MISS:          0
cpu0_L1D TOTAL     ACCESS:    9081476  HIT:    7517376  MISS:    1564100
cpu0_L1D LOAD      ACCESS:    2522861  HIT:    2285875  MISS:     236986
cpu0_L1D RFO       ACCESS:    6544758  HIT:    5217651  MISS:    1327107
cpu0_L1D PREFETCH  ACCESS:          0  HIT:          0  MISS:          0
cpu0_L1D WRITEBACK ACCESS:          0  HIT:          0  MISS:          0
cpu0_L2C TOTAL     ACCESS:    2891204  HIT:    1921760  MISS:     969444
cpu0_L2C LOAD      ACCESS:     236986  HIT:          0  MISS:     236986
cpu0_L2C RFO       ACCESS:    1327107  HIT:     594668  MISS:     732439
cpu0_L2C PREFETCH  ACCESS:          0  HIT:          0  MISS:          0
cpu0_L2C WRITEBACK ACCESS:    1327104  HIT:    1327092  MISS:         12
LLC TOTAL     ACCESS:    1701710  HIT:     746864  MISS:     954846
LLC LOAD      ACCESS:     236986  HIT:          0  MISS:     236986
LLC RFO       ACCESS:     732439  HIT:      21495  MISS:     710944
LLC PREFETCH  ACCESS:          0  HIT:          0  MISS:          0
LLC WRITEBACK ACCESS:     732278  HIT:     725369  MISS:       6909
Heartbeat CPU 0 instructions: 96000004 cycles: 122261882 heartbeat IPC: 0.414401 cumulative IPC: 0.419147 (Simulation time: 1 hr 28 min 55 sec) 

Region of Interest Statistics
cpu0_DTLB TOTAL     ACCESS:    6403288  HIT:    6374748  MISS:      28540
cpu0_DTLB LOAD      ACCESS:    3382725  HIT:    3378853  MISS:       3872
cpu0_DTLB RFO       ACCESS:    3020563  HIT:    2995895  MISS:      24668
cpu0_DTLB PREFETCH  ACCESS:          0  HIT:          0  MISS:          0
cpu0_DTLB WRITEBACK ACCESS:          0  HIT:          0  MISS:          0
cpu0_ITLB TOTAL     ACCESS:     215158  HIT:     215158  MISS:          0
cpu0_ITLB LOAD      ACCESS:     215158  HIT:     215158  MISS:          0
cpu0_ITLB RFO       ACCESS:          0  HIT:          0  MISS:          0
cpu0_ITLB PREFETCH  ACCESS:          0  HIT:          0  MISS:          0
cpu0_ITLB WRITEBACK ACCESS:          0  HIT:          0  MISS:          0
cpu0_L1I TOTAL     ACCESS:     882579  HIT:     882579  MISS:          0
cpu0_L1I LOAD      ACCESS:     882579  HIT:     882579  MISS:          0
cpu0_L1I RFO       ACCESS:          0  HIT:          0  MISS:          0
cpu0_L1I PREFETCH  ACCESS:          0  HIT:          0  MISS:          0
cpu0_L1I WRITEBACK ACCESS:          0  HIT:          0  MISS:          0
cpu0_STLB TOTAL     ACCESS:      28540  HIT:      13056  MISS:      15484
cpu0_STLB LOAD      ACCESS:       3872  HIT:          0  MISS:       3872
cpu0_STLB RFO       ACCESS:      24668  HIT:      13056  MISS:      11612
cpu0_STLB PREFETCH  ACCESS:          0  HIT:          0  MISS:          0
cpu0_STLB WRITEBACK ACCESS:          0  HIT:          0  MISS:          0
cpu0_L1D TOTAL     ACCESS:    9494057  HIT:    7859382  MISS:    1634675
cpu0_L1D LOAD      ACCESS:    2637714  HIT:    2390035  MISS:     247679
cpu0_L1D RFO       ACCESS:    6841818  HIT:    5454829  MISS:    1386989
cpu0_L1D PREFETCH  ACCESS:          0  HIT:          0  MISS:          0
cpu0_L1D WRITEBACK ACCESS:          0  HIT:          0  MISS:          0
cpu0_L2C TOTAL     ACCESS:    3021663  HIT:    2008457  MISS:    1013206
cpu0_L2C LOAD      ACCESS:     247679  HIT:          0  MISS:     247679
cpu0_L2C RFO       ACCESS:    1386989  HIT:     621481  MISS:     765508
cpu0_L2C PREFETCH  ACCESS:          0  HIT:          0  MISS:          0
cpu0_L2C WRITEBACK ACCESS:    1386988  HIT:    1386976  MISS:         12
LLC TOTAL     ACCESS:    1778589  HIT:     780749  MISS:     997840
LLC LOAD      ACCESS:     247679  HIT:          0  MISS:     247679
LLC RFO       ACCESS:     765508  HIT:      22484  MISS:     743024
LLC PREFETCH  ACCESS:          0  HIT:          0  MISS:          0
LLC WRITEBACK ACCESS:     765395  HIT:     758265  MISS:       7130
Heartbeat CPU 0 instructions: 98000000 cycles: 126981455 heartbeat IPC: 0.423766 cumulative IPC: 0.419337 (Simulation time: 1 hr 31 min 59 sec) 

Region of Interest Statistics
cpu0_DTLB TOTAL     ACCESS:    6681118  HIT:    6651347  MISS:      29771
cpu0_DTLB LOAD      ACCESS:    3529673  HIT:    3525634  MISS:       4039
cpu0_DTLB RFO       ACCESS:    3151445  HIT:    3125713  MISS:      25732
cpu0_DTLB PREFETCH  ACCESS:          0  HIT:          0  MISS:          0
cpu0_DTLB WRITEBACK ACCESS:          0  HIT:          0  MISS:          0
cpu0_ITLB TOTAL     ACCESS:     224431  HIT:     224431  MISS:          0
cpu0_ITLB LOAD      ACCESS:     224431  HIT:     224431  MISS:          0
cpu0_ITLB RFO       ACCESS:          0  HIT:          0  MISS:          0
cpu0_ITLB PREFETCH  ACCESS:          0  HIT:          0  MISS:          0
cpu0_ITLB WRITEBACK ACCESS:          0  HIT:          0  MISS:          0
cpu0_L1I TOTAL     ACCESS:     920791  HIT:     920791  MISS:          0
cpu0_L1I LOAD      ACCESS:     920791  HIT:     920791  MISS:          0
cpu0_L1I RFO       ACCESS:          0  HIT:          0  MISS:          0
cpu0_L1I PREFETCH  ACCESS:          0  HIT:          0  MISS:          0
cpu0_L1I WRITEBACK ACCESS:          0  HIT:          0  MISS:          0
cpu0_STLB TOTAL     ACCESS:      29771  HIT:      13619  MISS:      16152
cpu0_STLB LOAD      ACCESS:       4039  HIT:          0  MISS:       4039
cpu0_STLB RFO       ACCESS:      25732  HIT:      13619  MISS:      12113
cpu0_STLB PREFETCH  ACCESS:          0  HIT:          0  MISS:          0
cpu0_STLB WRITEBACK ACCESS:          0  HIT:          0  MISS:          0
cpu0_L1D TOTAL     ACCESS:    9906444  HIT:    8201235  MISS:    1705209
cpu0_L1D LOAD      ACCESS:    2752381  HIT:    2494015  MISS:     258366
cpu0_L1D RFO       ACCESS:    7138870  HIT:    5692034  MISS:    1446836
cpu0_L1D PREFETCH  ACCESS:          0  HIT:          0  MISS:          0
cpu0_L1D WRITEBACK ACCESS:          0  HIT:          0  MISS:          0
cpu0_L2C TOTAL     ACCESS:    3152042  HIT:    2094946  MISS:    1057096
cpu0_L2C LOAD      ACCESS:     258366  HIT:          0  MISS:     258366
cpu0_L2C RFO       ACCESS:    1446836  HIT:     648125  MISS:     798711
cpu0_L2C PREFETCH  ACCESS:          0  HIT:          0  MISS:          0
cpu0_L2C WRITEBACK ACCESS:    1446833  HIT:    1446821  MISS:         12
LLC TOTAL     ACCESS:    1855726  HIT:     814885  MISS:    1040841
LLC LOAD      ACCESS:     258366  HIT:          0  MISS:     258366
LLC RFO       ACCESS:     798711  HIT:      23626  MISS:     775085
LLC PREFETCH  ACCESS:          0  HIT:          0  MISS:          0
LLC WRITEBACK ACCESS:     798642  HIT:     791259  MISS:       7383
Heartbeat CPU 0 instructions: 100000001 cycles: 131694202 heartbeat IPC: 0.424381 cumulative IPC: 0.419537 (Simulation time: 1 hr 35 min 12 sec) 

Region of Interest Statistics
cpu0_DTLB TOTAL     ACCESS:    6959129  HIT:    6928126  MISS:      31003
cpu0_DTLB LOAD      ACCESS:    3676750  HIT:    3672544  MISS:       4206
cpu0_DTLB RFO       ACCESS:    3282379  HIT:    3255582  MISS:      26797
cpu0_DTLB PREFETCH  ACCESS:          0  HIT:          0  MISS:          0
cpu0_DTLB WRITEBACK ACCESS:          0  HIT:          0  MISS:          0
cpu0_ITLB TOTAL     ACCESS:     233749  HIT:     233749  MISS:          0
cpu0_ITLB LOAD      ACCESS:     233749  HIT:     233749  MISS:          0
cpu0_ITLB RFO       ACCESS:          0  HIT:          0  MISS:          0
cpu0_ITLB PREFETCH  ACCESS:          0  HIT:          0  MISS:          0
cpu0_ITLB WRITEBACK ACCESS:          0  HIT:          0  MISS:          0
cpu0_L1I TOTAL     ACCESS:     958996  HIT:     958996  MISS:          0
cpu0_L1I LOAD      ACCESS:     958996  HIT:     958996  MISS:          0
cpu0_L1I RFO       ACCESS:          0  HIT:          0  MISS:          0
cpu0_L1I PREFETCH  ACCESS:          0  HIT:          0  MISS:          0
cpu0_L1I WRITEBACK ACCESS:          0  HIT:          0  MISS:          0
cpu0_STLB TOTAL     ACCESS:      31003  HIT:      14183  MISS:      16820
cpu0_STLB LOAD      ACCESS:       4206  HIT:          0  MISS:       4206
cpu0_STLB RFO       ACCESS:      26797  HIT:      14183  MISS:      12614
cpu0_STLB PREFETCH  ACCESS:          0  HIT:          0  MISS:          0
cpu0_STLB WRITEBACK ACCESS:          0  HIT:          0  MISS:          0
cpu0_L1D TOTAL     ACCESS:   10319009  HIT:    8543227  MISS:    1775782
cpu0_L1D LOAD      ACCESS:    2867178  HIT:    2598119  MISS:     269059
cpu0_L1D RFO       ACCESS:    7435970  HIT:    5929254  MISS:    1506716
cpu0_L1D PREFETCH  ACCESS:          0  HIT:          0  MISS:          0
cpu0_L1D WRITEBACK ACCESS:          0  HIT:          0  MISS:          0
cpu0_L2C TOTAL     ACCESS:    3282497  HIT:    2181744  MISS:    1100753
cpu0_L2C LOAD      ACCESS:     269059  HIT:          0  MISS:     269059
cpu0_L2C RFO       ACCESS:    1506717  HIT:     675042  MISS:     831675
cpu0_L2C PREFETCH  ACCESS:          0  HIT:          0  MISS:          0
cpu0_L2C WRITEBACK ACCESS:    1506714  HIT:    1506702  MISS:         12
LLC TOTAL     ACCESS:    1932385  HIT:     848520  MISS:    1083865
LLC LOAD      ACCESS:     269059  HIT:          0  MISS:     269059
LLC RFO       ACCESS:     831675  HIT:      24513  MISS:     807162
LLC PREFETCH  ACCESS:          0  HIT:          0  MISS:          0
LLC WRITEBACK ACCESS:     831644  HIT:     824007  MISS:       7637
Heartbeat CPU 0 instructions: 102000001 cycles: 136425853 heartbeat IPC: 0.422685 cumulative IPC: 0.419657 (Simulation time: 1 hr 38 min 21 sec) 

Region of Interest Statistics
cpu0_DTLB TOTAL     ACCESS:    7236978  HIT:    7204744  MISS:      32234
cpu0_DTLB LOAD      ACCESS:    3823693  HIT:    3819320  MISS:       4373
cpu0_DTLB RFO       ACCESS:    3413285  HIT:    3385424  MISS:      27861
cpu0_DTLB PREFETCH  ACCESS:          0  HIT:          0  MISS:          0
cpu0_DTLB WRITEBACK ACCESS:          0  HIT:          0  MISS:          0
cpu0_ITLB TOTAL     ACCESS:     243029  HIT:     243029  MISS:          0
cpu0_ITLB LOAD      ACCESS:     243029  HIT:     243029  MISS:          0
cpu0_ITLB RFO       ACCESS:          0  HIT:          0  MISS:          0
cpu0_ITLB PREFETCH  ACCESS:          0  HIT:          0  MISS:          0
cpu0_ITLB WRITEBACK ACCESS:          0  HIT:          0  MISS:          0
cpu0_L1I TOTAL     ACCESS:     997183  HIT:     997183  MISS:          0
cpu0_L1I LOAD      ACCESS:     997183  HIT:     997183  MISS:          0
cpu0_L1I RFO       ACCESS:          0  HIT:          0  MISS:          0
cpu0_L1I PREFETCH  ACCESS:          0  HIT:          0  MISS:          0
cpu0_L1I WRITEBACK ACCESS:          0  HIT:          0  MISS:          0
cpu0_STLB TOTAL     ACCESS:      32234  HIT:      14746  MISS:      17488
cpu0_STLB LOAD      ACCESS:       4373  HIT:          0  MISS:       4373
cpu0_STLB RFO       ACCESS:      27861  HIT:      14746  MISS:      13115
cpu0_STLB PREFETCH  ACCESS:          0  HIT:          0  MISS:          0
cpu0_STLB WRITEBACK ACCESS:          0  HIT:          0  MISS:          0
cpu0_L1D TOTAL     ACCESS:   10731353  HIT:    8885020  MISS:    1846333
cpu0_L1D LOAD      ACCESS:    2981840  HIT:    2702091  MISS:     279749
cpu0_L1D RFO       ACCESS:    7732984  HIT:    6166407  MISS:    1566577
cpu0_L1D PREFETCH  ACCESS:          0  HIT:          0  MISS:          0
cpu0_L1D WRITEBACK ACCESS:          0  HIT:          0  MISS:          0
cpu0_L2C TOTAL     ACCESS:    3412909  HIT:    2268695  MISS:    1144214
cpu0_L2C LOAD      ACCESS:     279749  HIT:          0  MISS:     279749
cpu0_L2C RFO       ACCESS:    1566577  HIT:     702131  MISS:     864446
cpu0_L2C PREFETCH  ACCESS:          0  HIT:          0  MISS:          0
cpu0_L2C WRITEBACK ACCESS:    1566576  HIT:    1566564  MISS:         12
LLC TOTAL     ACCESS:    2008636  HIT:     881659  MISS:    1126977
LLC LOAD      ACCESS:     279749  HIT:          0  MISS:     279749
LLC RFO       ACCESS:     864446  HIT:      25216  MISS:     839230
LLC PREFETCH  ACCESS:          0  HIT:          0  MISS:          0
LLC WRITEBACK ACCESS:     864434  HIT:     856443  MISS:       7991
Heartbeat CPU 0 instructions: 104000003 cycles: 141174403 heartbeat IPC: 0.421182 cumulative IPC: 0.419713 (Simulation time: 1 hr 41 min 31 sec) 

Region of Interest Statistics
cpu0_DTLB TOTAL     ACCESS:    7514815  HIT:    7481349  MISS:      33466
cpu0_DTLB LOAD      ACCESS:    3970613  HIT:    3966073  MISS:       4540
cpu0_DTLB RFO       ACCESS:    3544202  HIT:    3515276  MISS:      28926
cpu0_DTLB PREFETCH  ACCESS:          0  HIT:          0  MISS:          0
cpu0_DTLB WRITEBACK ACCESS:          0  HIT:          0  MISS:          0
cpu0_ITLB TOTAL     ACCESS:     252303  HIT:     252303  MISS:          0
cpu0_ITLB LOAD      ACCESS:     252303  HIT:     252303  MISS:          0
cpu0_ITLB RFO       ACCESS:          0  HIT:          0  MISS:          0
cpu0_ITLB PREFETCH  ACCESS:          0  HIT:          0  MISS:          0
cpu0_ITLB WRITEBACK ACCESS:          0  HIT:          0  MISS:          0
cpu0_L1I TOTAL     ACCESS:    1035341  HIT:    1035341  MISS:          0
cpu0_L1I LOAD      ACCESS:    1035341  HIT:    1035341  MISS:          0
cpu0_L1I RFO       ACCESS:          0  HIT:          0  MISS:          0
cpu0_L1I PREFETCH  ACCESS:          0  HIT:          0  MISS:          0
cpu0_L1I WRITEBACK ACCESS:          0  HIT:          0  MISS:          0
cpu0_STLB TOTAL     ACCESS:      33466  HIT:      15310  MISS:      18156
cpu0_STLB LOAD      ACCESS:       4540  HIT:          0  MISS:       4540
cpu0_STLB RFO       ACCESS:      28926  HIT:      15310  MISS:      13616
cpu0_STLB PREFETCH  ACCESS:          0  HIT:          0  MISS:          0
cpu0_STLB WRITEBACK ACCESS:          0  HIT:          0  MISS:          0
cpu0_L1D TOTAL     ACCESS:   11143722  HIT:    9226851  MISS:    1916871
cpu0_L1D LOAD      ACCESS:    3096506  HIT:    2806070  MISS:     290436
cpu0_L1D RFO       ACCESS:    8030019  HIT:    6403591  MISS:    1626428
cpu0_L1D PREFETCH  ACCESS:          0  HIT:          0  MISS:          0
cpu0_L1D WRITEBACK ACCESS:          0  HIT:          0  MISS:          0
cpu0_L2C TOTAL     ACCESS:    3543295  HIT:    2355411  MISS:    1187884
cpu0_L2C LOAD      ACCESS:     290436  HIT:          0  MISS:     290436
cpu0_L2C RFO       ACCESS:    1626428  HIT:     728999  MISS:     897429
cpu0_L2C PREFETCH  ACCESS:          0  HIT:          0  MISS:          0
cpu0_L2C WRITEBACK ACCESS:    1626424  HIT:    1626412  MISS:         12
LLC TOTAL     ACCESS:    2085208  HIT:     915189  MISS:    1170019
LLC LOAD      ACCESS:     290436  HIT:          0  MISS:     290436
LLC RFO       ACCESS:     897429  HIT:      26134  MISS:     871295
LLC PREFETCH  ACCESS:          0  HIT:          0  MISS:          0
LLC WRITEBACK ACCESS:     897336  HIT:     889055  MISS:       8281
Heartbeat CPU 0 instructions: 106000000 cycles: 146370774 heartbeat IPC: 0.384883 cumulative IPC: 0.418361 (Simulation time: 1 hr 45 min 1 sec) 

Region of Interest Statistics
cpu0_DTLB TOTAL     ACCESS:    7800815  HIT:    7765973  MISS:      34842
cpu0_DTLB LOAD      ACCESS:    4119222  HIT:    4114494  MISS:       4728
cpu0_DTLB RFO       ACCESS:    3681593  HIT:    3651479  MISS:      30114
cpu0_DTLB PREFETCH  ACCESS:          0  HIT:          0  MISS:          0
cpu0_DTLB WRITEBACK ACCESS:          0  HIT:          0  MISS:          0
cpu0_ITLB TOTAL     ACCESS:     264259  HIT:     264259  MISS:          0
cpu0_ITLB LOAD      ACCESS:     264259  HIT:     264259  MISS:          0
cpu0_ITLB RFO       ACCESS:          0  HIT:          0  MISS:          0
cpu0_ITLB PREFETCH  ACCESS:          0  HIT:          0  MISS:          0
cpu0_ITLB WRITEBACK ACCESS:          0  HIT:          0  MISS:          0
cpu0_L1I TOTAL     ACCESS:    1075357  HIT:    1075357  MISS:          0
cpu0_L1I LOAD      ACCESS:    1075357  HIT:    1075357  MISS:          0
cpu0_L1I RFO       ACCESS:          0  HIT:          0  MISS:          0
cpu0_L1I PREFETCH  ACCESS:          0  HIT:          0  MISS:          0
cpu0_L1I WRITEBACK ACCESS:          0  HIT:          0  MISS:          0
cpu0_STLB TOTAL     ACCESS:      34842  HIT:      15938  MISS:      18904
cpu0_STLB LOAD      ACCESS:       4728  HIT:          0  MISS:       4728
cpu0_STLB RFO       ACCESS:      30114  HIT:      15938  MISS:      14176
cpu0_STLB PREFETCH  ACCESS:          0  HIT:          0  MISS:          0
cpu0_STLB WRITEBACK ACCESS:          0  HIT:          0  MISS:          0
cpu0_L1D TOTAL     ACCESS:   11562028  HIT:    9566355  MISS:    1995673
cpu0_L1D LOAD      ACCESS:    3211003  HIT:    2908626  MISS:     302377
cpu0_L1D RFO       ACCESS:    8333080  HIT:    6639793  MISS:    1693287
cpu0_L1D PREFETCH  ACCESS:          0  HIT:          0  MISS:          0
cpu0_L1D WRITEBACK ACCESS:          0  HIT:          0  MISS:          0
cpu0_L2C TOTAL     ACCESS:    3688958  HIT:    2452218  MISS:    1236740
cpu0_L2C LOAD      ACCESS:     302377  HIT:          0  MISS:     302377
cpu0_L2C RFO       ACCESS:    1693288  HIT:     758952  MISS:     934336
cpu0_L2C PREFETCH  ACCESS:          0  HIT:          0  MISS:          0
cpu0_L2C WRITEBACK ACCESS:    1693284  HIT:    1693266  MISS:         18
LLC TOTAL     ACCESS:    2171313  HIT:     953338  MISS:    1217975
[...]
LLC PREFETCH  ACCESS:          0  HIT:          0  MISS:          0
LLC WRITEBACK ACCESS:   53620400  HIT:   53148457  MISS:     471943
Heartbeat CPU 0 instructions: 1550000002 cycles: 6976378599 heartbeat IPC: 0.213583 cumulative IPC: 0.215398 (Simulation time: 25 hr 47 min 5 sec) 

Region of Interest Statistics
cpu0_DTLB TOTAL     ACCESS:  264979687  HIT:  262979516  MISS:    2000171
cpu0_DTLB LOAD      ACCESS:  118557011  HIT:  118285594  MISS:     271417
cpu0_DTLB RFO       ACCESS:  146422676  HIT:  144693922  MISS:    1728754
cpu0_DTLB PREFETCH  ACCESS:          0  HIT:          0  MISS:          0
cpu0_DTLB WRITEBACK ACCESS:          0  HIT:          0  MISS:          0
cpu0_ITLB TOTAL     ACCESS:   27371693  HIT:   27371693  MISS:          0
cpu0_ITLB LOAD      ACCESS:   27371693  HIT:   27371693  MISS:          0
cpu0_ITLB RFO       ACCESS:          0  HIT:          0  MISS:          0
cpu0_ITLB PREFETCH  ACCESS:          0  HIT:          0  MISS:          0
cpu0_ITLB WRITEBACK ACCESS:          0  HIT:          0  MISS:          0
cpu0_L1I TOTAL     ACCESS:   33153765  HIT:   33153765  MISS:          0
cpu0_L1I LOAD      ACCESS:   33153765  HIT:   33153765  MISS:          0
cpu0_L1I RFO       ACCESS:          0  HIT:          0  MISS:          0
cpu0_L1I PREFETCH  ACCESS:          0  HIT:          0  MISS:          0
cpu0_L1I WRITEBACK ACCESS:          0  HIT:          0  MISS:          0
cpu0_STLB TOTAL     ACCESS:    2000171  HIT:     914861  MISS:    1085310
cpu0_STLB LOAD      ACCESS:     271417  HIT:          3  MISS:     271414
cpu0_STLB RFO       ACCESS:    1728754  HIT:     914858  MISS:     813896
cpu0_STLB PREFETCH  ACCESS:          0  HIT:          0  MISS:          0
cpu0_STLB WRITEBACK ACCESS:          0  HIT:          0  MISS:          0
cpu0_L1D TOTAL     ACCESS:  353325784  HIT:  238746510  MISS:  114579274
cpu0_L1D LOAD      ACCESS:   84380856  HIT:   67019418  MISS:   17361438
cpu0_L1D RFO       ACCESS:  267922565  HIT:  170705211  MISS:   97217354
cpu0_L1D PREFETCH  ACCESS:          0  HIT:          0  MISS:          0
cpu0_L1D WRITEBACK ACCESS:          0  HIT:          0  MISS:          0
cpu0_L2C TOTAL     ACCESS:  211796614  HIT:  140742319  MISS:   71054295
cpu0_L2C LOAD      ACCESS:   17361438  HIT:        464  MISS:   17360974
cpu0_L2C RFO       ACCESS:   97217341  HIT:   43527955  MISS:   53689386
cpu0_L2C PREFETCH  ACCESS:          0  HIT:          0  MISS:          0
cpu0_L2C WRITEBACK ACCESS:   97217353  HIT:   97213900  MISS:       3453
LLC TOTAL     ACCESS:  124741376  HIT:   54830194  MISS:   69911182
LLC LOAD      ACCESS:   17360974  HIT:        708  MISS:   17360266
LLC RFO       ACCESS:   53687187  HIT:    1609311  MISS:   52077876
LLC PREFETCH  ACCESS:          0  HIT:          0  MISS:          0
LLC WRITEBACK ACCESS:   53692733  HIT:   53220172  MISS:     472561
Finished CPU 0 instructions: 1500000000 cycles: 6963863477 cumulative IPC: 0.215398 (Simulation time: 25 hr 47 min 5 sec) 

ChampSim completed all CPUs

Region of Interest Statistics

CPU 0 cumulative IPC: 0.215398 instructions: 1500000000 cycles: 6963863477
cpu0_DTLB TOTAL     ACCESS:  264979687  HIT:  262979516  MISS:    2000171
cpu0_DTLB LOAD      ACCESS:  118557011  HIT:  118285594  MISS:     271417
cpu0_DTLB RFO       ACCESS:  146422676  HIT:  144693922  MISS:    1728754
cpu0_DTLB PREFETCH  ACCESS:          0  HIT:          0  MISS:          0
cpu0_DTLB WRITEBACK ACCESS:          0  HIT:          0  MISS:          0
cpu0_DTLB TRANSLATION ACCESS:          0  HIT:          0  MISS:          0
cpu0_DTLB PREFETCH  REQUESTED:          0  ISSUED:          0  USEFUL:          0  USELESS:          0
cpu0_DTLB AVERAGE MISS LATENCY: 511.321 cycles
cpu0_ITLB TOTAL     ACCESS:   27371693  HIT:   27371693  MISS:          0
cpu0_ITLB LOAD      ACCESS:   27371693  HIT:   27371693  MISS:          0
cpu0_ITLB RFO       ACCESS:          0  HIT:          0  MISS:          0
cpu0_ITLB PREFETCH  ACCESS:          0  HIT:          0  MISS:          0
cpu0_ITLB WRITEBACK ACCESS:          0  HIT:          0  MISS:          0
cpu0_ITLB TRANSLATION ACCESS:          0  HIT:          0  MISS:          0
cpu0_ITLB PREFETCH  REQUESTED:          0  ISSUED:          0  USEFUL:          0  USELESS:          0
cpu0_ITLB AVERAGE MISS LATENCY: -nan cycles
cpu0_L1I TOTAL     ACCESS:   33153765  HIT:   33153765  MISS:          0
cpu0_L1I LOAD      ACCESS:   33153765  HIT:   33153765  MISS:          0
cpu0_L1I RFO       ACCESS:          0  HIT:          0  MISS:          0
cpu0_L1I PREFETCH  ACCESS:          0  HIT:          0  MISS:          0
cpu0_L1I WRITEBACK ACCESS:          0  HIT:          0  MISS:          0
cpu0_L1I TRANSLATION ACCESS:          0  HIT:          0  MISS:          0
cpu0_L1I PREFETCH  REQUESTED:          0  ISSUED:          0  USEFUL:          0  USELESS:          0
cpu0_L1I AVERAGE MISS LATENCY: -nan cycles
cpu0_STLB TOTAL     ACCESS:    2000171  HIT:     914861  MISS:    1085310
cpu0_STLB LOAD      ACCESS:     271417  HIT:          3  MISS:     271414
cpu0_STLB RFO       ACCESS:    1728754  HIT:     914858  MISS:     813896
cpu0_STLB PREFETCH  ACCESS:          0  HIT:          0  MISS:          0
cpu0_STLB WRITEBACK ACCESS:          0  HIT:          0  MISS:          0
cpu0_STLB TRANSLATION ACCESS:          0  HIT:          0  MISS:          0
cpu0_STLB PREFETCH  REQUESTED:          0  ISSUED:          0  USEFUL:          0  USELESS:          0
cpu0_STLB AVERAGE MISS LATENCY: 925.617 cycles
cpu0_L1D TOTAL     ACCESS:  353325784  HIT:  238746510  MISS:  114579274
cpu0_L1D LOAD      ACCESS:   84380856  HIT:   67019418  MISS:   17361438
cpu0_L1D RFO       ACCESS:  267922565  HIT:  170705211  MISS:   97217354
cpu0_L1D PREFETCH  ACCESS:          0  HIT:          0  MISS:          0
cpu0_L1D WRITEBACK ACCESS:          0  HIT:          0  MISS:          0
cpu0_L1D TRANSLATION ACCESS:    1022363  HIT:    1021881  MISS:        482
cpu0_L1D PREFETCH  REQUESTED:          0  ISSUED:          0  USEFUL:          0  USELESS:          0
cpu0_L1D AVERAGE MISS LATENCY: 753.015 cycles
cpu0_L2C TOTAL     ACCESS:  211796614  HIT:  140742319  MISS:   71054295
cpu0_L2C LOAD      ACCESS:   17361438  HIT:        464  MISS:   17360974
cpu0_L2C RFO       ACCESS:   97217341  HIT:   43527955  MISS:   53689386
cpu0_L2C PREFETCH  ACCESS:          0  HIT:          0  MISS:          0
cpu0_L2C WRITEBACK ACCESS:   97217353  HIT:   97213900  MISS:       3453
cpu0_L2C TRANSLATION ACCESS:        482  HIT:          0  MISS:        482
cpu0_L2C PREFETCH  REQUESTED:          0  ISSUED:          0  USEFUL:          0  USELESS:          0
cpu0_L2C AVERAGE MISS LATENCY: 1196.46 cycles
LLC TOTAL     ACCESS:  124741376  HIT:   54830194  MISS:   69911182
LLC LOAD      ACCESS:   17360974  HIT:        708  MISS:   17360266
LLC RFO       ACCESS:   53687187  HIT:    1609311  MISS:   52077876
LLC PREFETCH  ACCESS:          0  HIT:          0  MISS:          0
LLC WRITEBACK ACCESS:   53692733  HIT:   53220172  MISS:     472561
LLC TRANSLATION ACCESS:        482  HIT:          3  MISS:        479
LLC PREFETCH  REQUESTED:          0  ISSUED:          0  USEFUL:          0  USELESS:          0
LLC AVERAGE MISS LATENCY: 1194.68 cycles
~~~~~~~~~~Reuse Distance Profiler output~~~~~~~~~~
0	63546096	6891952
1	34107392	6304544
2	16349056	4700080
3	9206304	3920240
4	12429200	4463456
5	9917728	5158944
6	1825488	1426432
7	2052336	1523456
8	1620704	311376
9	4053920	1825888
10	2235968	1564880
11	5540704	2461184
12	2137072	1181824
13	952240	212544
14	481728	109168
15	362208	60864
16	322640	52416
17	444432	132368
18	973152	687072
19	798880	468640
20	3840960	1225472
21	892480	126592
22	3074480	1124064
23	2619856	79376
24	2930320	1261584
25	737984	73184
26	497568	130240
27	541600	65360
28	859056	50672
29	966368	121296
30	1194160	146656
31	1501632	703344
32	2148384	1417776
33	4546320	3565344
34	2337696	1063584
35	1798432	598688
36	1363952	416416
37	1321200	771920
38	713392	381120
39	491168	112512
40	393056	103168
41	373024	74688
42	397712	82368
43	386992	136432
44	548736	202640
45	875616	78368
46	1451984	999104
47	973824	250432
48	504112	104368
49	1650384	66128
50	270400	54064
51	304336	120528
52	375824	257152
53	1879552	706240
54	405008	258432
55	616208	249088
56	288032	147984
57	535184	331168
58	735184	115024
59	571744	65696
60	391808	86992
61	578656	48064
62	343248	42688
63	206064	55632
64	250224	91888
66	676832	559008
68	472496	383056
70	347232	225168
72	312352	92464
74	288752	64864
76	269648	160240
78	338656	193008
80	526384	425728
82	541648	395536
84	889616	222912
86	695184	174768
88	1001456	126784
90	1136496	231440
92	2149232	1149120
94	1859648	633808
96	1296592	267312
98	1419392	819952
100	1134912	308304
102	665008	165200
104	233120	83200
106	277632	72608
108	238144	75280
110	284144	98768
112	184848	55776
114	187968	47472
116	183520	53184
118	184720	45648
120	116336	42832
122	109744	48736
124	108336	30560
126	118928	27856
128	169760	47856
132	116992	42016
136	109120	41376
140	80432	34688
144	95536	29760
148	62592	27472
152	72416	23216
156	97952	20512
160	114944	17776
164	84224	17536
168	73424	17360
172	155680	16416
176	1068240	15088
180	792720	12736
184	690352	9984
188	1433424	7824
192	887184	7264
196	670144	8192
200	339056	7408
204	40736	6016
208	19136	6688
212	16592	7104
216	30608	7616
220	44288	7328
224	37296	6704
228	34496	7824
232	31504	7712
236	31216	7584
240	34320	8544
244	30576	8832
248	25984	7920
252	20752	8000
256	73024	18480
264	79584	18448
272	69104	22528
280	78288	24448
288	62688	22800
296	70192	23696
304	93408	22368
312	76048	25856
320	80400	27824
328	65152	25968
336	55072	24176
344	86304	22832
352	73824	24768
360	74000	26576
368	65568	25696
376	42576	21040
384	63232	19008
392	65760	16832
400	56928	18208
408	53616	16112
416	32576	13392
424	33312	11744
432	46064	10752
440	38816	9968
448	38512	9296
456	25840	8064
464	14800	5888
472	19696	4784
480	19152	4864
488	21040	5056
496	16720	4496
504	7552	2672
512	11568	5392
528	13920	4640
544	7168	3024
560	5008	2288
576	6448	2080
592	5792	1984
608	5488	1856
624	6096	1952
640	5072	2080
656	5824	1632
672	6768	2240
688	4336	1632
704	5456	1584
720	4320	1264
736	2672	784
752	3680	912
768	2560	864
784	2080	704
800	2416	656
816	1264	448
832	1424	336
848	1520	496
864	1040	416
880	1040	256
896	928	288
912	544	192
928	704	224
944	576	224
960	368	112
976	464	128
992	272	96
1008	304	80
1024	672	192
1056	848	160
1088	400	160
1120	160	64
1152	224	160
1184	192	80
1216	160	112
1248	48	16
1280	32	0
1312	96	48
1344	64	48
1376	32	32
1408	64	16
1440	32	32
1472	0	0
1504	16	0
1536	0	0
1568	16	16
1600	0	0
1632	0	0
1664	0	0
1696	0	0
1728	0	0
1760	0	0
1792	0	0
1824	0	0
1856	0	0
1888	0	0
1920	0	0
1952	0	0
1984	0	0
2016	0	0
2048	0	0
2112	0	0
2176	0	0
2240	0	0
2304	0	0
2368	0	0
2432	0	0
2496	0	0
2560	0	0
2624	0	0
2688	0	0
2752	0	0
2816	0	0
2880	0	0
2944	0	0
3008	0	0
3072	0	0
3136	0	0
3200	0	0
3264	0	0
3328	0	0
3392	0	0
3456	0	0
3520	0	0
3584	0	0
3648	0	0
3712	0	0
3776	0	0
3840	0	0
3904	0	0
3968	0	0
4032	128	0
4096	165776	0
4224	33904	0
4352	3776	0
4480	5312	0
4608	3136	0
4736	3392	0
4864	3792	0
4992	3552	0
5120	2928	0
5248	3888	0
5376	5312	0
5504	5168	0
5632	5968	0
5760	9232	0
5888	12288	0
6016	20848	0
6144	27168	0
6272	41520	0
6400	58544	0
6528	69888	0
6656	90016	0
6784	109504	0
6912	138928	0
7040	192848	0
7168	229056	0
7296	279104	0
7424	341888	0
7552	404464	0
7680	488496	0
7808	559216	0
7936	636016	0
8064	734384	0
8192	1706672	0
8448	2091840	528
8704	2448528	0
8960	2661504	48
9216	2823328	0
9472	2876528	0
9728	2830368	0
9984	2573168	0
10240	2339408	0
10496	2013200	0
10752	1709440	0
11008	1366816	0
11264	1047312	0
11520	775984	0
11776	565232	0
12032	400896	0
12288	297056	0
12544	214832	0
12800	158080	0
13056	136416	0
13312	120560	0
13568	109760	0
13824	111232	0
14080	114752	0
14336	118240	0
14592	123968	0
14848	126352	0
15104	134032	0
15360	144480	0
15616	160288	0
15872	168704	0
16128	181168	0
16384	431120	0
16896	547680	0
17408	632208	0
17920	665584	0
18432	696272	0
18944	1332672	0
19456	1045504	0
19968	566464	0
20480	435408	0
20992	381568	0
21504	320368	0
22016	253520	0
22528	190768	0
23040	142432	0
23552	98640	0
24064	71024	0
24576	49040	0
25088	35024	0
25600	28512	0
26112	23392	0
26624	20000	0
27136	17792	0
27648	15952	0
28160	16432	0
28672	15792	0
29184	15200	0
29696	14144	0
30208	13664	0
30720	13680	0
31232	12848	0
31744	12464	0
32256	11648	0
32768	26208	0
33792	33872	0
34816	38112	0
35840	28416	0
36864	16096	0
37888	122896	0
38912	93552	0
39936	12912	0
40960	0	0
41984	0	0
43008	0	0
44032	0	0
45056	0	0
46080	0	0
47104	0	0
48128	0	0
49152	0	0
50176	0	0
51200	0	0
52224	0	0
53248	0	0
54272	0	0
55296	0	0
56320	0	0
57344	0	0
58368	0	0
59392	0	0
60416	0	0
61440	0	0
62464	0	0
63488	0	0
64512	0	0
65536	0	0
67584	0	0
69632	0	0
71680	0	0
73728	0	0
75776	0	0
77824	0	0
79872	0	0
81920	0	0
83968	0	0
86016	0	0
88064	0	0
90112	0	0
92160	0	0
94208	0	0
96256	0	0
98304	0	0
100352	0	0
102400	0	0
104448	0	0
106496	0	0
108544	0	0
110592	0	0
112640	0	0
114688	0	0
116736	0	0
118784	0	0
120832	0	0
122880	0	0
124928	0	0
126976	0	0
129024	0	0
131072	0	0
135168	0	0
139264	0	0
143360	0	0
147456	0	0
151552	0	0
155648	0	0
159744	0	0
163840	0	0
167936	0	0
172032	0	0
176128	0	0
180224	0	0
184320	0	0
188416	0	0
192512	0	0
196608	0	0
200704	0	0
204800	0	0
208896	0	0
212992	0	0
217088	0	0
221184	0	0
225280	0	0
229376	0	0
233472	0	0
237568	0	0
241664	0	0
245760	0	0
249856	0	0
253952	0	0
258048	0	0
262144	0	0
270336	0	0
278528	0	0
286720	0	0
294912	0	0
303104	0	0
311296	0	0
319488	0	0
327680	0	0
335872	0	0
344064	0	0
352256	0	0
360448	0	0
368640	0	0
376832	0	0
385024	0	0
393216	0	0
401408	0	0
409600	0	0
417792	0	0
425984	0	0
434176	0	0
442368	0	0
450560	0	0
458752	0	0
466944	0	0
475136	0	0
483328	0	0
491520	0	0
499712	0	0
507904	0	0
516096	0	0
524288	0	0
540672	0	0
557056	0	0
573440	0	0
589824	0	0
606208	0	0
622592	0	0
638976	0	0
655360	0	0
671744	0	0
688128	0	0
704512	0	0
720896	0	0
737280	0	0
753664	0	0
770048	0	0
786432	0	0
802816	0	0
819200	0	0
835584	0	0
851968	0	0
868352	0	0
884736	0	0
901120	0	0
917504	0	0
933888	0	0
950272	0	0
966656	0	0
983040	0	0
999424	0	0
1015808	0	0
1032192	0	0
1048576	0	0
1081344	0	0
1114112	0	0
1146880	0	0
1179648	0	0
1212416	0	0
1245184	0	0
1277952	0	0
1310720	0	0
1343488	0	0
1376256	0	0
1409024	0	0
1441792	0	0
1474560	0	0
1507328	1664	0
1540096	37776	0
1572864	181872	0
1605632	284256	0
1638400	171712	0
1671168	240800	0
1703936	142432	0
1736704	98176	0
1769472	98336	0
1802240	124912	0
1835008	136928	0
1867776	429632	0
1900544	2667808	0
1933312	7096880	0
1966080	11700752	0
1998848	6603360	0
2031616	3143936	0
2064384	102672	0
2097152	52992	0
2162688	35888	0
2228224	35952	0
2293760	32048	0
2359296	37008	0
2424832	38304	0
2490368	42640	0
2555904	31056	0
2621440	30992	0
2686976	29104	0
2752512	28000	0
2818048	26144	0
2883584	37584	0
2949120	24528	0
3014656	24320	0
3080192	23280	0
3145728	23120	0
3211264	21248	0
3276800	22016	0
3342336	20480	0
3407872	23376	0
3473408	47392	0
3538944	40832	0
3604480	37008	0
3670016	36384	0
3735552	159568	0
3801088	380144	0
3866624	311568	0
3932160	123840	0
3997696	0	0
4063232	0	0
4128768	0	0
4194304	0	0
4325376	0	0
4456448	0	0
4587520	0	0
4718592	0	0
4849664	0	0
4980736	0	0
5111808	0	0
5242880	0	0
5373952	0	0
5505024	0	0
5636096	0	0
5767168	0	0
5898240	0	0
6029312	0	0
6160384	0	0
6291456	0	0
6422528	0	0
6553600	0	0
6684672	0	0
6815744	0	0
6946816	0	0
7077888	0	0
7208960	0	0
7340032	0	0
7471104	0	0
7602176	0	0
7733248	0	0
7864320	0	0
7995392	0	0
8126464	0	0
8257536	0	0
8388608	0	0
8650752	0	0
8912896	0	0
9175040	0	0
9437184	0	0
9699328	0	0
9961472	0	0
10223616	0	0
10485760	0	0
10747904	0	0
11010048	0	0
11272192	0	0
11534336	0	0
11796480	0	0
12058624	0	0
12320768	0	0
12582912	0	0
12845056	0	0
13107200	0	0
13369344	0	0
13631488	0	0
13893632	0	0
14155776	0	0
14417920	0	0
14680064	0	0
14942208	0	0
15204352	0	0
15466496	0	0
15728640	0	0
15990784	0	0
16252928	0	0
16515072	0	0
16777216	0	0
17301504	0	0
17825792	0	0
18350080	0	0
18874368	0	0
19398656	0	0
19922944	0	0
20447232	0	0
20971520	0	0
21495808	0	0
22020096	0	0
22544384	0	0
23068672	0	0
23592960	0	0
24117248	0	0
24641536	0	0
25165824	0	0
25690112	0	0
26214400	0	0
26738688	0	0
27262976	0	0
27787264	0	0
28311552	0	0
28835840	0	0
29360128	0	0
29884416	0	0
30408704	0	0
30932992	0	0
31457280	0	0
31981568	0	0
32505856	0	0
33030144	0	0
33554432	0	0
34603008	0	0
35651584	0	0
36700160	0	0
37748736	0	0
38797312	0	0
39845888	0	0
40894464	0	0
41943040	0	0
42991616	0	0
44040192	0	0
45088768	0	0
46137344	0	0
47185920	0	0
48234496	0	0
49283072	0	0
50331648	0	0
51380224	0	0
52428800	0	0
53477376	0	0
54525952	0	0
55574528	0	0
56623104	0	0
57671680	0	0
58720256	0	0
59768832	0	0
60817408	0	0
61865984	0	0
62914560	0	0
63963136	0	0
65011712	0	0
66060288	0	0
67108864	0	0
69206016	0	0
71303168	0	0
73400320	0	0
75497472	0	0
77594624	0	0
79691776	0	0
81788928	0	0
83886080	0	0
85983232	0	0
88080384	0	0
90177536	0	0
92274688	0	0
94371840	0	0
96468992	0	0
98566144	0	0
100663296	0	0
102760448	0	0
104857600	0	0
106954752	0	0
109051904	0	0
111149056	0	0
113246208	0	0
115343360	0	0
117440512	0	0
119537664	0	0
121634816	0	0
123731968	0	0
125829120	0	0
127926272	0	0
130023424	0	0
132120576	0	0
134217728	0	0
138412032	0	0
142606336	0	0
146800640	0	0
150994944	0	0
155189248	0	0
159383552	0	0
163577856	0	0
167772160	0	0
171966464	0	0
176160768	0	0
180355072	0	0
184549376	0	0
188743680	0	0
192937984	0	0
197132288	0	0
201326592	0	0
205520896	0	0
209715200	0	0
213909504	0	0
218103808	0	0
222298112	0	0
226492416	0	0
230686720	0	0
234881024	0	0
239075328	0	0
243269632	0	0
247463936	0	0
251658240	0	0
255852544	0	0
260046848	0	0
264241152	0	0
268435456	0	0
276824064	0	0
285212672	0	0
293601280	0	0
301989888	0	0
310378496	0	0
318767104	0	0
327155712	0	0
335544320	0	0
343932928	0	0
352321536	0	0
360710144	0	0
369098752	0	0
377487360	0	0
385875968	0	0
394264576	0	0
402653184	0	0
411041792	0	0
419430400	0	0
427819008	0	0
436207616	0	0
444596224	0	0
452984832	0	0
461373440	0	0
469762048	0	0
478150656	0	0
486539264	0	0
494927872	0	0
503316480	0	0
511705088	0	0
520093696	0	0
528482304	0	0
536870912	0	0
553648128	0	0
570425344	0	0
587202560	0	0
603979776	0	0
620756992	0	0
637534208	0	0
654311424	0	0
671088640	0	0
687865856	0	0
704643072	0	0
721420288	0	0
738197504	0	0
754974720	0	0
771751936	0	0
788529152	0	0
805306368	0	0
822083584	0	0
838860800	0	0
855638016	0	0
872415232	0	0
889192448	0	0
905969664	0	0
922746880	0	0
939524096	0	0
956301312	0	0
973078528	0	0
989855744	0	0
1006632960	0	0
1023410176	0	0
1040187392	0	0
1056964608	0	0
1073741824	0	0
1107296256	0	0
1140850688	0	0
1174405120	0	0
1207959552	0	0
1241513984	0	0
1275068416	0	0
1308622848	0	0
1342177280	0	0
1375731712	0	0
1409286144	0	0
1442840576	0	0
1476395008	0	0
1509949440	0	0
1543503872	0	0
1577058304	0	0
1610612736	0	0
1644167168	0	0
1677721600	0	0
1711276032	0	0
1744830464	0	0
1778384896	0	0
1811939328	0	0
1845493760	0	0
1879048192	0	0
1912602624	0	0
1946157056	0	0
1979711488	0	0
2013265920	0	0
2046820352	0	0
2080374784	0	0
2113929216	0	0
2147483648	0	0
2214592512	0	0
2281701376	0	0
2348810240	0	0
2415919104	0	0
2483027968	0	0
2550136832	0	0
2617245696	0	0
2684354560	0	0
2751463424	0	0
2818572288	0	0
2885681152	0	0
2952790016	0	0
3019898880	0	0
3087007744	0	0
3154116608	0	0
3221225472	0	0
3288334336	0	0
3355443200	0	0
3422552064	0	0
3489660928	0	0
3556769792	0	0
3623878656	0	0
3690987520	0	0
3758096384	0	0
3825205248	0	0
3892314112	0	0
3959422976	0	0
4026531840	0	0
4093640704	0	0
4160749568	0	0
4227858432	0	0
~~~~~~~~~~Reuse Distance Profiler output end~~~~~~~~~~

Sampler size:2216660

DRAM Statistics
 CHANNEL 0
 RQ ROW_BUFFER_HIT:    2104520  ROW_BUFFER_MISS:   67334099
 DBUS AVG_CONGESTED_CYCLE:    4.00315
 WQ ROW_BUFFER_HIT:     744689  ROW_BUFFER_MISS:   51335598  FULL:          0


CPU 0 Branch Prediction Accuracy: 96.1064% MPKI: 0.6851 Average ROB Occupancy at Mispredict: 258.339
Branch type MPKI
BRANCH_DIRECT_JUMP: 0
BRANCH_INDIRECT: 0
BRANCH_CONDITIONAL: 0.6851
BRANCH_DIRECT_CALL: 0
BRANCH_INDIRECT_CALL: 0
BRANCH_RETURN: 0

