
*** ChampSim Multicore Out-of-Order Simulator ***

Warmup Instructions: 50000000
Simulation Instructions: 1500000000
Number of CPUs: 1
Off-chip DRAM Size: 4 GiB Channels: 1 Width: 64-bit Data Rate: 3200 MT/s

VirtualMemory physical capacity: 8588881920 num_ppages: 2096895
VirtualMemory page size: 4096 log2_page_size: 12

CPU 0 runs /s/traces/champsim_traces/621.wrf_s-8065B.champsimtrace.xz
CPU 0 Bimodal branch predictor
Basic BTB sets: 1024 ways: 8 indirect buffer size: 4096 RAS size: 64
Initializing LRU.
Initializing LRU.
Initializing LRU.
Initializing LRU.
Initializing rdLRU.
Initializing LRU.
Heartbeat CPU 0 instructions: 2000004 cycles: 637359 heartbeat IPC: 3.13796 cumulative IPC: 3.13796 (Simulation time: 0 hr 1 min 31 sec) 
Heartbeat CPU 0 instructions: 4000003 cycles: 1200390 heartbeat IPC: 3.5522 cumulative IPC: 3.33225 (Simulation time: 0 hr 2 min 53 sec) 
Heartbeat CPU 0 instructions: 6000000 cycles: 1776905 heartbeat IPC: 3.46912 cumulative IPC: 3.37666 (Simulation time: 0 hr 4 min 15 sec) 
Heartbeat CPU 0 instructions: 8000002 cycles: 2483337 heartbeat IPC: 2.83113 cumulative IPC: 3.22147 (Simulation time: 0 hr 5 min 53 sec) 
Heartbeat CPU 0 instructions: 10000004 cycles: 3181958 heartbeat IPC: 2.86279 cumulative IPC: 3.14272 (Simulation time: 0 hr 7 min 27 sec) 
Heartbeat CPU 0 instructions: 12000002 cycles: 3880053 heartbeat IPC: 2.86494 cumulative IPC: 3.09274 (Simulation time: 0 hr 9 min 0 sec) 
Heartbeat CPU 0 instructions: 14000003 cycles: 4578150 heartbeat IPC: 2.86493 cumulative IPC: 3.058 (Simulation time: 0 hr 10 min 28 sec) 
Heartbeat CPU 0 instructions: 16000000 cycles: 5282436 heartbeat IPC: 2.83975 cumulative IPC: 3.02891 (Simulation time: 0 hr 11 min 54 sec) 
Heartbeat CPU 0 instructions: 18000000 cycles: 5986282 heartbeat IPC: 2.84153 cumulative IPC: 3.00687 (Simulation time: 0 hr 13 min 19 sec) 
Heartbeat CPU 0 instructions: 20000000 cycles: 6672356 heartbeat IPC: 2.91514 cumulative IPC: 2.99744 (Simulation time: 0 hr 14 min 45 sec) 
Heartbeat CPU 0 instructions: 22000002 cycles: 7353847 heartbeat IPC: 2.93474 cumulative IPC: 2.99163 (Simulation time: 0 hr 16 min 14 sec) 
Heartbeat CPU 0 instructions: 24000001 cycles: 7987257 heartbeat IPC: 3.15751 cumulative IPC: 3.00479 (Simulation time: 0 hr 17 min 41 sec) 
Heartbeat CPU 0 instructions: 26000000 cycles: 8614453 heartbeat IPC: 3.18879 cumulative IPC: 3.01818 (Simulation time: 0 hr 19 min 8 sec) 
Heartbeat CPU 0 instructions: 28000003 cycles: 9193998 heartbeat IPC: 3.45099 cumulative IPC: 3.04547 (Simulation time: 0 hr 20 min 26 sec) 
Heartbeat CPU 0 instructions: 30000004 cycles: 9865651 heartbeat IPC: 2.97773 cumulative IPC: 3.04085 (Simulation time: 0 hr 21 min 56 sec) 
Heartbeat CPU 0 instructions: 32000002 cycles: 10543184 heartbeat IPC: 2.95188 cumulative IPC: 3.03514 (Simulation time: 0 hr 23 min 24 sec) 
Heartbeat CPU 0 instructions: 34000002 cycles: 11242050 heartbeat IPC: 2.86178 cumulative IPC: 3.02436 (Simulation time: 0 hr 24 min 50 sec) 
Heartbeat CPU 0 instructions: 36000004 cycles: 11937017 heartbeat IPC: 2.87784 cumulative IPC: 3.01583 (Simulation time: 0 hr 26 min 13 sec) 
Heartbeat CPU 0 instructions: 38000002 cycles: 12641161 heartbeat IPC: 2.84033 cumulative IPC: 3.00605 (Simulation time: 0 hr 27 min 37 sec) 
Heartbeat CPU 0 instructions: 40000003 cycles: 13345153 heartbeat IPC: 2.84094 cumulative IPC: 2.99734 (Simulation time: 0 hr 28 min 58 sec) 
Heartbeat CPU 0 instructions: 42000003 cycles: 14041151 heartbeat IPC: 2.87357 cumulative IPC: 2.99121 (Simulation time: 0 hr 30 min 21 sec) 
Heartbeat CPU 0 instructions: 44000002 cycles: 14723508 heartbeat IPC: 2.93102 cumulative IPC: 2.98842 (Simulation time: 0 hr 31 min 42 sec) 
Heartbeat CPU 0 instructions: 46000000 cycles: 15390937 heartbeat IPC: 2.99657 cumulative IPC: 2.98877 (Simulation time: 0 hr 33 min 0 sec) 
Heartbeat CPU 0 instructions: 48000000 cycles: 16018137 heartbeat IPC: 3.18878 cumulative IPC: 2.9966 (Simulation time: 0 hr 34 min 19 sec) 
Heartbeat CPU 0 instructions: 50000001 cycles: 16647689 heartbeat IPC: 3.17686 cumulative IPC: 3.00342 (Simulation time: 0 hr 35 min 39 sec) 

Warmup complete CPU 0 instructions: 50000001 cycles: 16647689 (Simulation time: 0 hr 35 min 39 sec) 

Heartbeat CPU 0 instructions: 52000001 cycles: 21290590 heartbeat IPC: 0.430765 cumulative IPC: 0.430765 (Simulation time: 0 hr 40 min 21 sec) 

Region of Interest Statistics
cpu0_DTLB TOTAL     ACCESS:     489187  HIT:     481803  MISS:       7384
cpu0_DTLB LOAD      ACCESS:     357003  HIT:     352179  MISS:       4824
cpu0_DTLB RFO       ACCESS:     132184  HIT:     129624  MISS:       2560
cpu0_DTLB PREFETCH  ACCESS:          0  HIT:          0  MISS:          0
cpu0_DTLB WRITEBACK ACCESS:          0  HIT:          0  MISS:          0
cpu0_ITLB TOTAL     ACCESS:     137643  HIT:     137642  MISS:          1
cpu0_ITLB LOAD      ACCESS:     137643  HIT:     137642  MISS:          1
cpu0_ITLB RFO       ACCESS:          0  HIT:          0  MISS:          0
cpu0_ITLB PREFETCH  ACCESS:          0  HIT:          0  MISS:          0
cpu0_ITLB WRITEBACK ACCESS:          0  HIT:          0  MISS:          0
cpu0_L1I TOTAL     ACCESS:      15499  HIT:      15251  MISS:        248
cpu0_L1I LOAD      ACCESS:      15499  HIT:      15251  MISS:        248
cpu0_L1I RFO       ACCESS:          0  HIT:          0  MISS:          0
cpu0_L1I PREFETCH  ACCESS:          0  HIT:          0  MISS:          0
cpu0_L1I WRITEBACK ACCESS:          0  HIT:          0  MISS:          0
cpu0_STLB TOTAL     ACCESS:       7385  HIT:       7015  MISS:        370
cpu0_STLB LOAD      ACCESS:       4825  HIT:       4757  MISS:         68
cpu0_STLB RFO       ACCESS:       2560  HIT:       2258  MISS:        302
cpu0_STLB PREFETCH  ACCESS:          0  HIT:          0  MISS:          0
cpu0_STLB WRITEBACK ACCESS:          0  HIT:          0  MISS:          0
cpu0_L1D TOTAL     ACCESS:     404259  HIT:     321596  MISS:      82663
cpu0_L1D LOAD      ACCESS:     255790  HIT:     211328  MISS:      44462
cpu0_L1D RFO       ACCESS:     148102  HIT:     109936  MISS:      38166
cpu0_L1D PREFETCH  ACCESS:          0  HIT:          0  MISS:          0
cpu0_L1D WRITEBACK ACCESS:          0  HIT:          0  MISS:          0
cpu0_L2C TOTAL     ACCESS:     138903  HIT:      63281  MISS:      75622
cpu0_L2C LOAD      ACCESS:      44704  HIT:       6303  MISS:      38401
cpu0_L2C RFO       ACCESS:      38166  HIT:        986  MISS:      37180
cpu0_L2C PREFETCH  ACCESS:          0  HIT:          0  MISS:          0
cpu0_L2C WRITEBACK ACCESS:      55998  HIT:      55971  MISS:         27
LLC TOTAL     ACCESS:     127361  HIT:      32797  MISS:      94564
LLC LOAD      ACCESS:      38401  HIT:      14495  MISS:      23906
LLC RFO       ACCESS:      37180  HIT:        670  MISS:      36510
LLC PREFETCH  ACCESS:          0  HIT:          0  MISS:          0
LLC WRITEBACK ACCESS:      51766  HIT:      17631  MISS:      34135
Heartbeat CPU 0 instructions: 54000001 cycles: 22448767 heartbeat IPC: 1.72685 cumulative IPC: 0.689527 (Simulation time: 0 hr 42 min 20 sec) 

Region of Interest Statistics
cpu0_DTLB TOTAL     ACCESS:    1097772  HIT:    1090183  MISS:       7589
cpu0_DTLB LOAD      ACCESS:     928317  HIT:     923293  MISS:       5024
cpu0_DTLB RFO       ACCESS:     169455  HIT:     166890  MISS:       2565
cpu0_DTLB PREFETCH  ACCESS:          0  HIT:          0  MISS:          0
cpu0_DTLB WRITEBACK ACCESS:          0  HIT:          0  MISS:          0
cpu0_ITLB TOTAL     ACCESS:     170429  HIT:     170428  MISS:          1
cpu0_ITLB LOAD      ACCESS:     170429  HIT:     170428  MISS:          1
cpu0_ITLB RFO       ACCESS:          0  HIT:          0  MISS:          0
cpu0_ITLB PREFETCH  ACCESS:          0  HIT:          0  MISS:          0
cpu0_ITLB WRITEBACK ACCESS:          0  HIT:          0  MISS:          0
cpu0_L1I TOTAL     ACCESS:      16204  HIT:      15956  MISS:        248
cpu0_L1I LOAD      ACCESS:      16204  HIT:      15956  MISS:        248
cpu0_L1I RFO       ACCESS:          0  HIT:          0  MISS:          0
cpu0_L1I PREFETCH  ACCESS:          0  HIT:          0  MISS:          0
cpu0_L1I WRITEBACK ACCESS:          0  HIT:          0  MISS:          0
cpu0_STLB TOTAL     ACCESS:       7590  HIT:       7144  MISS:        446
cpu0_STLB LOAD      ACCESS:       5025  HIT:       4881  MISS:        144
cpu0_STLB RFO       ACCESS:       2565  HIT:       2263  MISS:        302
cpu0_STLB PREFETCH  ACCESS:          0  HIT:          0  MISS:          0
cpu0_STLB WRITEBACK ACCESS:          0  HIT:          0  MISS:          0
cpu0_L1D TOTAL     ACCESS:     940548  HIT:     827551  MISS:     112997
cpu0_L1D LOAD      ACCESS:     738250  HIT:     664787  MISS:      73463
cpu0_L1D RFO       ACCESS:     201855  HIT:     162394  MISS:      39461
cpu0_L1D PREFETCH  ACCESS:          0  HIT:          0  MISS:          0
cpu0_L1D WRITEBACK ACCESS:          0  HIT:          0  MISS:          0
cpu0_L2C TOTAL     ACCESS:     175081  HIT:      90099  MISS:      84982
cpu0_L2C LOAD      ACCESS:      73690  HIT:      25929  MISS:      47761
cpu0_L2C RFO       ACCESS:      39461  HIT:       2281  MISS:      37180
cpu0_L2C PREFETCH  ACCESS:          0  HIT:          0  MISS:          0
cpu0_L2C WRITEBACK ACCESS:      61857  HIT:      61830  MISS:         27
LLC TOTAL     ACCESS:     142499  HIT:      34208  MISS:     108291
LLC LOAD      ACCESS:      47761  HIT:      14572  MISS:      33189
LLC RFO       ACCESS:      37180  HIT:        670  MISS:      36510
LLC PREFETCH  ACCESS:          0  HIT:          0  MISS:          0
LLC WRITEBACK ACCESS:      57544  HIT:      18965  MISS:      38579
Heartbeat CPU 0 instructions: 56000003 cycles: 23522586 heartbeat IPC: 1.86251 cumulative IPC: 0.872741 (Simulation time: 0 hr 44 min 18 sec) 

Region of Interest Statistics
cpu0_DTLB TOTAL     ACCESS:    1707181  HIT:    1699421  MISS:       7760
cpu0_DTLB LOAD      ACCESS:    1500449  HIT:    1495259  MISS:       5190
cpu0_DTLB RFO       ACCESS:     206732  HIT:     204162  MISS:       2570
cpu0_DTLB PREFETCH  ACCESS:          0  HIT:          0  MISS:          0
cpu0_DTLB WRITEBACK ACCESS:          0  HIT:          0  MISS:          0
cpu0_ITLB TOTAL     ACCESS:     203092  HIT:     203091  MISS:          1
cpu0_ITLB LOAD      ACCESS:     203092  HIT:     203091  MISS:          1
cpu0_ITLB RFO       ACCESS:          0  HIT:          0  MISS:          0
cpu0_ITLB PREFETCH  ACCESS:          0  HIT:          0  MISS:          0
cpu0_ITLB WRITEBACK ACCESS:          0  HIT:          0  MISS:          0
cpu0_L1I TOTAL     ACCESS:      16876  HIT:      16628  MISS:        248
cpu0_L1I LOAD      ACCESS:      16876  HIT:      16628  MISS:        248
cpu0_L1I RFO       ACCESS:          0  HIT:          0  MISS:          0
cpu0_L1I PREFETCH  ACCESS:          0  HIT:          0  MISS:          0
cpu0_L1I WRITEBACK ACCESS:          0  HIT:          0  MISS:          0
cpu0_STLB TOTAL     ACCESS:       7761  HIT:       7226  MISS:        535
cpu0_STLB LOAD      ACCESS:       5191  HIT:       4958  MISS:        233
cpu0_STLB RFO       ACCESS:       2570  HIT:       2268  MISS:        302
cpu0_STLB PREFETCH  ACCESS:          0  HIT:          0  MISS:          0
cpu0_STLB WRITEBACK ACCESS:          0  HIT:          0  MISS:          0
cpu0_L1D TOTAL     ACCESS:    1477138  HIT:    1334074  MISS:     143064
cpu0_L1D LOAD      ACCESS:    1221346  HIT:    1119146  MISS:     102200
cpu0_L1D RFO       ACCESS:     255260  HIT:     214513  MISS:      40747
cpu0_L1D PREFETCH  ACCESS:          0  HIT:          0  MISS:          0
cpu0_L1D WRITEBACK ACCESS:          0  HIT:          0  MISS:          0
cpu0_L2C TOTAL     ACCESS:     211116  HIT:     116891  MISS:      94225
cpu0_L2C LOAD      ACCESS:     102411  HIT:      45408  MISS:      57003
cpu0_L2C RFO       ACCESS:      40747  HIT:       3567  MISS:      37180
cpu0_L2C PREFETCH  ACCESS:          0  HIT:          0  MISS:          0
cpu0_L2C WRITEBACK ACCESS:      67841  HIT:      67814  MISS:         27
LLC TOTAL     ACCESS:     154855  HIT:      37156  MISS:     117699
LLC LOAD      ACCESS:      57003  HIT:      14602  MISS:      42401
LLC RFO       ACCESS:      37180  HIT:        670  MISS:      36510
LLC PREFETCH  ACCESS:          0  HIT:          0  MISS:          0
LLC WRITEBACK ACCESS:      60657  HIT:      21883  MISS:      38774
Heartbeat CPU 0 instructions: 58000002 cycles: 24691355 heartbeat IPC: 1.7112 cumulative IPC: 0.994572 (Simulation time: 0 hr 46 min 5 sec) 

Region of Interest Statistics
cpu0_DTLB TOTAL     ACCESS:    2208121  HIT:    2200188  MISS:       7933
cpu0_DTLB LOAD      ACCESS:    1958877  HIT:    1953517  MISS:       5360
cpu0_DTLB RFO       ACCESS:     249244  HIT:     246671  MISS:       2573
cpu0_DTLB PREFETCH  ACCESS:          0  HIT:          0  MISS:          0
cpu0_DTLB WRITEBACK ACCESS:          0  HIT:          0  MISS:          0
cpu0_ITLB TOTAL     ACCESS:     245061  HIT:     245060  MISS:          1
cpu0_ITLB LOAD      ACCESS:     245061  HIT:     245060  MISS:          1
cpu0_ITLB RFO       ACCESS:          0  HIT:          0  MISS:          0
cpu0_ITLB PREFETCH  ACCESS:          0  HIT:          0  MISS:          0
cpu0_ITLB WRITEBACK ACCESS:          0  HIT:          0  MISS:          0
cpu0_L1I TOTAL     ACCESS:      18059  HIT:      17754  MISS:        305
cpu0_L1I LOAD      ACCESS:      18059  HIT:      17754  MISS:        305
cpu0_L1I RFO       ACCESS:          0  HIT:          0  MISS:          0
cpu0_L1I PREFETCH  ACCESS:          0  HIT:          0  MISS:          0
cpu0_L1I WRITEBACK ACCESS:          0  HIT:          0  MISS:          0
cpu0_STLB TOTAL     ACCESS:       7934  HIT:       7371  MISS:        563
cpu0_STLB LOAD      ACCESS:       5361  HIT:       5101  MISS:        260
cpu0_STLB RFO       ACCESS:       2573  HIT:       2270  MISS:        303
cpu0_STLB PREFETCH  ACCESS:          0  HIT:          0  MISS:          0
cpu0_STLB WRITEBACK ACCESS:          0  HIT:          0  MISS:          0
cpu0_L1D TOTAL     ACCESS:    1887078  HIT:    1726869  MISS:     160209
cpu0_L1D LOAD      ACCESS:    1575370  HIT:    1456559  MISS:     118811
cpu0_L1D RFO       ACCESS:     311148  HIT:     269879  MISS:      41269
cpu0_L1D PREFETCH  ACCESS:          0  HIT:          0  MISS:          0
cpu0_L1D WRITEBACK ACCESS:          0  HIT:          0  MISS:          0
cpu0_L2C TOTAL     ACCESS:     232591  HIT:     128472  MISS:     104119
cpu0_L2C LOAD      ACCESS:     119070  HIT:      52306  MISS:      66764
cpu0_L2C RFO       ACCESS:      41269  HIT:       3962  MISS:      37307
cpu0_L2C PREFETCH  ACCESS:          0  HIT:          0  MISS:          0
cpu0_L2C WRITEBACK ACCESS:      72123  HIT:      72091  MISS:         32
LLC TOTAL     ACCESS:     167965  HIT:      41500  MISS:     126465
LLC LOAD      ACCESS:      66764  HIT:      16366  MISS:      50398
LLC RFO       ACCESS:      37307  HIT:        670  MISS:      36637
LLC PREFETCH  ACCESS:          0  HIT:          0  MISS:          0
LLC WRITEBACK ACCESS:      63878  HIT:      24463  MISS:      39415
Heartbeat CPU 0 instructions: 60000003 cycles: 25886372 heartbeat IPC: 1.67362 cumulative IPC: 1.08241 (Simulation time: 0 hr 47 min 48 sec) 

Region of Interest Statistics
cpu0_DTLB TOTAL     ACCESS:    2655830  HIT:    2647739  MISS:       8091
cpu0_DTLB LOAD      ACCESS:    2361783  HIT:    2356265  MISS:       5518
cpu0_DTLB RFO       ACCESS:     294047  HIT:     291474  MISS:       2573
cpu0_DTLB PREFETCH  ACCESS:          0  HIT:          0  MISS:          0
cpu0_DTLB WRITEBACK ACCESS:          0  HIT:          0  MISS:          0
cpu0_ITLB TOTAL     ACCESS:     289544  HIT:     289543  MISS:          1
cpu0_ITLB LOAD      ACCESS:     289544  HIT:     289543  MISS:          1
cpu0_ITLB RFO       ACCESS:          0  HIT:          0  MISS:          0
cpu0_ITLB PREFETCH  ACCESS:          0  HIT:          0  MISS:          0
cpu0_ITLB WRITEBACK ACCESS:          0  HIT:          0  MISS:          0
cpu0_L1I TOTAL     ACCESS:      19422  HIT:      19117  MISS:        305
cpu0_L1I LOAD      ACCESS:      19422  HIT:      19117  MISS:        305
cpu0_L1I RFO       ACCESS:          0  HIT:          0  MISS:          0
cpu0_L1I PREFETCH  ACCESS:          0  HIT:          0  MISS:          0
cpu0_L1I WRITEBACK ACCESS:          0  HIT:          0  MISS:          0
cpu0_STLB TOTAL     ACCESS:       8092  HIT:       7529  MISS:        563
cpu0_STLB LOAD      ACCESS:       5519  HIT:       5259  MISS:        260
cpu0_STLB RFO       ACCESS:       2573  HIT:       2270  MISS:        303
cpu0_STLB PREFETCH  ACCESS:          0  HIT:          0  MISS:          0
cpu0_STLB WRITEBACK ACCESS:          0  HIT:          0  MISS:          0
cpu0_L1D TOTAL     ACCESS:    2240267  HIT:    2070297  MISS:     169970
cpu0_L1D LOAD      ACCESS:    1871600  HIT:    1743028  MISS:     128572
cpu0_L1D RFO       ACCESS:     368107  HIT:     326838  MISS:      41269
cpu0_L1D PREFETCH  ACCESS:          0  HIT:          0  MISS:          0
cpu0_L1D WRITEBACK ACCESS:          0  HIT:          0  MISS:          0
cpu0_L2C TOTAL     ACCESS:     245547  HIT:     131676  MISS:     113871
cpu0_L2C LOAD      ACCESS:     128831  HIT:      52315  MISS:      76516
cpu0_L2C RFO       ACCESS:      41269  HIT:       3962  MISS:      37307
cpu0_L2C PREFETCH  ACCESS:          0  HIT:          0  MISS:          0
cpu0_L2C WRITEBACK ACCESS:      75318  HIT:      75286  MISS:         32
LLC TOTAL     ACCESS:     180985  HIT:      47409  MISS:     133576
LLC LOAD      ACCESS:      76516  HIT:      19251  MISS:      57265
LLC RFO       ACCESS:      37307  HIT:        670  MISS:      36637
LLC PREFETCH  ACCESS:          0  HIT:          0  MISS:          0
LLC WRITEBACK ACCESS:      67146  HIT:      27487  MISS:      39659
Heartbeat CPU 0 instructions: 62000002 cycles: 27088535 heartbeat IPC: 1.66367 cumulative IPC: 1.14933 (Simulation time: 0 hr 49 min 29 sec) 

Region of Interest Statistics
cpu0_DTLB TOTAL     ACCESS:    3103107  HIT:    3094858  MISS:       8249
cpu0_DTLB LOAD      ACCESS:    2764331  HIT:    2758655  MISS:       5676
cpu0_DTLB RFO       ACCESS:     338776  HIT:     336203  MISS:       2573
cpu0_DTLB PREFETCH  ACCESS:          0  HIT:          0  MISS:          0
cpu0_DTLB WRITEBACK ACCESS:          0  HIT:          0  MISS:          0
cpu0_ITLB TOTAL     ACCESS:     332920  HIT:     332919  MISS:          1
cpu0_ITLB LOAD      ACCESS:     332920  HIT:     332919  MISS:          1
cpu0_ITLB RFO       ACCESS:          0  HIT:          0  MISS:          0
cpu0_ITLB PREFETCH  ACCESS:          0  HIT:          0  MISS:          0
cpu0_ITLB WRITEBACK ACCESS:          0  HIT:          0  MISS:          0
cpu0_L1I TOTAL     ACCESS:      20742  HIT:      20437  MISS:        305
cpu0_L1I LOAD      ACCESS:      20742  HIT:      20437  MISS:        305
cpu0_L1I RFO       ACCESS:          0  HIT:          0  MISS:          0
cpu0_L1I PREFETCH  ACCESS:          0  HIT:          0  MISS:          0
cpu0_L1I WRITEBACK ACCESS:          0  HIT:          0  MISS:          0
cpu0_STLB TOTAL     ACCESS:       8250  HIT:       7684  MISS:        566
cpu0_STLB LOAD      ACCESS:       5677  HIT:       5414  MISS:        263
cpu0_STLB RFO       ACCESS:       2573  HIT:       2270  MISS:        303
cpu0_STLB PREFETCH  ACCESS:          0  HIT:          0  MISS:          0
cpu0_STLB WRITEBACK ACCESS:          0  HIT:          0  MISS:          0
cpu0_L1D TOTAL     ACCESS:    2592921  HIT:    2413298  MISS:     179623
cpu0_L1D LOAD      ACCESS:    2167691  HIT:    2029467  MISS:     138224
cpu0_L1D RFO       ACCESS:     424667  HIT:     383398  MISS:      41269
cpu0_L1D PREFETCH  ACCESS:          0  HIT:          0  MISS:          0
cpu0_L1D WRITEBACK ACCESS:          0  HIT:          0  MISS:          0
cpu0_L2C TOTAL     ACCESS:     258395  HIT:     134883  MISS:     123512
cpu0_L2C LOAD      ACCESS:     138483  HIT:      52327  MISS:      86156
cpu0_L2C RFO       ACCESS:      41269  HIT:       3962  MISS:      37307
cpu0_L2C PREFETCH  ACCESS:          0  HIT:          0  MISS:          0
cpu0_L2C WRITEBACK ACCESS:      78513  HIT:      78481  MISS:         32
LLC TOTAL     ACCESS:     193688  HIT:      52428  MISS:     141260
LLC LOAD      ACCESS:      86156  HIT:      21546  MISS:      64610
LLC RFO       ACCESS:      37307  HIT:        670  MISS:      36637
LLC PREFETCH  ACCESS:          0  HIT:          0  MISS:          0
LLC WRITEBACK ACCESS:      70208  HIT:      30211  MISS:      39997
Heartbeat CPU 0 instructions: 64000002 cycles: 28258412 heartbeat IPC: 1.70958 cumulative IPC: 1.20578 (Simulation time: 0 hr 51 min 28 sec) 

Region of Interest Statistics
cpu0_DTLB TOTAL     ACCESS:    3535998  HIT:    3527539  MISS:       8459
cpu0_DTLB LOAD      ACCESS:    3165535  HIT:    3159652  MISS:       5883
cpu0_DTLB RFO       ACCESS:     370463  HIT:     367887  MISS:       2576
cpu0_DTLB PREFETCH  ACCESS:          0  HIT:          0  MISS:          0
cpu0_DTLB WRITEBACK ACCESS:          0  HIT:          0  MISS:          0
cpu0_ITLB TOTAL     ACCESS:     373447  HIT:     373446  MISS:          1
cpu0_ITLB LOAD      ACCESS:     373447  HIT:     373446  MISS:          1
cpu0_ITLB RFO       ACCESS:          0  HIT:          0  MISS:          0
cpu0_ITLB PREFETCH  ACCESS:          0  HIT:          0  MISS:          0
cpu0_ITLB WRITEBACK ACCESS:          0  HIT:          0  MISS:          0
cpu0_L1I TOTAL     ACCESS:      21738  HIT:      21394  MISS:        344
cpu0_L1I LOAD      ACCESS:      21738  HIT:      21394  MISS:        344
cpu0_L1I RFO       ACCESS:          0  HIT:          0  MISS:          0
cpu0_L1I PREFETCH  ACCESS:          0  HIT:          0  MISS:          0
cpu0_L1I WRITEBACK ACCESS:          0  HIT:          0  MISS:          0
cpu0_STLB TOTAL     ACCESS:       8460  HIT:       7833  MISS:        627
cpu0_STLB LOAD      ACCESS:       5884  HIT:       5561  MISS:        323
cpu0_STLB RFO       ACCESS:       2576  HIT:       2272  MISS:        304
cpu0_STLB PREFETCH  ACCESS:          0  HIT:          0  MISS:          0
cpu0_STLB WRITEBACK ACCESS:          0  HIT:          0  MISS:          0
cpu0_L1D TOTAL     ACCESS:    3058008  HIT:    2866139  MISS:     191869
cpu0_L1D LOAD      ACCESS:    2564385  HIT:    2414048  MISS:     150337
cpu0_L1D RFO       ACCESS:     493000  HIT:     451601  MISS:      41399
cpu0_L1D PREFETCH  ACCESS:          0  HIT:          0  MISS:          0
cpu0_L1D WRITEBACK ACCESS:          0  HIT:          0  MISS:          0
cpu0_L2C TOTAL     ACCESS:     274861  HIT:     138948  MISS:     135913
cpu0_L2C LOAD      ACCESS:     150635  HIT:      52340  MISS:      98295
cpu0_L2C RFO       ACCESS:      41399  HIT:       3962  MISS:      37437
cpu0_L2C PREFETCH  ACCESS:          0  HIT:          0  MISS:          0
cpu0_L2C WRITEBACK ACCESS:      82694  HIT:      82532  MISS:        162
LLC TOTAL     ACCESS:     210235  HIT:      59466  MISS:     150769
LLC LOAD      ACCESS:      98295  HIT:      25097  MISS:      73198
LLC RFO       ACCESS:      37437  HIT:        670  MISS:      36767
LLC PREFETCH  ACCESS:          0  HIT:          0  MISS:          0
LLC WRITEBACK ACCESS:      74484  HIT:      33698  MISS:      40786
Heartbeat CPU 0 instructions: 66000001 cycles: 29405597 heartbeat IPC: 1.7434 cumulative IPC: 1.25412 (Simulation time: 0 hr 53 min 27 sec) 

Region of Interest Statistics
cpu0_DTLB TOTAL     ACCESS:    3968234  HIT:    3959577  MISS:       8657
cpu0_DTLB LOAD      ACCESS:    3566306  HIT:    3560225  MISS:       6081
cpu0_DTLB RFO       ACCESS:     401928  HIT:     399352  MISS:       2576
cpu0_DTLB PREFETCH  ACCESS:          0  HIT:          0  MISS:          0
cpu0_DTLB WRITEBACK ACCESS:          0  HIT:          0  MISS:          0
cpu0_ITLB TOTAL     ACCESS:     413512  HIT:     413511  MISS:          1
cpu0_ITLB LOAD      ACCESS:     413512  HIT:     413511  MISS:          1
cpu0_ITLB RFO       ACCESS:          0  HIT:          0  MISS:          0
cpu0_ITLB PREFETCH  ACCESS:          0  HIT:          0  MISS:          0
cpu0_ITLB WRITEBACK ACCESS:          0  HIT:          0  MISS:          0
cpu0_L1I TOTAL     ACCESS:      22654  HIT:      22310  MISS:        344
cpu0_L1I LOAD      ACCESS:      22654  HIT:      22310  MISS:        344
cpu0_L1I RFO       ACCESS:          0  HIT:          0  MISS:          0
cpu0_L1I PREFETCH  ACCESS:          0  HIT:          0  MISS:          0
cpu0_L1I WRITEBACK ACCESS:          0  HIT:          0  MISS:          0
cpu0_STLB TOTAL     ACCESS:       8658  HIT:       7967  MISS:        691
cpu0_STLB LOAD      ACCESS:       6082  HIT:       5695  MISS:        387
cpu0_STLB RFO       ACCESS:       2576  HIT:       2272  MISS:        304
cpu0_STLB PREFETCH  ACCESS:          0  HIT:          0  MISS:          0
cpu0_STLB WRITEBACK ACCESS:          0  HIT:          0  MISS:          0
cpu0_L1D TOTAL     ACCESS:    3524167  HIT:    3320214  MISS:     203953
cpu0_L1D LOAD      ACCESS:    2961253  HIT:    2798832  MISS:     162421
cpu0_L1D RFO       ACCESS:     562227  HIT:     520828  MISS:      41399
cpu0_L1D PREFETCH  ACCESS:          0  HIT:          0  MISS:          0
cpu0_L1D WRITEBACK ACCESS:          0  HIT:          0  MISS:          0
cpu0_L2C TOTAL     ACCESS:     290990  HIT:     143006  MISS:     147984
cpu0_L2C LOAD      ACCESS:     162719  HIT:      52353  MISS:     110366
cpu0_L2C RFO       ACCESS:      41399  HIT:       3962  MISS:      37437
cpu0_L2C PREFETCH  ACCESS:          0  HIT:          0  MISS:          0
cpu0_L2C WRITEBACK ACCESS:      86739  HIT:      86577  MISS:        162
LLC TOTAL     ACCESS:     226426  HIT:      66398  MISS:     160028
LLC LOAD      ACCESS:     110366  HIT:      28369  MISS:      81997
LLC RFO       ACCESS:      37437  HIT:        670  MISS:      36767
LLC PREFETCH  ACCESS:          0  HIT:          0  MISS:          0
LLC WRITEBACK ACCESS:      78604  HIT:      37358  MISS:      41246
Heartbeat CPU 0 instructions: 68000003 cycles: 30814130 heartbeat IPC: 1.41992 cumulative IPC: 1.27061 (Simulation time: 0 hr 55 min 39 sec) 

Region of Interest Statistics
cpu0_DTLB TOTAL     ACCESS:    4488379  HIT:    4479461  MISS:       8918
cpu0_DTLB LOAD      ACCESS:    4055851  HIT:    4049511  MISS:       6340
cpu0_DTLB RFO       ACCESS:     432528  HIT:     429950  MISS:       2578
cpu0_DTLB PREFETCH  ACCESS:          0  HIT:          0  MISS:          0
cpu0_DTLB WRITEBACK ACCESS:          0  HIT:          0  MISS:          0
cpu0_ITLB TOTAL     ACCESS:     455437  HIT:     455436  MISS:          1
cpu0_ITLB LOAD      ACCESS:     455437  HIT:     455436  MISS:          1
cpu0_ITLB RFO       ACCESS:          0  HIT:          0  MISS:          0
cpu0_ITLB PREFETCH  ACCESS:          0  HIT:          0  MISS:          0
cpu0_ITLB WRITEBACK ACCESS:          0  HIT:          0  MISS:          0
cpu0_L1I TOTAL     ACCESS:     118576  HIT:     118170  MISS:        406
cpu0_L1I LOAD      ACCESS:     118576  HIT:     118170  MISS:        406
cpu0_L1I RFO       ACCESS:          0  HIT:          0  MISS:          0
cpu0_L1I PREFETCH  ACCESS:          0  HIT:          0  MISS:          0
cpu0_L1I WRITEBACK ACCESS:          0  HIT:          0  MISS:          0
cpu0_STLB TOTAL     ACCESS:       8919  HIT:       8070  MISS:        849
cpu0_STLB LOAD      ACCESS:       6341  HIT:       5796  MISS:        545
cpu0_STLB RFO       ACCESS:       2578  HIT:       2274  MISS:        304
cpu0_STLB PREFETCH  ACCESS:          0  HIT:          0  MISS:          0
cpu0_STLB WRITEBACK ACCESS:          0  HIT:          0  MISS:          0
cpu0_L1D TOTAL     ACCESS:    4012178  HIT:    3779019  MISS:     233159
cpu0_L1D LOAD      ACCESS:    3404610  HIT:    3213012  MISS:     191598
cpu0_L1D RFO       ACCESS:     606726  HIT:     565313  MISS:      41413
cpu0_L1D PREFETCH  ACCESS:          0  HIT:          0  MISS:          0
cpu0_L1D WRITEBACK ACCESS:          0  HIT:          0  MISS:          0
cpu0_L2C TOTAL     ACCESS:     324870  HIT:     162295  MISS:     162575
cpu0_L2C LOAD      ACCESS:     191958  HIT:      67158  MISS:     124800
cpu0_L2C RFO       ACCESS:      41413  HIT:       3962  MISS:      37451
cpu0_L2C PREFETCH  ACCESS:          0  HIT:          0  MISS:          0
cpu0_L2C WRITEBACK ACCESS:      91351  HIT:      91051  MISS:        300
LLC TOTAL     ACCESS:     245628  HIT:      70438  MISS:     175190
LLC LOAD      ACCESS:     124800  HIT:      28939  MISS:      95861
LLC RFO       ACCESS:      37451  HIT:        670  MISS:      36781
LLC PREFETCH  ACCESS:          0  HIT:          0  MISS:          0
LLC WRITEBACK ACCESS:      83353  HIT:      40828  MISS:      42525
Heartbeat CPU 0 instructions: 70000001 cycles: 32335008 heartbeat IPC: 1.31503 cumulative IPC: 1.27492 (Simulation time: 0 hr 58 min 1 sec) 

Region of Interest Statistics
cpu0_DTLB TOTAL     ACCESS:    5019101  HIT:    5009956  MISS:       9145
cpu0_DTLB LOAD      ACCESS:    4556232  HIT:    4549665  MISS:       6567
cpu0_DTLB RFO       ACCESS:     462869  HIT:     460291  MISS:       2578
cpu0_DTLB PREFETCH  ACCESS:          0  HIT:          0  MISS:          0
cpu0_DTLB WRITEBACK ACCESS:          0  HIT:          0  MISS:          0
cpu0_ITLB TOTAL     ACCESS:     497958  HIT:     497957  MISS:          1
cpu0_ITLB LOAD      ACCESS:     497958  HIT:     497957  MISS:          1
cpu0_ITLB RFO       ACCESS:          0  HIT:          0  MISS:          0
cpu0_ITLB PREFETCH  ACCESS:          0  HIT:          0  MISS:          0
cpu0_ITLB WRITEBACK ACCESS:          0  HIT:          0  MISS:          0
cpu0_L1I TOTAL     ACCESS:     226038  HIT:     225632  MISS:        406
cpu0_L1I LOAD      ACCESS:     226038  HIT:     225632  MISS:        406
cpu0_L1I RFO       ACCESS:          0  HIT:          0  MISS:          0
cpu0_L1I PREFETCH  ACCESS:          0  HIT:          0  MISS:          0
cpu0_L1I WRITEBACK ACCESS:          0  HIT:          0  MISS:          0
cpu0_STLB TOTAL     ACCESS:       9146  HIT:       8153  MISS:        993
cpu0_STLB LOAD      ACCESS:       6568  HIT:       5879  MISS:        689
cpu0_STLB RFO       ACCESS:       2578  HIT:       2274  MISS:        304
cpu0_STLB PREFETCH  ACCESS:          0  HIT:          0  MISS:          0
cpu0_STLB WRITEBACK ACCESS:          0  HIT:          0  MISS:          0
cpu0_L1D TOTAL     ACCESS:    4506360  HIT:    4242043  MISS:     264317
cpu0_L1D LOAD      ACCESS:    3857149  HIT:    3634411  MISS:     222738
cpu0_L1D RFO       ACCESS:     648225  HIT:     606812  MISS:      41413
cpu0_L1D PREFETCH  ACCESS:          0  HIT:          0  MISS:          0
cpu0_L1D WRITEBACK ACCESS:          0  HIT:          0  MISS:          0
cpu0_L2C TOTAL     ACCESS:     360341  HIT:     183818  MISS:     176523
cpu0_L2C LOAD      ACCESS:     223098  HIT:      84351  MISS:     138747
cpu0_L2C RFO       ACCESS:      41413  HIT:       3962  MISS:      37451
cpu0_L2C PREFETCH  ACCESS:          0  HIT:          0  MISS:          0
cpu0_L2C WRITEBACK ACCESS:      95664  HIT:      95364  MISS:        300
LLC TOTAL     ACCESS:     264099  HIT:      74119  MISS:     189980
LLC LOAD      ACCESS:     138747  HIT:      29094  MISS:     109653
LLC RFO       ACCESS:      37451  HIT:        670  MISS:      36781
LLC PREFETCH  ACCESS:          0  HIT:          0  MISS:          0
LLC WRITEBACK ACCESS:      87876  HIT:      44354  MISS:      43522
Heartbeat CPU 0 instructions: 72000000 cycles: 36518723 heartbeat IPC: 0.478044 cumulative IPC: 1.10714 (Simulation time: 1 hr 2 min 21 sec) 

Region of Interest Statistics
cpu0_DTLB TOTAL     ACCESS:    5445898  HIT:    5429091  MISS:      16807
cpu0_DTLB LOAD      ACCESS:    4845989  HIT:    4834484  MISS:      11505
cpu0_DTLB RFO       ACCESS:     599909  HIT:     594607  MISS:       5302
cpu0_DTLB PREFETCH  ACCESS:          0  HIT:          0  MISS:          0
cpu0_DTLB WRITEBACK ACCESS:          0  HIT:          0  MISS:          0
cpu0_ITLB TOTAL     ACCESS:     676803  HIT:     676802  MISS:          1
cpu0_ITLB LOAD      ACCESS:     676803  HIT:     676802  MISS:          1
cpu0_ITLB RFO       ACCESS:          0  HIT:          0  MISS:          0
cpu0_ITLB PREFETCH  ACCESS:          0  HIT:          0  MISS:          0
cpu0_ITLB WRITEBACK ACCESS:          0  HIT:          0  MISS:          0
cpu0_L1I TOTAL     ACCESS:     241095  HIT:     240484  MISS:        611
cpu0_L1I LOAD      ACCESS:     241095  HIT:     240484  MISS:        611
cpu0_L1I RFO       ACCESS:          0  HIT:          0  MISS:          0
cpu0_L1I PREFETCH  ACCESS:          0  HIT:          0  MISS:          0
cpu0_L1I WRITEBACK ACCESS:          0  HIT:          0  MISS:          0
cpu0_STLB TOTAL     ACCESS:      16808  HIT:      15508  MISS:       1300
cpu0_STLB LOAD      ACCESS:      11506  HIT:      10780  MISS:        726
cpu0_STLB RFO       ACCESS:       5302  HIT:       4728  MISS:        574
cpu0_STLB PREFETCH  ACCESS:          0  HIT:          0  MISS:          0
cpu0_STLB WRITEBACK ACCESS:          0  HIT:          0  MISS:          0
cpu0_L1D TOTAL     ACCESS:    4857661  HIT:    4504177  MISS:     353484
cpu0_L1D LOAD      ACCESS:    4053240  HIT:    3782806  MISS:     270434
cpu0_L1D RFO       ACCESS:     803130  HIT:     720271  MISS:      82859
cpu0_L1D PREFETCH  ACCESS:          0  HIT:          0  MISS:          0
cpu0_L1D WRITEBACK ACCESS:          0  HIT:          0  MISS:          0
cpu0_L2C TOTAL     ACCESS:     508003  HIT:     245585  MISS:     262418
cpu0_L2C LOAD      ACCESS:     270999  HIT:      86094  MISS:     184905
cpu0_L2C RFO       ACCESS:      82859  HIT:       5716  MISS:      77143
cpu0_L2C PREFETCH  ACCESS:          0  HIT:          0  MISS:          0
cpu0_L2C WRITEBACK ACCESS:     153954  HIT:     153618  MISS:        336
LLC TOTAL     ACCESS:     400491  HIT:     123402  MISS:     277089
LLC LOAD      ACCESS:     184905  HIT:      44783  MISS:     140122
LLC RFO       ACCESS:      77143  HIT:       6677  MISS:      70466
LLC PREFETCH  ACCESS:          0  HIT:          0  MISS:          0
LLC WRITEBACK ACCESS:     138409  HIT:      71939  MISS:      66470
Heartbeat CPU 0 instructions: 74000004 cycles: 38743476 heartbeat IPC: 0.898978 cumulative IPC: 1.08618 (Simulation time: 1 hr 5 min 9 sec) 

Region of Interest Statistics
cpu0_DTLB TOTAL     ACCESS:    6041262  HIT:    6024034  MISS:      17228
cpu0_DTLB LOAD      ACCESS:    5382609  HIT:    5370873  MISS:      11736
cpu0_DTLB RFO       ACCESS:     658653  HIT:     653161  MISS:       5492
cpu0_DTLB PREFETCH  ACCESS:          0  HIT:          0  MISS:          0
cpu0_DTLB WRITEBACK ACCESS:          0  HIT:          0  MISS:          0
cpu0_ITLB TOTAL     ACCESS:     721792  HIT:     721791  MISS:          1
cpu0_ITLB LOAD      ACCESS:     721792  HIT:     721791  MISS:          1
cpu0_ITLB RFO       ACCESS:          0  HIT:          0  MISS:          0
cpu0_ITLB PREFETCH  ACCESS:          0  HIT:          0  MISS:          0
cpu0_ITLB WRITEBACK ACCESS:          0  HIT:          0  MISS:          0
cpu0_L1I TOTAL     ACCESS:     246567  HIT:     245838  MISS:        729
cpu0_L1I LOAD      ACCESS:     246567  HIT:     245838  MISS:        729
cpu0_L1I RFO       ACCESS:          0  HIT:          0  MISS:          0
cpu0_L1I PREFETCH  ACCESS:          0  HIT:          0  MISS:          0
cpu0_L1I WRITEBACK ACCESS:          0  HIT:          0  MISS:          0
cpu0_STLB TOTAL     ACCESS:      17229  HIT:      15731  MISS:       1498
cpu0_STLB LOAD      ACCESS:      11737  HIT:      10907  MISS:        830
cpu0_STLB RFO       ACCESS:       5492  HIT:       4824  MISS:        668
cpu0_STLB PREFETCH  ACCESS:          0  HIT:          0  MISS:          0
cpu0_STLB WRITEBACK ACCESS:          0  HIT:          0  MISS:          0
cpu0_L1D TOTAL     ACCESS:    5367535  HIT:    4974554  MISS:     392981
cpu0_L1D LOAD      ACCESS:    4501142  HIT:    4203605  MISS:     297537
cpu0_L1D RFO       ACCESS:     864905  HIT:     769697  MISS:      95208
cpu0_L1D PREFETCH  ACCESS:          0  HIT:          0  MISS:          0
cpu0_L1D WRITEBACK ACCESS:          0  HIT:          0  MISS:          0
cpu0_L2C TOTAL     ACCESS:     564745  HIT:     281491  MISS:     283254
cpu0_L2C LOAD      ACCESS:     298208  HIT:     103679  MISS:     194529
cpu0_L2C RFO       ACCESS:      95208  HIT:       6861  MISS:      88347
cpu0_L2C PREFETCH  ACCESS:          0  HIT:          0  MISS:          0
cpu0_L2C WRITEBACK ACCESS:     171093  HIT:     170754  MISS:        339
LLC TOTAL     ACCESS:     440633  HIT:     124657  MISS:     315976
LLC LOAD      ACCESS:     194529  HIT:      44972  MISS:     149557
LLC RFO       ACCESS:      88347  HIT:       6678  MISS:      81669
LLC PREFETCH  ACCESS:          0  HIT:          0  MISS:          0
LLC WRITEBACK ACCESS:     157718  HIT:      73004  MISS:      84714
Heartbeat CPU 0 instructions: 76000003 cycles: 39835119 heartbeat IPC: 1.8321 cumulative IPC: 1.1213 (Simulation time: 1 hr 7 min 2 sec) 

Region of Interest Statistics
cpu0_DTLB TOTAL     ACCESS:    6650144  HIT:    6632730  MISS:      17414
cpu0_DTLB LOAD      ACCESS:    5954218  HIT:    5942302  MISS:      11916
cpu0_DTLB RFO       ACCESS:     695926  HIT:     690428  MISS:       5498
cpu0_DTLB PREFETCH  ACCESS:          0  HIT:          0  MISS:          0
cpu0_DTLB WRITEBACK ACCESS:          0  HIT:          0  MISS:          0
cpu0_ITLB TOTAL     ACCESS:     754938  HIT:     754937  MISS:          1
cpu0_ITLB LOAD      ACCESS:     754938  HIT:     754937  MISS:          1
cpu0_ITLB RFO       ACCESS:          0  HIT:          0  MISS:          0
cpu0_ITLB PREFETCH  ACCESS:          0  HIT:          0  MISS:          0
cpu0_ITLB WRITEBACK ACCESS:          0  HIT:          0  MISS:          0
cpu0_L1I TOTAL     ACCESS:     247255  HIT:     246526  MISS:        729
cpu0_L1I LOAD      ACCESS:     247255  HIT:     246526  MISS:        729
cpu0_L1I RFO       ACCESS:          0  HIT:          0  MISS:          0
cpu0_L1I PREFETCH  ACCESS:          0  HIT:          0  MISS:          0
cpu0_L1I WRITEBACK ACCESS:          0  HIT:          0  MISS:          0
cpu0_STLB TOTAL     ACCESS:      17415  HIT:      15823  MISS:       1592
cpu0_STLB LOAD      ACCESS:      11917  HIT:      10993  MISS:        924
cpu0_STLB RFO       ACCESS:       5498  HIT:       4830  MISS:        668
cpu0_STLB PREFETCH  ACCESS:          0  HIT:          0  MISS:          0
cpu0_STLB WRITEBACK ACCESS:          0  HIT:          0  MISS:          0
cpu0_L1D TOTAL     ACCESS:    5903393  HIT:    5480097  MISS:     423296
cpu0_L1D LOAD      ACCESS:    4983279  HIT:    4656790  MISS:     326489
cpu0_L1D RFO       ACCESS:     918532  HIT:     822000  MISS:      96532
cpu0_L1D PREFETCH  ACCESS:          0  HIT:          0  MISS:          0
cpu0_L1D WRITEBACK ACCESS:          0  HIT:          0  MISS:          0
cpu0_L2C TOTAL     ACCESS:     601027  HIT:     308439  MISS:     292588
cpu0_L2C LOAD      ACCESS:     327144  HIT:     123282  MISS:     203862
cpu0_L2C RFO       ACCESS:      96532  HIT:       8185  MISS:      88347
cpu0_L2C PREFETCH  ACCESS:          0  HIT:          0  MISS:          0
cpu0_L2C WRITEBACK ACCESS:     177076  HIT:     176737  MISS:        339
LLC TOTAL     ACCESS:     453423  HIT:     127592  MISS:     325831
LLC LOAD      ACCESS:     203862  HIT:      45057  MISS:     158805
LLC RFO       ACCESS:      88347  HIT:       6678  MISS:      81669
LLC PREFETCH  ACCESS:          0  HIT:          0  MISS:          0
LLC WRITEBACK ACCESS:     161174  HIT:      75854  MISS:      85320
Heartbeat CPU 0 instructions: 78000004 cycles: 40942202 heartbeat IPC: 1.80655 cumulative IPC: 1.15252 (Simulation time: 1 hr 8 min 53 sec) 

Region of Interest Statistics
cpu0_DTLB TOTAL     ACCESS:    7208884  HIT:    7191287  MISS:      17597
cpu0_DTLB LOAD      ACCESS:    6473357  HIT:    6461263  MISS:      12094
cpu0_DTLB RFO       ACCESS:     735527  HIT:     730024  MISS:       5503
cpu0_DTLB PREFETCH  ACCESS:          0  HIT:          0  MISS:          0
cpu0_DTLB WRITEBACK ACCESS:          0  HIT:          0  MISS:          0
cpu0_ITLB TOTAL     ACCESS:     792610  HIT:     792609  MISS:          1
cpu0_ITLB LOAD      ACCESS:     792610  HIT:     792609  MISS:          1
cpu0_ITLB RFO       ACCESS:          0  HIT:          0  MISS:          0
cpu0_ITLB PREFETCH  ACCESS:          0  HIT:          0  MISS:          0
cpu0_ITLB WRITEBACK ACCESS:          0  HIT:          0  MISS:          0
cpu0_L1I TOTAL     ACCESS:     248181  HIT:     247395  MISS:        786
cpu0_L1I LOAD      ACCESS:     248181  HIT:     247395  MISS:        786
cpu0_L1I RFO       ACCESS:          0  HIT:          0  MISS:          0
cpu0_L1I PREFETCH  ACCESS:          0  HIT:          0  MISS:          0
cpu0_L1I WRITEBACK ACCESS:          0  HIT:          0  MISS:          0
cpu0_STLB TOTAL     ACCESS:      17598  HIT:      15942  MISS:       1656
cpu0_STLB LOAD      ACCESS:      12095  HIT:      11108  MISS:        987
cpu0_STLB RFO       ACCESS:       5503  HIT:       4834  MISS:        669
cpu0_STLB PREFETCH  ACCESS:          0  HIT:          0  MISS:          0
cpu0_STLB WRITEBACK ACCESS:          0  HIT:          0  MISS:          0
cpu0_L1D TOTAL     ACCESS:    6380165  HIT:    5932513  MISS:     447652
cpu0_L1D LOAD      ACCESS:    5405397  HIT:    5055562  MISS:     349835
cpu0_L1D RFO       ACCESS:     973122  HIT:     875607  MISS:      97515
cpu0_L1D PREFETCH  ACCESS:          0  HIT:          0  MISS:          0
cpu0_L1D WRITEBACK ACCESS:          0  HIT:          0  MISS:          0
cpu0_L2C TOTAL     ACCESS:     630723  HIT:     328435  MISS:     302288
cpu0_L2C LOAD      ACCESS:     350532  HIT:     137102  MISS:     213430
cpu0_L2C RFO       ACCESS:      97515  HIT:       9041  MISS:      88474
cpu0_L2C PREFETCH  ACCESS:          0  HIT:          0  MISS:          0
cpu0_L2C WRITEBACK ACCESS:     182374  HIT:     182032  MISS:        342
LLC TOTAL     ACCESS:     466094  HIT:     130945  MISS:     335149
LLC LOAD      ACCESS:     213430  HIT:      45627  MISS:     167803
LLC RFO       ACCESS:      88474  HIT:       6678  MISS:      81796
LLC PREFETCH  ACCESS:          0  HIT:          0  MISS:          0
LLC WRITEBACK ACCESS:     164148  HIT:      78637  MISS:      85511
Heartbeat CPU 0 instructions: 80000003 cycles: 42121780 heartbeat IPC: 1.69552 cumulative IPC: 1.17767 (Simulation time: 1 hr 10 min 33 sec) 

Region of Interest Statistics
cpu0_DTLB TOTAL     ACCESS:    7657136  HIT:    7639380  MISS:      17756
cpu0_DTLB LOAD      ACCESS:    6876719  HIT:    6864466  MISS:      12253
cpu0_DTLB RFO       ACCESS:     780417  HIT:     774914  MISS:       5503
cpu0_DTLB PREFETCH  ACCESS:          0  HIT:          0  MISS:          0
cpu0_DTLB WRITEBACK ACCESS:          0  HIT:          0  MISS:          0
cpu0_ITLB TOTAL     ACCESS:     837430  HIT:     837429  MISS:          1
cpu0_ITLB LOAD      ACCESS:     837430  HIT:     837429  MISS:          1
cpu0_ITLB RFO       ACCESS:          0  HIT:          0  MISS:          0
cpu0_ITLB PREFETCH  ACCESS:          0  HIT:          0  MISS:          0
cpu0_ITLB WRITEBACK ACCESS:          0  HIT:          0  MISS:          0
cpu0_L1I TOTAL     ACCESS:     249561  HIT:     248775  MISS:        786
cpu0_L1I LOAD      ACCESS:     249561  HIT:     248775  MISS:        786
cpu0_L1I RFO       ACCESS:          0  HIT:          0  MISS:          0
cpu0_L1I PREFETCH  ACCESS:          0  HIT:          0  MISS:          0
cpu0_L1I WRITEBACK ACCESS:          0  HIT:          0  MISS:          0
cpu0_STLB TOTAL     ACCESS:      17757  HIT:      16101  MISS:       1656
cpu0_STLB LOAD      ACCESS:      12254  HIT:      11267  MISS:        987
cpu0_STLB RFO       ACCESS:       5503  HIT:       4834  MISS:        669
cpu0_STLB PREFETCH  ACCESS:          0  HIT:          0  MISS:          0
cpu0_STLB WRITEBACK ACCESS:          0  HIT:          0  MISS:          0
cpu0_L1D TOTAL     ACCESS:    6735245  HIT:    6277827  MISS:     457418
cpu0_L1D LOAD      ACCESS:    5703494  HIT:    5343893  MISS:     359601
cpu0_L1D RFO       ACCESS:    1030105  HIT:     932590  MISS:      97515
cpu0_L1D PREFETCH  ACCESS:          0  HIT:          0  MISS:          0
cpu0_L1D WRITEBACK ACCESS:          0  HIT:          0  MISS:          0
cpu0_L2C TOTAL     ACCESS:     643676  HIT:     331634  MISS:     312042
cpu0_L2C LOAD      ACCESS:     360298  HIT:     137114  MISS:     223184
cpu0_L2C RFO       ACCESS:      97515  HIT:       9041  MISS:      88474
cpu0_L2C PREFETCH  ACCESS:          0  HIT:          0  MISS:          0
cpu0_L2C WRITEBACK ACCESS:     185561  HIT:     185219  MISS:        342
LLC TOTAL     ACCESS:     479241  HIT:     136865  MISS:     342376
LLC LOAD      ACCESS:     223184  HIT:      48669  MISS:     174515
LLC RFO       ACCESS:      88474  HIT:       6678  MISS:      81796
LLC PREFETCH  ACCESS:          0  HIT:          0  MISS:          0
LLC WRITEBACK ACCESS:     167541  HIT:      81515  MISS:      86026
Heartbeat CPU 0 instructions: 82000001 cycles: 43309294 heartbeat IPC: 1.68419 cumulative IPC: 1.20023 (Simulation time: 1 hr 12 min 15 sec) 

Region of Interest Statistics
cpu0_DTLB TOTAL     ACCESS:    8105059  HIT:    8087148  MISS:      17911
cpu0_DTLB LOAD      ACCESS:    7279852  HIT:    7267444  MISS:      12408
cpu0_DTLB RFO       ACCESS:     825207  HIT:     819704  MISS:       5503
cpu0_DTLB PREFETCH  ACCESS:          0  HIT:          0  MISS:          0
cpu0_DTLB WRITEBACK ACCESS:          0  HIT:          0  MISS:          0
cpu0_ITLB TOTAL     ACCESS:     880918  HIT:     880917  MISS:          1
cpu0_ITLB LOAD      ACCESS:     880918  HIT:     880917  MISS:          1
cpu0_ITLB RFO       ACCESS:          0  HIT:          0  MISS:          0
cpu0_ITLB PREFETCH  ACCESS:          0  HIT:          0  MISS:          0
cpu0_ITLB WRITEBACK ACCESS:          0  HIT:          0  MISS:          0
cpu0_L1I TOTAL     ACCESS:     250881  HIT:     250095  MISS:        786
cpu0_L1I LOAD      ACCESS:     250881  HIT:     250095  MISS:        786
cpu0_L1I RFO       ACCESS:          0  HIT:          0  MISS:          0
cpu0_L1I PREFETCH  ACCESS:          0  HIT:          0  MISS:          0
cpu0_L1I WRITEBACK ACCESS:          0  HIT:          0  MISS:          0
cpu0_STLB TOTAL     ACCESS:      17912  HIT:      16256  MISS:       1656
cpu0_STLB LOAD      ACCESS:      12409  HIT:      11422  MISS:        987
cpu0_STLB RFO       ACCESS:       5503  HIT:       4834  MISS:        669
cpu0_STLB PREFETCH  ACCESS:          0  HIT:          0  MISS:          0
cpu0_STLB WRITEBACK ACCESS:          0  HIT:          0  MISS:          0
cpu0_L1D TOTAL     ACCESS:    7089501  HIT:    6622430  MISS:     467071
cpu0_L1D LOAD      ACCESS:    6001189  HIT:    5631935  MISS:     369254
cpu0_L1D RFO       ACCESS:    1086666  HIT:     989151  MISS:      97515
cpu0_L1D PREFETCH  ACCESS:          0  HIT:          0  MISS:          0
cpu0_L1D WRITEBACK ACCESS:          0  HIT:          0  MISS:          0
cpu0_L2C TOTAL     ACCESS:     656533  HIT:     334848  MISS:     321685
cpu0_L2C LOAD      ACCESS:     369951  HIT:     137125  MISS:     232826
cpu0_L2C RFO       ACCESS:      97515  HIT:       9041  MISS:      88474
cpu0_L2C PREFETCH  ACCESS:          0  HIT:          0  MISS:          0
cpu0_L2C WRITEBACK ACCESS:     188765  HIT:     188422  MISS:        343
LLC TOTAL     ACCESS:     491853  HIT:     142331  MISS:     349522
LLC LOAD      ACCESS:     232826  HIT:      51190  MISS:     181636
LLC RFO       ACCESS:      88474  HIT:       6678  MISS:      81796
LLC PREFETCH  ACCESS:          0  HIT:          0  MISS:          0
LLC WRITEBACK ACCESS:     170511  HIT:      84460  MISS:      86051
Heartbeat CPU 0 instructions: 84000002 cycles: 44490870 heartbeat IPC: 1.69266 cumulative IPC: 1.22112 (Simulation time: 1 hr 14 min 6 sec) 

Region of Interest Statistics
cpu0_DTLB TOTAL     ACCESS:    8541879  HIT:    8523770  MISS:      18109
cpu0_DTLB LOAD      ACCESS:    7680572  HIT:    7667969  MISS:      12603
cpu0_DTLB RFO       ACCESS:     861307  HIT:     855801  MISS:       5506
cpu0_DTLB PREFETCH  ACCESS:          0  HIT:          0  MISS:          0
cpu0_DTLB WRITEBACK ACCESS:          0  HIT:          0  MISS:          0
cpu0_ITLB TOTAL     ACCESS:     923034  HIT:     923033  MISS:          1
cpu0_ITLB LOAD      ACCESS:     923034  HIT:     923033  MISS:          1
cpu0_ITLB RFO       ACCESS:          0  HIT:          0  MISS:          0
cpu0_ITLB PREFETCH  ACCESS:          0  HIT:          0  MISS:          0
cpu0_ITLB WRITEBACK ACCESS:          0  HIT:          0  MISS:          0
cpu0_L1I TOTAL     ACCESS:     252038  HIT:     251213  MISS:        825
cpu0_L1I LOAD      ACCESS:     252038  HIT:     251213  MISS:        825
cpu0_L1I RFO       ACCESS:          0  HIT:          0  MISS:          0
cpu0_L1I PREFETCH  ACCESS:          0  HIT:          0  MISS:          0
cpu0_L1I WRITEBACK ACCESS:          0  HIT:          0  MISS:          0
cpu0_STLB TOTAL     ACCESS:      18110  HIT:      16413  MISS:       1697
cpu0_STLB LOAD      ACCESS:      12604  HIT:      11577  MISS:       1027
cpu0_STLB RFO       ACCESS:       5506  HIT:       4836  MISS:        670
cpu0_STLB PREFETCH  ACCESS:          0  HIT:          0  MISS:          0
cpu0_STLB WRITEBACK ACCESS:          0  HIT:          0  MISS:          0
cpu0_L1D TOTAL     ACCESS:    7514234  HIT:    7035734  MISS:     478500
cpu0_L1D LOAD      ACCESS:    6361882  HIT:    5981333  MISS:     380549
cpu0_L1D RFO       ACCESS:    1150666  HIT:    1053021  MISS:      97645
cpu0_L1D PREFETCH  ACCESS:          0  HIT:          0  MISS:          0
cpu0_L1D WRITEBACK ACCESS:          0  HIT:          0  MISS:          0
cpu0_L2C TOTAL     ACCESS:     671844  HIT:     338571  MISS:     333273
cpu0_L2C LOAD      ACCESS:     381285  HIT:     137134  MISS:     244151
cpu0_L2C RFO       ACCESS:      97645  HIT:       9041  MISS:      88604
cpu0_L2C PREFETCH  ACCESS:          0  HIT:          0  MISS:          0
cpu0_L2C WRITEBACK ACCESS:     192608  HIT:     192135  MISS:        473
LLC TOTAL     ACCESS:     507383  HIT:     149202  MISS:     358181
LLC LOAD      ACCESS:     244151  HIT:      54529  MISS:     189622
LLC RFO       ACCESS:      88604  HIT:       6678  MISS:      81926
LLC PREFETCH  ACCESS:          0  HIT:          0  MISS:          0
LLC WRITEBACK ACCESS:     174583  HIT:      87992  MISS:      86591
Heartbeat CPU 0 instructions: 86000001 cycles: 45666170 heartbeat IPC: 1.70169 cumulative IPC: 1.24059 (Simulation time: 1 hr 15 min 59 sec) 

Region of Interest Statistics
cpu0_DTLB TOTAL     ACCESS:    8972277  HIT:    8953971  MISS:      18306
cpu0_DTLB LOAD      ACCESS:    8080284  HIT:    8067484  MISS:      12800
cpu0_DTLB RFO       ACCESS:     891993  HIT:     886487  MISS:       5506
cpu0_DTLB PREFETCH  ACCESS:          0  HIT:          0  MISS:          0
cpu0_DTLB WRITEBACK ACCESS:          0  HIT:          0  MISS:          0
cpu0_ITLB TOTAL     ACCESS:     962411  HIT:     962410  MISS:          1
cpu0_ITLB LOAD      ACCESS:     962411  HIT:     962410  MISS:          1
cpu0_ITLB RFO       ACCESS:          0  HIT:          0  MISS:          0
cpu0_ITLB PREFETCH  ACCESS:          0  HIT:          0  MISS:          0
cpu0_ITLB WRITEBACK ACCESS:          0  HIT:          0  MISS:          0
cpu0_L1I TOTAL     ACCESS:     252934  HIT:     252109  MISS:        825
cpu0_L1I LOAD      ACCESS:     252934  HIT:     252109  MISS:        825
cpu0_L1I RFO       ACCESS:          0  HIT:          0  MISS:          0
cpu0_L1I PREFETCH  ACCESS:          0  HIT:          0  MISS:          0
cpu0_L1I WRITEBACK ACCESS:          0  HIT:          0  MISS:          0
cpu0_STLB TOTAL     ACCESS:      18307  HIT:      16554  MISS:       1753
cpu0_STLB LOAD      ACCESS:      12801  HIT:      11718  MISS:       1083
cpu0_STLB RFO       ACCESS:       5506  HIT:       4836  MISS:        670
cpu0_STLB PREFETCH  ACCESS:          0  HIT:          0  MISS:          0
cpu0_STLB WRITEBACK ACCESS:          0  HIT:          0  MISS:          0
cpu0_L1D TOTAL     ACCESS:    7979822  HIT:    7489347  MISS:     490475
cpu0_L1D LOAD      ACCESS:    6758546  HIT:    6366024  MISS:     392522
cpu0_L1D RFO       ACCESS:    1219534  HIT:    1121889  MISS:      97645
cpu0_L1D PREFETCH  ACCESS:          0  HIT:          0  MISS:          0
cpu0_L1D WRITEBACK ACCESS:          0  HIT:          0  MISS:          0
cpu0_L2C TOTAL     ACCESS:     687915  HIT:     342676  MISS:     345239
cpu0_L2C LOAD      ACCESS:     393258  HIT:     137142  MISS:     256116
cpu0_L2C RFO       ACCESS:      97645  HIT:       9041  MISS:      88604
cpu0_L2C PREFETCH  ACCESS:          0  HIT:          0  MISS:          0
cpu0_L2C WRITEBACK ACCESS:     196704  HIT:     196231  MISS:        473
LLC TOTAL     ACCESS:     523471  HIT:     156433  MISS:     367038
LLC LOAD      ACCESS:     256116  HIT:      57961  MISS:     198155
LLC RFO       ACCESS:      88604  HIT:       6678  MISS:      81926
LLC PREFETCH  ACCESS:          0  HIT:          0  MISS:          0
LLC WRITEBACK ACCESS:     178705  HIT:      91791  MISS:      86914
Heartbeat CPU 0 instructions: 88000004 cycles: 47183166 heartbeat IPC: 1.3184 cumulative IPC: 1.24445 (Simulation time: 1 hr 18 min 11 sec) 

Region of Interest Statistics
cpu0_DTLB TOTAL     ACCESS:    9456244  HIT:    9437682  MISS:      18562
cpu0_DTLB LOAD      ACCESS:    8533606  HIT:    8520552  MISS:      13054
cpu0_DTLB RFO       ACCESS:     922638  HIT:     917130  MISS:       5508
cpu0_DTLB PREFETCH  ACCESS:          0  HIT:          0  MISS:          0
cpu0_DTLB WRITEBACK ACCESS:          0  HIT:          0  MISS:          0
cpu0_ITLB TOTAL     ACCESS:    1003831  HIT:    1003830  MISS:          1
cpu0_ITLB LOAD      ACCESS:    1003831  HIT:    1003830  MISS:          1
cpu0_ITLB RFO       ACCESS:          0  HIT:          0  MISS:          0
cpu0_ITLB PREFETCH  ACCESS:          0  HIT:          0  MISS:          0
cpu0_ITLB WRITEBACK ACCESS:          0  HIT:          0  MISS:          0
cpu0_L1I TOTAL     ACCESS:     310240  HIT:     309353  MISS:        887
cpu0_L1I LOAD      ACCESS:     310240  HIT:     309353  MISS:        887
cpu0_L1I RFO       ACCESS:          0  HIT:          0  MISS:          0
cpu0_L1I PREFETCH  ACCESS:          0  HIT:          0  MISS:          0
cpu0_L1I WRITEBACK ACCESS:          0  HIT:          0  MISS:          0
cpu0_STLB TOTAL     ACCESS:      18563  HIT:      16688  MISS:       1875
cpu0_STLB LOAD      ACCESS:      13055  HIT:      11850  MISS:       1205
cpu0_STLB RFO       ACCESS:       5508  HIT:       4838  MISS:        670
cpu0_STLB PREFETCH  ACCESS:          0  HIT:          0  MISS:          0
cpu0_STLB WRITEBACK ACCESS:          0  HIT:          0  MISS:          0
cpu0_L1D TOTAL     ACCESS:    8456398  HIT:    7943442  MISS:     512956
cpu0_L1D LOAD      ACCESS:    7180332  HIT:    6765354  MISS:     414978
cpu0_L1D RFO       ACCESS:    1274205  HIT:    1176546  MISS:      97659
cpu0_L1D PREFETCH  ACCESS:          0  HIT:          0  MISS:          0
cpu0_L1D WRITEBACK ACCESS:          0  HIT:          0  MISS:          0
cpu0_L2C TOTAL     ACCESS:     714949  HIT:     355690  MISS:     359259
cpu0_L2C LOAD      ACCESS:     415776  HIT:     145797  MISS:     269979
cpu0_L2C RFO       ACCESS:      97659  HIT:       9041  MISS:      88618
cpu0_L2C PREFETCH  ACCESS:          0  HIT:          0  MISS:          0
cpu0_L2C WRITEBACK ACCESS:     201195  HIT:     200584  MISS:        611
LLC TOTAL     ACCESS:     542108  HIT:     162276  MISS:     379832
LLC LOAD      ACCESS:     269979  HIT:      59637  MISS:     210342
LLC RFO       ACCESS:      88618  HIT:       6678  MISS:      81940
LLC PREFETCH  ACCESS:          0  HIT:          0  MISS:          0
LLC WRITEBACK ACCESS:     183460  HIT:      95958  MISS:      87502
Heartbeat CPU 0 instructions: 90000004 cycles: 49143208 heartbeat IPC: 1.02039 cumulative IPC: 1.23094 (Simulation time: 1 hr 20 min 52 sec) 

Region of Interest Statistics
cpu0_DTLB TOTAL     ACCESS:    9988228  HIT:    9969432  MISS:      18796
cpu0_DTLB LOAD      ACCESS:    9035408  HIT:    9022120  MISS:      13288
cpu0_DTLB RFO       ACCESS:     952820  HIT:     947312  MISS:       5508
cpu0_DTLB PREFETCH  ACCESS:          0  HIT:          0  MISS:          0
cpu0_DTLB WRITEBACK ACCESS:          0  HIT:          0  MISS:          0
cpu0_ITLB TOTAL     ACCESS:    1045859  HIT:    1045858  MISS:          1
cpu0_ITLB LOAD      ACCESS:    1045859  HIT:    1045858  MISS:          1
cpu0_ITLB RFO       ACCESS:          0  HIT:          0  MISS:          0
cpu0_ITLB PREFETCH  ACCESS:          0  HIT:          0  MISS:          0
cpu0_ITLB WRITEBACK ACCESS:          0  HIT:          0  MISS:          0
cpu0_L1I TOTAL     ACCESS:     415934  HIT:     415047  MISS:        887
cpu0_L1I LOAD      ACCESS:     415934  HIT:     415047  MISS:        887
cpu0_L1I RFO       ACCESS:          0  HIT:          0  MISS:          0
cpu0_L1I PREFETCH  ACCESS:          0  HIT:          0  MISS:          0
cpu0_L1I WRITEBACK ACCESS:          0  HIT:          0  MISS:          0
cpu0_STLB TOTAL     ACCESS:      18797  HIT:      16769  MISS:       2028
cpu0_STLB LOAD      ACCESS:      13289  HIT:      11931  MISS:       1358
cpu0_STLB RFO       ACCESS:       5508  HIT:       4838  MISS:        670
cpu0_STLB PREFETCH  ACCESS:          0  HIT:          0  MISS:          0
cpu0_STLB WRITEBACK ACCESS:          0  HIT:          0  MISS:          0
cpu0_L1D TOTAL     ACCESS:    8945417  HIT:    8401335  MISS:     544082
cpu0_L1D LOAD      ACCESS:    7627720  HIT:    7181631  MISS:     446089
cpu0_L1D RFO       ACCESS:    1315683  HIT:    1218024  MISS:      97659
cpu0_L1D PREFETCH  ACCESS:          0  HIT:          0  MISS:          0
cpu0_L1D WRITEBACK ACCESS:          0  HIT:          0  MISS:          0
cpu0_L2C TOTAL     ACCESS:     750389  HIT:     377205  MISS:     373184
cpu0_L2C LOAD      ACCESS:     446887  HIT:     162983  MISS:     283904
cpu0_L2C RFO       ACCESS:      97659  HIT:       9041  MISS:      88618
cpu0_L2C PREFETCH  ACCESS:          0  HIT:          0  MISS:          0
cpu0_L2C WRITEBACK ACCESS:     205509  HIT:     204898  MISS:        611
LLC TOTAL     ACCESS:     560297  HIT:     165173  MISS:     395124
LLC LOAD      ACCESS:     283904  HIT:      59637  MISS:     224267
LLC RFO       ACCESS:      88618  HIT:       6678  MISS:      81940
LLC PREFETCH  ACCESS:          0  HIT:          0  MISS:          0
LLC WRITEBACK ACCESS:     187724  HIT:      98855  MISS:      88869
Heartbeat CPU 0 instructions: 92000000 cycles: 51322724 heartbeat IPC: 0.917633 cumulative IPC: 1.21125 (Simulation time: 1 hr 23 min 46 sec) 

Region of Interest Statistics
cpu0_DTLB TOTAL     ACCESS:   10440067  HIT:   10420378  MISS:      19689
cpu0_DTLB LOAD      ACCESS:    9409824  HIT:    9395931  MISS:      13893
cpu0_DTLB RFO       ACCESS:    1030243  HIT:    1024447  MISS:       5796
cpu0_DTLB PREFETCH  ACCESS:          0  HIT:          0  MISS:          0
cpu0_DTLB WRITEBACK ACCESS:          0  HIT:          0  MISS:          0
cpu0_ITLB TOTAL     ACCESS:    1180874  HIT:    1180873  MISS:          1
cpu0_ITLB LOAD      ACCESS:    1180874  HIT:    1180873  MISS:          1
cpu0_ITLB RFO       ACCESS:          0  HIT:          0  MISS:          0
cpu0_ITLB PREFETCH  ACCESS:          0  HIT:          0  MISS:          0
cpu0_ITLB WRITEBACK ACCESS:          0  HIT:          0  MISS:          0
cpu0_L1I TOTAL     ACCESS:     458769  HIT:     457770  MISS:        999
cpu0_L1I LOAD      ACCESS:     458769  HIT:     457770  MISS:        999
cpu0_L1I RFO       ACCESS:          0  HIT:          0  MISS:          0
cpu0_L1I PREFETCH  ACCESS:          0  HIT:          0  MISS:          0
cpu0_L1I WRITEBACK ACCESS:          0  HIT:          0  MISS:          0
cpu0_STLB TOTAL     ACCESS:      19690  HIT:      17476  MISS:       2214
cpu0_STLB LOAD      ACCESS:      13894  HIT:      12464  MISS:       1430
cpu0_STLB RFO       ACCESS:       5796  HIT:       5012  MISS:        784
cpu0_STLB PREFETCH  ACCESS:          0  HIT:          0  MISS:          0
cpu0_STLB WRITEBACK ACCESS:          0  HIT:          0  MISS:          0
cpu0_L1D TOTAL     ACCESS:    9349599  HIT:    8746543  MISS:     603056
cpu0_L1D LOAD      ACCESS:    7917709  HIT:    7429929  MISS:     487780
cpu0_L1D RFO       ACCESS:    1429693  HIT:    1314768  MISS:     114925
cpu0_L1D PREFETCH  ACCESS:          0  HIT:          0  MISS:          0
cpu0_L1D WRITEBACK ACCESS:          0  HIT:          0  MISS:          0
cpu0_L2C TOTAL     ACCESS:     838007  HIT:     413862  MISS:     424145
cpu0_L2C LOAD      ACCESS:     488690  HIT:     169968  MISS:     318722
cpu0_L2C RFO       ACCESS:     114925  HIT:      10183  MISS:     104742
cpu0_L2C PREFETCH  ACCESS:          0  HIT:          0  MISS:          0
cpu0_L2C WRITEBACK ACCESS:     234041  HIT:     233418  MISS:        623
LLC TOTAL     ACCESS:     636015  HIT:     202886  MISS:     433129
LLC LOAD      ACCESS:     318722  HIT:      71320  MISS:     247402
LLC RFO       ACCESS:     104742  HIT:      12097  MISS:      92645
LLC PREFETCH  ACCESS:          0  HIT:          0  MISS:          0
LLC WRITEBACK ACCESS:     212493  HIT:     119466  MISS:      93027
Heartbeat CPU 0 instructions: 94000003 cycles: 55869713 heartbeat IPC: 0.439852 cumulative IPC: 1.12182 (Simulation time: 1 hr 28 min 23 sec) 

Region of Interest Statistics
cpu0_DTLB TOTAL     ACCESS:   10983309  HIT:   10956370  MISS:      26939
cpu0_DTLB LOAD      ACCESS:    9837713  HIT:    9819004  MISS:      18709
cpu0_DTLB RFO       ACCESS:    1145596  HIT:    1137366  MISS:       8230
cpu0_DTLB PREFETCH  ACCESS:          0  HIT:          0  MISS:          0
cpu0_DTLB WRITEBACK ACCESS:          0  HIT:          0  MISS:          0
cpu0_ITLB TOTAL     ACCESS:    1272849  HIT:    1272848  MISS:          1
cpu0_ITLB LOAD      ACCESS:    1272849  HIT:    1272848  MISS:          1
cpu0_ITLB RFO       ACCESS:          0  HIT:          0  MISS:          0
cpu0_ITLB PREFETCH  ACCESS:          0  HIT:          0  MISS:          0
cpu0_ITLB WRITEBACK ACCESS:          0  HIT:          0  MISS:          0
cpu0_L1I TOTAL     ACCESS:     473993  HIT:     472783  MISS:       1210
cpu0_L1I LOAD      ACCESS:     473993  HIT:     472783  MISS:       1210
cpu0_L1I RFO       ACCESS:          0  HIT:          0  MISS:          0
cpu0_L1I PREFETCH  ACCESS:          0  HIT:          0  MISS:          0
cpu0_L1I WRITEBACK ACCESS:          0  HIT:          0  MISS:          0
cpu0_STLB TOTAL     ACCESS:      26940  HIT:      24396  MISS:       2544
cpu0_STLB LOAD      ACCESS:      18710  HIT:      17197  MISS:       1513
cpu0_STLB RFO       ACCESS:       8230  HIT:       7199  MISS:       1031
cpu0_STLB PREFETCH  ACCESS:          0  HIT:          0  MISS:          0
cpu0_STLB WRITEBACK ACCESS:          0  HIT:          0  MISS:          0
cpu0_L1D TOTAL     ACCESS:    9789904  HIT:    9116877  MISS:     673027
cpu0_L1D LOAD      ACCESS:    8259449  HIT:    7737779  MISS:     521670
cpu0_L1D RFO       ACCESS:    1527930  HIT:    1376969  MISS:     150961
cpu0_L1D PREFETCH  ACCESS:          0  HIT:          0  MISS:          0
cpu0_L1D WRITEBACK ACCESS:          0  HIT:          0  MISS:          0
cpu0_L2C TOTAL     ACCESS:     954592  HIT:     473139  MISS:     481453
cpu0_L2C LOAD      ACCESS:     522779  HIT:     181539  MISS:     341240
cpu0_L2C RFO       ACCESS:     150960  HIT:      11465  MISS:     139495
cpu0_L2C PREFETCH  ACCESS:          0  HIT:          0  MISS:          0
cpu0_L2C WRITEBACK ACCESS:     280457  HIT:     279807  MISS:        650
LLC TOTAL     ACCESS:     737805  HIT:     216047  MISS:     521758
LLC LOAD      ACCESS:     341240  HIT:      75726  MISS:     265514
LLC RFO       ACCESS:     139495  HIT:      12796  MISS:     126699
LLC PREFETCH  ACCESS:          0  HIT:          0  MISS:          0
LLC WRITEBACK ACCESS:     257002  HIT:     127522  MISS:     129480
Heartbeat CPU 0 instructions: 96000002 cycles: 57005231 heartbeat IPC: 1.76131 cumulative IPC: 1.13981 (Simulation time: 1 hr 30 min 23 sec) 

Region of Interest Statistics
cpu0_DTLB TOTAL     ACCESS:   11591613  HIT:   11564493  MISS:      27120
cpu0_DTLB LOAD      ACCESS:   10409256  HIT:   10390366  MISS:      18890
cpu0_DTLB RFO       ACCESS:    1182357  HIT:    1174127  MISS:       8230
cpu0_DTLB PREFETCH  ACCESS:          0  HIT:          0  MISS:          0
cpu0_DTLB WRITEBACK ACCESS:          0  HIT:          0  MISS:          0
cpu0_ITLB TOTAL     ACCESS:    1305846  HIT:    1305845  MISS:          1
cpu0_ITLB LOAD      ACCESS:    1305846  HIT:    1305845  MISS:          1
cpu0_ITLB RFO       ACCESS:          0  HIT:          0  MISS:          0
cpu0_ITLB PREFETCH  ACCESS:          0  HIT:          0  MISS:          0
cpu0_ITLB WRITEBACK ACCESS:          0  HIT:          0  MISS:          0
cpu0_L1I TOTAL     ACCESS:     474700  HIT:     473490  MISS:       1210
cpu0_L1I LOAD      ACCESS:     474700  HIT:     473490  MISS:       1210
cpu0_L1I RFO       ACCESS:          0  HIT:          0  MISS:          0
cpu0_L1I PREFETCH  ACCESS:          0  HIT:          0  MISS:          0
cpu0_L1I WRITEBACK ACCESS:          0  HIT:          0  MISS:          0
cpu0_STLB TOTAL     ACCESS:      27121  HIT:      24484  MISS:       2637
cpu0_STLB LOAD      ACCESS:      18891  HIT:      17285  MISS:       1606
cpu0_STLB RFO       ACCESS:       8230  HIT:       7199  MISS:       1031
cpu0_STLB PREFETCH  ACCESS:          0  HIT:          0  MISS:          0
cpu0_STLB WRITEBACK ACCESS:          0  HIT:          0  MISS:          0
cpu0_L1D TOTAL     ACCESS:   10326934  HIT:    9623610  MISS:     703324
cpu0_L1D LOAD      ACCESS:    8742667  HIT:    8192029  MISS:     550638
cpu0_L1D RFO       ACCESS:    1581649  HIT:    1429400  MISS:     152249
cpu0_L1D PREFETCH  ACCESS:          0  HIT:          0  MISS:          0
cpu0_L1D WRITEBACK ACCESS:          0  HIT:          0  MISS:          0
cpu0_L2C TOTAL     ACCESS:     990661  HIT:     499849  MISS:     490812
cpu0_L2C LOAD      ACCESS:     551729  HIT:     201132  MISS:     350597
cpu0_L2C RFO       ACCESS:     152248  HIT:      12753  MISS:     139495
cpu0_L2C PREFETCH  ACCESS:          0  HIT:          0  MISS:          0
cpu0_L2C WRITEBACK ACCESS:     286247  HIT:     285597  MISS:        650
LLC TOTAL     ACCESS:     751210  HIT:     217957  MISS:     533253
LLC LOAD      ACCESS:     350597  HIT:      75770  MISS:     274827
LLC RFO       ACCESS:     139495  HIT:      12796  MISS:     126699
LLC PREFETCH  ACCESS:          0  HIT:          0  MISS:          0
LLC WRITEBACK ACCESS:     261048  HIT:     129386  MISS:     131662
Heartbeat CPU 0 instructions: 98000000 cycles: 58083998 heartbeat IPC: 1.85397 cumulative IPC: 1.1584 (Simulation time: 1 hr 32 min 17 sec) 

Region of Interest Statistics
cpu0_DTLB TOTAL     ACCESS:   12200510  HIT:   12173221  MISS:      27289
cpu0_DTLB LOAD      ACCESS:   10981383  HIT:   10962324  MISS:      19059
cpu0_DTLB RFO       ACCESS:    1219127  HIT:    1210897  MISS:       8230
cpu0_DTLB PREFETCH  ACCESS:          0  HIT:          0  MISS:          0
cpu0_DTLB WRITEBACK ACCESS:          0  HIT:          0  MISS:          0
cpu0_ITLB TOTAL     ACCESS:    1338702  HIT:    1338701  MISS:          1
cpu0_ITLB LOAD      ACCESS:    1338702  HIT:    1338701  MISS:          1
cpu0_ITLB RFO       ACCESS:          0  HIT:          0  MISS:          0
cpu0_ITLB PREFETCH  ACCESS:          0  HIT:          0  MISS:          0
cpu0_ITLB WRITEBACK ACCESS:          0  HIT:          0  MISS:          0
cpu0_L1I TOTAL     ACCESS:     475373  HIT:     474163  MISS:       1210
cpu0_L1I LOAD      ACCESS:     475373  HIT:     474163  MISS:       1210
cpu0_L1I RFO       ACCESS:          0  HIT:          0  MISS:          0
cpu0_L1I PREFETCH  ACCESS:          0  HIT:          0  MISS:          0
cpu0_L1I WRITEBACK ACCESS:          0  HIT:          0  MISS:          0
cpu0_STLB TOTAL     ACCESS:      27290  HIT:      24561  MISS:       2729
cpu0_STLB LOAD      ACCESS:      19060  HIT:      17362  MISS:       1698
cpu0_STLB RFO       ACCESS:       8230  HIT:       7199  MISS:       1031
cpu0_STLB PREFETCH  ACCESS:          0  HIT:          0  MISS:          0
cpu0_STLB WRITEBACK ACCESS:          0  HIT:          0  MISS:          0
cpu0_L1D TOTAL     ACCESS:   10864430  HIT:   10131048  MISS:     733382
cpu0_L1D LOAD      ACCESS:    9226695  HIT:    8647333  MISS:     579362
cpu0_L1D RFO       ACCESS:    1635025  HIT:    1481484  MISS:     153541
cpu0_L1D PREFETCH  ACCESS:          0  HIT:          0  MISS:          0
cpu0_L1D WRITEBACK ACCESS:          0  HIT:          0  MISS:          0
cpu0_L2C TOTAL     ACCESS:    1026713  HIT:     526643  MISS:     500070
cpu0_L2C LOAD      ACCESS:     580433  HIT:     220578  MISS:     359855
cpu0_L2C RFO       ACCESS:     153540  HIT:      14045  MISS:     139495
cpu0_L2C PREFETCH  ACCESS:          0  HIT:          0  MISS:          0
cpu0_L2C WRITEBACK ACCESS:     292261  HIT:     291611  MISS:        650
LLC TOTAL     ACCESS:     763747  HIT:     221134  MISS:     542613
LLC LOAD      ACCESS:     359855  HIT:      75787  MISS:     284068
LLC RFO       ACCESS:     139495  HIT:      12796  MISS:     126699
LLC PREFETCH  ACCESS:          0  HIT:          0  MISS:          0
LLC WRITEBACK ACCESS:     264327  HIT:     132546  MISS:     131781
Heartbeat CPU 0 instructions: 100000002 cycles: 59301962 heartbeat IPC: 1.64209 cumulative IPC: 1.17222 (Simulation time: 1 hr 34 min 1 sec) 

Region of Interest Statistics
cpu0_DTLB TOTAL     ACCESS:   12654445  HIT:   12626979  MISS:      27466
cpu0_DTLB LOAD      ACCESS:   11391173  HIT:   11371940  MISS:      19233
cpu0_DTLB RFO       ACCESS:    1263272  HIT:    1255039  MISS:       8233
cpu0_DTLB PREFETCH  ACCESS:          0  HIT:          0  MISS:          0
cpu0_DTLB WRITEBACK ACCESS:          0  HIT:          0  MISS:          0
cpu0_ITLB TOTAL     ACCESS:    1384191  HIT:    1384190  MISS:          1
cpu0_ITLB LOAD      ACCESS:    1384191  HIT:    1384190  MISS:          1
cpu0_ITLB RFO       ACCESS:          0  HIT:          0  MISS:          0
cpu0_ITLB PREFETCH  ACCESS:          0  HIT:          0  MISS:          0
cpu0_ITLB WRITEBACK ACCESS:          0  HIT:          0  MISS:          0
cpu0_L1I TOTAL     ACCESS:     476766  HIT:     475499  MISS:       1267
cpu0_L1I LOAD      ACCESS:     476766  HIT:     475499  MISS:       1267
cpu0_L1I RFO       ACCESS:          0  HIT:          0  MISS:          0
cpu0_L1I PREFETCH  ACCESS:          0  HIT:          0  MISS:          0
cpu0_L1I WRITEBACK ACCESS:          0  HIT:          0  MISS:          0
cpu0_STLB TOTAL     ACCESS:      27467  HIT:      24731  MISS:       2736
cpu0_STLB LOAD      ACCESS:      19234  HIT:      17530  MISS:       1704
cpu0_STLB RFO       ACCESS:       8233  HIT:       7201  MISS:       1032
cpu0_STLB PREFETCH  ACCESS:          0  HIT:          0  MISS:          0
cpu0_STLB WRITEBACK ACCESS:          0  HIT:          0  MISS:          0
cpu0_L1D TOTAL     ACCESS:   11224422  HIT:   10479597  MISS:     744825
cpu0_L1D LOAD      ACCESS:    9529624  HIT:    8938990  MISS:     590634
cpu0_L1D RFO       ACCESS:    1692081  HIT:    1538371  MISS:     153710
cpu0_L1D PREFETCH  ACCESS:          0  HIT:          0  MISS:          0
cpu0_L1D WRITEBACK ACCESS:          0  HIT:          0  MISS:          0
cpu0_L2C TOTAL     ACCESS:    1041725  HIT:     531571  MISS:     510154
cpu0_L2C LOAD      ACCESS:     591760  HIT:     221952  MISS:     369808
cpu0_L2C RFO       ACCESS:     153709  HIT:      14087  MISS:     139622
cpu0_L2C PREFETCH  ACCESS:          0  HIT:          0  MISS:          0
cpu0_L2C WRITEBACK ACCESS:     295775  HIT:     295122  MISS:        653
LLC TOTAL     ACCESS:     777174  HIT:     226330  MISS:     550844
LLC LOAD      ACCESS:     369808  HIT:      78299  MISS:     291509
LLC RFO       ACCESS:     139622  HIT:      12796  MISS:     126826
LLC PREFETCH  ACCESS:          0  HIT:          0  MISS:          0
LLC WRITEBACK ACCESS:     267673  HIT:     135230  MISS:     132443
Heartbeat CPU 0 instructions: 102000004 cycles: 60517423 heartbeat IPC: 1.64547 cumulative IPC: 1.18533 (Simulation time: 1 hr 35 min 43 sec) 

Region of Interest Statistics
cpu0_DTLB TOTAL     ACCESS:   13100964  HIT:   13073339  MISS:      27625
cpu0_DTLB LOAD      ACCESS:   11793255  HIT:   11773863  MISS:      19392
cpu0_DTLB RFO       ACCESS:    1307709  HIT:    1299476  MISS:       8233
cpu0_DTLB PREFETCH  ACCESS:          0  HIT:          0  MISS:          0
cpu0_DTLB WRITEBACK ACCESS:          0  HIT:          0  MISS:          0
cpu0_ITLB TOTAL     ACCESS:    1427906  HIT:    1427905  MISS:          1
cpu0_ITLB LOAD      ACCESS:    1427906  HIT:    1427905  MISS:          1
cpu0_ITLB RFO       ACCESS:          0  HIT:          0  MISS:          0
cpu0_ITLB PREFETCH  ACCESS:          0  HIT:          0  MISS:          0
cpu0_ITLB WRITEBACK ACCESS:          0  HIT:          0  MISS:          0
cpu0_L1I TOTAL     ACCESS:     478086  HIT:     476819  MISS:       1267
cpu0_L1I LOAD      ACCESS:     478086  HIT:     476819  MISS:       1267
cpu0_L1I RFO       ACCESS:          0  HIT:          0  MISS:          0
cpu0_L1I PREFETCH  ACCESS:          0  HIT:          0  MISS:          0
cpu0_L1I WRITEBACK ACCESS:          0  HIT:          0  MISS:          0
cpu0_STLB TOTAL     ACCESS:      27626  HIT:      24890  MISS:       2736
cpu0_STLB LOAD      ACCESS:      19393  HIT:      17689  MISS:       1704
cpu0_STLB RFO       ACCESS:       8233  HIT:       7201  MISS:       1032
cpu0_STLB PREFETCH  ACCESS:          0  HIT:          0  MISS:          0
cpu0_STLB WRITEBACK ACCESS:          0  HIT:          0  MISS:          0
cpu0_L1D TOTAL     ACCESS:   11578468  HIT:   10823993  MISS:     754475
cpu0_L1D LOAD      ACCESS:    9827109  HIT:    9226825  MISS:     600284
cpu0_L1D RFO       ACCESS:    1748642  HIT:    1594932  MISS:     153710
cpu0_L1D PREFETCH  ACCESS:          0  HIT:          0  MISS:          0
cpu0_L1D WRITEBACK ACCESS:          0  HIT:          0  MISS:          0
cpu0_L2C TOTAL     ACCESS:    1054583  HIT:     534789  MISS:     519794
cpu0_L2C LOAD      ACCESS:     601410  HIT:     221962  MISS:     379448
cpu0_L2C RFO       ACCESS:     153709  HIT:      14087  MISS:     139622
cpu0_L2C PREFETCH  ACCESS:          0  HIT:          0  MISS:          0
cpu0_L2C WRITEBACK ACCESS:     298983  HIT:     298330  MISS:        653
LLC TOTAL     ACCESS:     789980  HIT:     232130  MISS:     557850
LLC LOAD      ACCESS:     379448  HIT:      80976  MISS:     298472
LLC RFO       ACCESS:     139622  HIT:      12796  MISS:     126826
LLC PREFETCH  ACCESS:          0  HIT:          0  MISS:          0
LLC WRITEBACK ACCESS:     270839  HIT:     138353  MISS:     132486
Heartbeat CPU 0 instructions: 104000003 cycles: 61727119 heartbeat IPC: 1.65331 cumulative IPC: 1.19789 (Simulation time: 1 hr 37 min 32 sec) 

Region of Interest Statistics
cpu0_DTLB TOTAL     ACCESS:   13543860  HIT:   13516051  MISS:      27809
cpu0_DTLB LOAD      ACCESS:   12195364  HIT:   12175791  MISS:      19573
cpu0_DTLB RFO       ACCESS:    1348496  HIT:    1340260  MISS:       8236
cpu0_DTLB PREFETCH  ACCESS:          0  HIT:          0  MISS:          0
cpu0_DTLB WRITEBACK ACCESS:          0  HIT:          0  MISS:          0
cpu0_ITLB TOTAL     ACCESS:    1471008  HIT:    1471007  MISS:          1
cpu0_ITLB LOAD      ACCESS:    1471008  HIT:    1471007  MISS:          1
cpu0_ITLB RFO       ACCESS:          0  HIT:          0  MISS:          0
cpu0_ITLB PREFETCH  ACCESS:          0  HIT:          0  MISS:          0
cpu0_ITLB WRITEBACK ACCESS:          0  HIT:          0  MISS:          0
cpu0_L1I TOTAL     ACCESS:     479391  HIT:     478085  MISS:       1306
cpu0_L1I LOAD      ACCESS:     479391  HIT:     478085  MISS:       1306
cpu0_L1I RFO       ACCESS:          0  HIT:          0  MISS:          0
cpu0_L1I PREFETCH  ACCESS:          0  HIT:          0  MISS:          0
cpu0_L1I WRITEBACK ACCESS:          0  HIT:          0  MISS:          0
cpu0_STLB TOTAL     ACCESS:      27810  HIT:      25048  MISS:       2762
cpu0_STLB LOAD      ACCESS:      19574  HIT:      17845  MISS:       1729
cpu0_STLB RFO       ACCESS:       8236  HIT:       7203  MISS:       1033
cpu0_STLB PREFETCH  ACCESS:          0  HIT:          0  MISS:          0
cpu0_STLB WRITEBACK ACCESS:          0  HIT:          0  MISS:          0
cpu0_L1D TOTAL     ACCESS:   11963330  HIT:   11198340  MISS:     764990
cpu0_L1D LOAD      ACCESS:   10152557  HIT:    9541891  MISS:     610666
cpu0_L1D RFO       ACCESS:    1808031  HIT:    1654191  MISS:     153840
cpu0_L1D PREFETCH  ACCESS:          0  HIT:          0  MISS:          0
cpu0_L1D WRITEBACK ACCESS:          0  HIT:          0  MISS:          0
cpu0_L2C TOTAL     ACCESS:    1068685  HIT:     538218  MISS:     530467
cpu0_L2C LOAD      ACCESS:     611831  HIT:     221974  MISS:     389857
cpu0_L2C RFO       ACCESS:     153839  HIT:      14087  MISS:     139752
cpu0_L2C PREFETCH  ACCESS:          0  HIT:          0  MISS:          0
cpu0_L2C WRITEBACK ACCESS:     302531  HIT:     301747  MISS:        784
LLC TOTAL     ACCESS:     804038  HIT:     237997  MISS:     566041
LLC LOAD      ACCESS:     389857  HIT:      83669  MISS:     306188
LLC RFO       ACCESS:     139752  HIT:      12796  MISS:     126956
LLC PREFETCH  ACCESS:          0  HIT:          0  MISS:          0
LLC WRITEBACK ACCESS:     274355  HIT:     141527  MISS:     132828
Heartbeat CPU 0 instructions: 106000003 cycles: 62882915 heartbeat IPC: 1.73041 cumulative IPC: 1.2112 (Simulation time: 1 hr 39 min 33 sec) 

Region of Interest Statistics
cpu0_DTLB TOTAL     ACCESS:   13975281  HIT:   13947275  MISS:      28006
cpu0_DTLB LOAD      ACCESS:   12596088  HIT:   12576318  MISS:      19770
cpu0_DTLB RFO       ACCESS:    1379193  HIT:    1370957  MISS:       8236
cpu0_DTLB PREFETCH  ACCESS:          0  HIT:          0  MISS:          0
cpu0_DTLB WRITEBACK ACCESS:          0  HIT:          0  MISS:          0
cpu0_ITLB TOTAL     ACCESS:    1511092  HIT:    1511091  MISS:          1
cpu0_ITLB LOAD      ACCESS:    1511092  HIT:    1511091  MISS:          1
cpu0_ITLB RFO       ACCESS:          0  HIT:          0  MISS:          0
cpu0_ITLB PREFETCH  ACCESS:          0  HIT:          0  MISS:          0
cpu0_ITLB WRITEBACK ACCESS:          0  HIT:          0  MISS:          0
cpu0_L1I TOTAL     ACCESS:     480299  HIT:     478993  MISS:       1306
cpu0_L1I LOAD      ACCESS:     480299  HIT:     478993  MISS:       1306
cpu0_L1I RFO       ACCESS:          0  HIT:          0  MISS:          0
cpu0_L1I PREFETCH  ACCESS:          0  HIT:          0  MISS:          0
cpu0_L1I WRITEBACK ACCESS:          0  HIT:          0  MISS:          0
cpu0_STLB TOTAL     ACCESS:      28007  HIT:      25192  MISS:       2815
cpu0_STLB LOAD      ACCESS:      19771  HIT:      17989  MISS:       1782
cpu0_STLB RFO       ACCESS:       8236  HIT:       7203  MISS:       1033
cpu0_STLB PREFETCH  ACCESS:          0  HIT:          0  MISS:          0
cpu0_STLB WRITEBACK ACCESS:          0  HIT:          0  MISS:          0
cpu0_L1D TOTAL     ACCESS:   12428656  HIT:   11651589  MISS:     777067
cpu0_L1D LOAD      ACCESS:   10548726  HIT:    9925985  MISS:     622741
cpu0_L1D RFO       ACCESS:    1877135  HIT:    1723295  MISS:     153840
cpu0_L1D PREFETCH  ACCESS:          0  HIT:          0  MISS:          0
cpu0_L1D WRITEBACK ACCESS:          0  HIT:          0  MISS:          0
cpu0_L2C TOTAL     ACCESS:    1084838  HIT:     542302  MISS:     542536
cpu0_L2C LOAD      ACCESS:     623906  HIT:     221980  MISS:     401926
cpu0_L2C RFO       ACCESS:     153839  HIT:      14087  MISS:     139752
cpu0_L2C PREFETCH  ACCESS:          0  HIT:          0  MISS:          0
cpu0_L2C WRITEBACK ACCESS:     306607  HIT:     305823  MISS:        784
[...]
cpu0_ITLB RFO       ACCESS:          0  HIT:          0  MISS:          0
cpu0_ITLB PREFETCH  ACCESS:          0  HIT:          0  MISS:          0
cpu0_ITLB WRITEBACK ACCESS:          0  HIT:          0  MISS:          0
cpu0_ITLB TRANSLATION ACCESS:          0  HIT:          0  MISS:          0
cpu0_ITLB PREFETCH  REQUESTED:          0  ISSUED:          0  USEFUL:          0  USELESS:          0
cpu0_ITLB AVERAGE MISS LATENCY: 226.77 cycles
cpu0_L1I TOTAL     ACCESS:   81376423  HIT:   81303752  MISS:      72671
cpu0_L1I LOAD      ACCESS:   81376423  HIT:   81303752  MISS:      72671
cpu0_L1I RFO       ACCESS:          0  HIT:          0  MISS:          0
cpu0_L1I PREFETCH  ACCESS:          0  HIT:          0  MISS:          0
cpu0_L1I WRITEBACK ACCESS:          0  HIT:          0  MISS:          0
cpu0_L1I TRANSLATION ACCESS:          0  HIT:          0  MISS:          0
cpu0_L1I PREFETCH  REQUESTED:          0  ISSUED:          0  USEFUL:          0  USELESS:          0
cpu0_L1I AVERAGE MISS LATENCY: 192.9 cycles
cpu0_STLB TOTAL     ACCESS:    1353917  HIT:    1225747  MISS:     128170
cpu0_STLB LOAD      ACCESS:     999145  HIT:     900673  MISS:      98472
cpu0_STLB RFO       ACCESS:     354772  HIT:     325074  MISS:      29698
cpu0_STLB PREFETCH  ACCESS:          0  HIT:          0  MISS:          0
cpu0_STLB WRITEBACK ACCESS:          0  HIT:          0  MISS:          0
cpu0_STLB TRANSLATION ACCESS:          0  HIT:          0  MISS:          0
cpu0_STLB PREFETCH  REQUESTED:          0  ISSUED:          0  USEFUL:          0  USELESS:          0
cpu0_STLB AVERAGE MISS LATENCY: 145.939 cycles
cpu0_L1D TOTAL     ACCESS:  333738769  HIT:  315777928  MISS:   17960841
cpu0_L1D LOAD      ACCESS:  261006930  HIT:  246711834  MISS:   14295096
cpu0_L1D RFO       ACCESS:   72621897  HIT:   68969113  MISS:    3652784
cpu0_L1D PREFETCH  ACCESS:          0  HIT:          0  MISS:          0
cpu0_L1D WRITEBACK ACCESS:          0  HIT:          0  MISS:          0
cpu0_L1D TRANSLATION ACCESS:     109942  HIT:      96981  MISS:      12961
cpu0_L1D PREFETCH  REQUESTED:          0  ISSUED:          0  USEFUL:          0  USELESS:          0
cpu0_L1D AVERAGE MISS LATENCY: 464.2 cycles
cpu0_L2C TOTAL     ACCESS:   24890151  HIT:   11976219  MISS:   12913932
cpu0_L2C LOAD      ACCESS:   14366843  HIT:    4113329  MISS:   10253514
cpu0_L2C RFO       ACCESS:    3652678  HIT:    1000844  MISS:    2651834
cpu0_L2C PREFETCH  ACCESS:          0  HIT:          0  MISS:          0
cpu0_L2C WRITEBACK ACCESS:    6857669  HIT:    6851147  MISS:       6522
cpu0_L2C TRANSLATION ACCESS:      12961  HIT:      10899  MISS:       2062
cpu0_L2C PREFETCH  REQUESTED:          0  ISSUED:          0  USEFUL:          0  USELESS:          0
cpu0_L2C AVERAGE MISS LATENCY: 631.093 cycles
LLC TOTAL     ACCESS:   18210024  HIT:    4145543  MISS:   14064481
LLC LOAD      ACCESS:   10253509  HIT:     901778  MISS:    9351731
LLC RFO       ACCESS:    2651834  HIT:     283350  MISS:    2368484
LLC PREFETCH  ACCESS:          0  HIT:          0  MISS:          0
LLC WRITEBACK ACCESS:    5302619  HIT:    2959977  MISS:    2342642
LLC TRANSLATION ACCESS:       2062  HIT:        438  MISS:       1624
LLC PREFETCH  REQUESTED:          0  ISSUED:          0  USEFUL:          0  USELESS:          0
LLC AVERAGE MISS LATENCY: 560.183 cycles
~~~~~~~~~~Reuse Distance Profiler output~~~~~~~~~~
0	33980784	12268112
1	16746368	10706064
2	16856864	12343184
3	15037904	12141392
4	13500272	11241504
5	12875888	10754128
6	12015152	10535456
7	12972384	11669168
8	11055056	9777712
9	11073664	9963296
10	10264192	9331008
11	10804944	9934256
12	6878640	6055456
13	5282432	4637552
14	5199184	4517728
15	4558624	3751968
16	4408080	3908672
17	3833536	3468224
18	5058576	4540048
19	4892560	4348992
20	4403216	3807104
21	4168544	3542064
22	4597296	3987824
23	4524304	3865280
24	4506080	4007392
25	4290032	3856640
26	3390480	3044496
27	3073440	2719840
28	2397296	2151216
29	2392624	2071632
30	1639584	1152272
31	1468176	1130272
32	1576352	1282176
33	1621728	1292976
34	1343584	1006912
35	3039728	2509824
36	1273120	1030400
37	1551744	1156848
38	3951248	3456608
39	1530928	1284832
40	1475504	1082896
41	1040912	866128
42	1041248	815920
43	1123984	876608
44	1160384	952192
45	903392	657872
46	981968	672528
47	964976	583136
48	898112	477872
49	989088	623360
50	2281936	1565424
51	664528	439504
52	426144	324912
53	465072	357712
54	520912	420336
55	626912	484064
56	597136	472880
57	1112672	846032
58	744240	544048
59	796800	546336
60	1010032	747280
61	735424	546944
62	1094704	816880
63	846240	680960
64	3118032	2292736
66	765360	593968
68	1187824	959904
70	2910032	2190416
72	720336	579648
74	577376	490176
76	488480	415648
78	463856	359328
80	378896	330912
82	319712	275168
84	404752	359328
86	465664	409984
88	417392	353152
90	318976	255040
92	213680	176992
94	301280	230448
96	195472	156448
98	182976	151104
100	172400	145872
102	166608	139088
104	151424	127696
106	128352	105776
108	136992	117168
110	149136	130128
112	149616	130768
114	216336	196864
116	157520	137328
118	141392	121488
120	154528	133312
122	132672	110800
124	109280	95248
126	119200	105536
128	233968	203392
132	213168	187568
136	215472	189680
140	193024	170112
144	179792	161776
148	209936	189968
152	205136	179504
156	182112	159472
160	176336	158384
164	183648	162416
168	146336	131264
172	134864	125216
176	155376	146512
180	136400	130880
184	130592	126272
188	130992	125952
192	132816	126480
196	125328	118672
200	206512	179936
204	182208	161504
208	133584	125888
212	95552	92848
216	90880	88800
220	93696	91888
224	87168	85696
228	96240	94384
232	86128	83904
236	104480	101680
240	105760	102032
244	118240	114272
248	78096	73504
252	73072	66672
256	143056	131248
264	148480	143536
272	168608	164288
280	138512	133776
288	137088	133408
296	122480	119472
304	113312	110640
312	120144	116704
320	93264	90784
328	96496	94480
336	100608	83056
344	84976	77088
352	111840	103104
360	83776	74608
368	97520	85456
376	97040	81280
384	124912	104464
392	89536	80320
400	130016	119200
408	181632	170592
416	469424	465552
424	183712	180320
432	168240	165792
440	120928	120304
448	115296	114816
456	117920	116704
464	128784	126832
472	142352	141200
480	141536	141264
488	142128	141856
496	162832	162720
504	134016	133392
512	154768	149472
528	103840	99744
544	129120	126624
560	126256	117792
576	175440	174080
592	190352	190144
608	58224	57568
624	36480	35376
640	62208	59472
656	41920	41360
672	21568	21136
688	44624	41760
704	44848	35328
720	43184	31264
736	34784	25888
752	35680	26944
768	15056	12672
784	23264	16128
800	46400	31792
816	52320	38288
832	58400	45056
848	60496	50672
864	22240	12992
880	44432	33376
896	51296	40016
912	51968	44368
928	64384	55600
944	30800	23280
960	27184	19520
976	23888	19008
992	20800	16560
1008	53520	45104
1024	56640	47360
1056	42400	33712
1088	62832	43904
1120	76720	60304
1152	48416	42880
1184	49216	41824
1216	35936	29664
1248	35552	31824
1280	46656	42352
1312	146448	139936
1344	143584	128496
1376	112224	54656
1408	87648	43456
1440	63392	49792
1472	91904	65760
1504	403616	367728
1536	145264	125504
1568	69744	65456
1600	35360	32304
1632	30256	26976
1664	49488	44608
1696	52000	48160
1728	26048	21760
1760	24512	20416
1792	33136	28160
1824	39008	25248
1856	54208	27920
1888	62496	46448
1920	73536	65024
1952	61664	55872
1984	34656	29472
2016	31040	23536
2048	41904	33152
2112	53504	42000
2176	50576	37104
2240	49184	35120
2304	68096	38624
2368	86912	44512
2432	202464	181856
2496	123744	108464
2560	67568	52544
2624	76576	62560
2688	76224	57760
2752	78928	60592
2816	126944	84160
2880	118560	75840
2944	239776	216832
3008	167248	151984
3072	72896	60624
3136	67632	55936
3200	54656	41648
3264	49456	35696
3328	64496	46560
3392	80128	63936
3456	81792	71808
3520	67456	59888
3584	43376	35088
3648	31280	25904
3712	29856	24688
3776	27600	22848
3840	31104	24416
3904	26000	21744
3968	24096	18432
4032	29520	23024
4096	54768	44128
4224	42160	33600
4352	39120	27792
4480	47472	37344
4608	41584	31104
4736	38832	28448
4864	43552	33312
4992	40912	32016
5120	32544	21664
5248	33104	22272
5376	29232	19632
5504	31440	21920
5632	27904	18112
5760	29616	20944
5888	37152	29776
6016	33408	24976
6144	62496	55280
6272	33552	26992
6400	32544	24768
6528	32976	24960
6656	36816	28432
6784	90464	79584
6912	166208	152240
7040	69504	54896
7168	96128	77904
7296	100096	80448
7424	49392	33840
7552	26400	14288
7680	25584	15392
7808	23696	14608
7936	23632	14944
8064	53952	43968
8192	58832	41952
8448	54832	38544
8704	37776	22544
8960	54784	39936
9216	54960	41072
9472	46272	32480
9728	36336	21728
9984	39168	21696
10240	37984	19728
10496	42352	24144
10752	39792	20768
11008	38336	21040
11264	37392	21056
11520	34688	19728
11776	37552	21824
12032	45088	28736
12288	43440	33184
12544	46976	35328
12800	42848	33104
13056	45856	34112
13312	41680	27824
13568	42832	28768
13824	54368	42224
14080	50624	38368
14336	36176	22832
14592	132320	119056
14848	43216	31008
15104	28656	17264
15360	24128	16112
15616	30192	25520
15872	43984	38304
16128	126528	122416
16384	63360	54944
16896	114640	105600
17408	269936	261632
17920	32848	24928
18432	89744	81920
18944	117888	107632
19456	26224	18912
19968	20288	12576
20480	33600	27040
20992	20352	12784
21504	18224	10560
22016	20320	13264
22528	19616	13664
23040	9584	6160
23552	10576	7632
24064	62832	59456
24576	413840	411744
25088	8816	6880
25600	6048	4768
26112	59488	57872
26624	262048	257792
27136	80384	75280
27648	8848	4208
28160	7280	2592
28672	7264	3248
29184	27984	23120
29696	17152	12288
30208	8464	4448
30720	19776	15120
31232	9136	4464
31744	7904	3152
32256	8384	3872
32768	24432	15200
33792	28000	24480
34816	32352	28944
35840	35264	32576
36864	23792	21328
37888	12848	10160
38912	9424	6848
39936	15552	11888
40960	9792	6336
41984	12832	7984
43008	10384	6816
44032	12464	9008
45056	13104	10368
46080	7792	4592
47104	8224	5344
48128	8416	5168
49152	9056	6064
50176	8896	5824
51200	26736	23648
52224	224048	220832
53248	7456	4560
54272	8336	4928
55296	8112	4912
56320	8720	5296
57344	8224	5536
58368	8608	5472
59392	8272	5248
60416	8320	5248
61440	7008	4784
62464	6992	4400
63488	7056	4496
64512	6976	4576
65536	15200	10464
67584	14368	10784
69632	20064	17712
71680	25440	23696
73728	25568	23760
75776	25216	23472
77824	24368	22288
79872	24880	22640
81920	26032	23040
83968	26928	23808
86016	25920	22656
88064	26752	24016
90112	25088	22720
92160	34528	32304
94208	35344	32832
96256	38592	36112
98304	40368	37744
100352	24064	21040
102400	21696	19072
104448	23424	20464
106496	21184	18608
108544	24192	21296
110592	22624	19728
112640	22992	20368
114688	21280	18368
116736	29456	26976
118784	30416	27712
120832	28272	25952
122880	32880	30624
124928	37392	34448
126976	22192	20096
129024	19376	17296
131072	37072	34000
135168	31424	29552
139264	41296	39856
143360	45056	43504
147456	38080	36912
151552	31568	29488
155648	39024	37664
159744	30288	28976
163840	30384	28640
167936	25616	23040
172032	23296	20784
176128	19808	17888
180224	17984	15952
184320	17312	15520
188416	20480	18592
192512	19152	17264
196608	22160	20176
200704	19424	16928
204800	17808	14528
208896	19232	15584
212992	21952	17056
217088	25296	17840
221184	21024	13984
225280	24496	16336
229376	22896	14864
233472	27968	19600
237568	25232	17152
241664	26752	17248
245760	28368	18816
249856	26848	17520
253952	26096	17072
258048	23632	14512
262144	49072	29776
270336	47264	28576
278528	44256	29248
286720	42880	28352
294912	36192	22608
303104	34896	23472
311296	40368	24208
319488	45568	24816
327680	50544	23536
335872	45248	25104
344064	41120	21616
352256	35520	22176
360448	28000	19760
368640	20720	16400
376832	23776	19616
385024	27472	22800
393216	27536	22256
401408	25264	19968
409600	28880	23392
417792	126240	120896
425984	67264	60320
434176	33872	27632
442368	34480	28560
450560	38512	27216
458752	37856	28784
466944	35904	25920
475136	32160	24112
483328	37856	26240
491520	35376	24896
499712	30240	24288
507904	30672	22416
516096	36576	26192
524288	68624	47888
540672	68928	46240
557056	50864	45920
573440	47200	44224
589824	46240	43648
606208	41488	38480
622592	42176	38592
638976	38512	34096
655360	44624	38896
671744	40560	34800
688128	41456	35424
704512	37872	32000
720896	48464	38288
737280	53680	38288
753664	48272	37584
770048	49168	41568
786432	53680	45952
802816	69920	66416
819200	80048	76992
835584	83184	79760
851968	77264	74032
868352	67248	64096
884736	61536	59552
901120	72544	70384
917504	78128	76016
933888	124256	122624
950272	137184	135632
966656	151520	149488
983040	63856	62480
999424	66848	65600
1015808	56864	55488
1032192	47888	45696
1048576	117968	109488
1081344	138976	128768
1114112	122464	113968
1146880	103552	93696
1179648	105968	90368
1212416	104432	88416
1245184	98112	88000
1277952	87104	79232
1310720	78000	74688
1343488	68960	66688
1376256	59552	57904
1409024	46512	44128
1441792	45696	42512
1474560	48192	42688
1507328	49472	38112
1540096	57264	38768
1572864	54080	37296
1605632	40176	27360
1638400	40800	27472
1671168	37888	26736
1703936	35776	34448
1736704	27152	26432
1769472	26128	25360
1802240	26320	25504
1835008	28864	27888
1867776	32592	31552
1900544	32880	32048
1933312	30528	29632
1966080	30160	29264
1998848	29376	28496
2031616	30192	29184
2064384	25104	24224
2097152	66656	63904
2162688	75376	71520
2228224	99808	95952
2293760	105216	102576
2359296	96912	95280
2424832	92416	89984
2490368	58960	53600
2555904	28304	24640
2621440	24752	19616
2686976	27456	21952
2752512	28160	23616
2818048	30640	25184
2883584	30080	24560
2949120	29216	23136
3014656	28240	22432
3080192	28304	22512
3145728	29712	23152
3211264	37136	30096
3276800	51056	43152
3342336	47232	30112
3407872	55632	34496
3473408	42976	39760
3538944	41952	38496
3604480	197376	137568
3670016	68192	44336
3735552	70544	64656
3801088	101440	95376
3866624	41808	35952
3932160	27952	23696
3997696	29264	24432
4063232	25584	21152
4128768	25504	18528
4194304	59872	41136
4325376	79488	37888
4456448	75088	52176
4587520	180336	118144
4718592	129408	104432
4849664	79728	54576
4980736	64480	48032
5111808	83920	70944
5242880	83728	68656
5373952	42976	37376
5505024	54976	31328
5636096	39664	35776
5767168	18208	18080
5898240	21168	20144
6029312	66496	62432
6160384	626304	612736
6291456	60832	39392
6422528	45632	37840
6553600	18864	15392
6684672	28896	25184
6815744	28240	24320
6946816	26976	23280
7077888	37984	34656
7208960	36080	32736
7340032	28224	24560
7471104	28304	24928
7602176	28320	24832
7733248	29168	25424
7864320	30496	26688
7995392	15776	12256
8126464	17616	14096
8257536	20288	14528
8388608	72800	63664
8650752	31936	24208
8912896	25104	23888
9175040	22032	21904
9437184	25728	25104
9699328	65120	64992
9961472	42448	42240
10223616	52416	32544
10485760	133088	76784
10747904	14816	14704
11010048	30944	30848
11272192	19216	18976
11534336	26736	26496
11796480	10880	10272
12058624	13776	9760
12320768	4384	3808
12582912	9328	8640
12845056	10848	10240
13107200	10624	10240
13369344	5648	5328
13631488	1520	1216
13893632	2880	2112
14155776	14576	13408
14417920	10400	10160
14680064	16928	16720
14942208	33936	33424
15204352	28320	27872
15466496	5152	4992
15728640	7200	6784
15990784	4608	4608
16252928	4416	4368
16515072	7664	7552
16777216	37312	36896
17301504	33648	33568
17825792	15664	15280
18350080	18912	18208
18874368	37280	28112
19398656	12320	10992
19922944	9440	7872
20447232	14768	7696
20971520	11984	8448
21495808	21536	20384
22020096	9776	8608
22544384	9888	8352
23068672	20400	17840
23592960	42448	31696
24117248	3056	2784
24641536	2288	2288
25165824	4784	3360
25690112	109552	8368
26214400	59344	16384
26738688	14752	3856
27262976	29328	16672
27787264	13088	5200
28311552	9488	3488
28835840	9616	2304
29360128	11824	2304
29884416	22992	1104
30408704	21056	2064
30932992	30016	15728
31457280	26016	10528
31981568	14192	10592
32505856	5360	3008
33030144	17776	2496
33554432	43600	5840
34603008	6112	1808
35651584	2928	1904
36700160	2400	1872
37748736	1312	784
38797312	2784	1408
39845888	32256	1376
40894464	20624	6368
41943040	30720	15792
42991616	19248	6032
44040192	13120	6560
45088768	12800	12304
46137344	3760	3072
47185920	1808	1536
48234496	14960	6608
49283072	5488	4960
50331648	3008	2016
51380224	19968	2064
52428800	44832	17248
53477376	7040	5008
54525952	37040	10816
55574528	20640	11568
56623104	11728	9584
57671680	9808	3136
58720256	19648	10816
59768832	21504	2080
60817408	36720	26352
61865984	17904	7584
62914560	6896	4112
63963136	4784	2496
65011712	46752	26080
66060288	139936	122192
67108864	59648	57264
69206016	20800	20192
71303168	45344	35776
73400320	21504	21040
75497472	9088	8048
77594624	6752	5840
79691776	3488	2864
81788928	4304	3248
83886080	3312	2496
85983232	17408	8400
88080384	6784	5648
90177536	4512	3696
92274688	5344	3984
94371840	13600	9856
96468992	18864	14800
98566144	38352	26736
100663296	1152	1008
102760448	912	784
104857600	2080	1616
106954752	19808	18032
109051904	17056	3120
111149056	14736	1072
113246208	5024	496
115343360	1904	752
117440512	672	672
119537664	736	464
121634816	496	496
123731968	25536	224
125829120	784	240
127926272	112	112
130023424	352	336
132120576	352	352
134217728	8544	176
138412032	304	288
142606336	8272	0
146800640	0	0
150994944	720	0
155189248	8624	0
159383552	0	0
163577856	42192	25952
167772160	26448	9264
171966464	22160	0
176160768	0	0
180355072	0	0
184549376	0	0
188743680	16768	13760
192937984	70240	0
197132288	256	0
201326592	272	272
205520896	0	0
209715200	0	0
213909504	0	0
218103808	14896	5200
222298112	0	0
226492416	0	0
230686720	0	0
234881024	0	0
239075328	0	0
243269632	0	0
247463936	0	0
251658240	0	0
255852544	0	0
260046848	0	0
264241152	0	0
268435456	0	0
276824064	0	0
285212672	0	0
293601280	0	0
301989888	0	0
310378496	16	16
318767104	0	0
327155712	0	0
335544320	0	0
343932928	0	0
352321536	0	0
360710144	0	0
369098752	0	0
377487360	0	0
385875968	0	0
394264576	0	0
402653184	0	0
411041792	0	0
419430400	0	0
427819008	0	0
436207616	0	0
444596224	0	0
452984832	0	0
461373440	0	0
469762048	0	0
478150656	0	0
486539264	0	0
494927872	0	0
503316480	0	0
511705088	0	0
520093696	0	0
528482304	0	0
536870912	0	0
553648128	0	0
570425344	0	0
587202560	0	0
603979776	0	0
620756992	0	0
637534208	0	0
654311424	0	0
671088640	0	0
687865856	0	0
704643072	0	0
721420288	0	0
738197504	0	0
754974720	0	0
771751936	0	0
788529152	0	0
805306368	0	0
822083584	0	0
838860800	0	0
855638016	0	0
872415232	0	0
889192448	0	0
905969664	0	0
922746880	0	0
939524096	0	0
956301312	0	0
973078528	0	0
989855744	0	0
1006632960	0	0
1023410176	0	0
1040187392	0	0
1056964608	0	0
1073741824	0	0
1107296256	0	0
1140850688	0	0
1174405120	0	0
1207959552	0	0
1241513984	0	0
1275068416	0	0
1308622848	0	0
1342177280	0	0
1375731712	0	0
1409286144	0	0
1442840576	0	0
1476395008	0	0
1509949440	0	0
1543503872	0	0
1577058304	0	0
1610612736	0	0
1644167168	0	0
1677721600	0	0
1711276032	0	0
1744830464	0	0
1778384896	0	0
1811939328	0	0
1845493760	0	0
1879048192	0	0
1912602624	0	0
1946157056	0	0
1979711488	0	0
2013265920	0	0
2046820352	0	0
2080374784	0	0
2113929216	0	0
2147483648	0	0
2214592512	0	0
2281701376	0	0
2348810240	0	0
2415919104	0	0
2483027968	0	0
2550136832	0	0
2617245696	0	0
2684354560	0	0
2751463424	0	0
2818572288	0	0
2885681152	0	0
2952790016	0	0
3019898880	0	0
3087007744	0	0
3154116608	0	0
3221225472	0	0
3288334336	0	0
3355443200	0	0
3422552064	0	0
3489660928	0	0
3556769792	0	0
3623878656	0	0
3690987520	0	0
3758096384	0	0
3825205248	0	0
3892314112	0	0
3959422976	0	0
4026531840	0	0
4093640704	0	0
4160749568	0	0
4227858432	0	0
~~~~~~~~~~Reuse Distance Profiler output end~~~~~~~~~~

Sampler size:64326

DRAM Statistics
 CHANNEL 0
 RQ ROW_BUFFER_HIT:    1070387  ROW_BUFFER_MISS:   10645639
 DBUS AVG_CONGESTED_CYCLE:    3.96007
 WQ ROW_BUFFER_HIT:     235479  ROW_BUFFER_MISS:    4250669  FULL:      45330


CPU 0 Branch Prediction Accuracy: 95.1447% MPKI: 3.99242 Average ROB Occupancy at Mispredict: 171.227
Branch type MPKI
BRANCH_DIRECT_JUMP: 0.000264
BRANCH_INDIRECT: 8.93333e-05
BRANCH_CONDITIONAL: 3.98954
BRANCH_DIRECT_CALL: 0.00196467
BRANCH_INDIRECT_CALL: 2.66667e-06
BRANCH_RETURN: 0.000564

