
*** ChampSim Multicore Out-of-Order Simulator ***

Warmup Instructions: 50000000
Simulation Instructions: 1500000000
Number of CPUs: 1
Off-chip DRAM Size: 4 GiB Channels: 1 Width: 64-bit Data Rate: 3200 MT/s

VirtualMemory physical capacity: 8588881920 num_ppages: 2096895
VirtualMemory page size: 4096 log2_page_size: 12

CPU 0 runs /s/traces/champsim_traces/623.xalancbmk_s-592B.champsimtrace.xz
CPU 0 Bimodal branch predictor
Basic BTB sets: 1024 ways: 8 indirect buffer size: 4096 RAS size: 64
Initializing LRU.
Initializing LRU.
Initializing LRU.
Initializing LRU.
Initializing rdLRU.
Initializing LRU.
Heartbeat CPU 0 instructions: 2000002 cycles: 626042 heartbeat IPC: 3.19468 cumulative IPC: 3.19468 (Simulation time: 0 hr 1 min 24 sec) 
Heartbeat CPU 0 instructions: 4000004 cycles: 1253168 heartbeat IPC: 3.18915 cumulative IPC: 3.19191 (Simulation time: 0 hr 2 min 47 sec) 
Heartbeat CPU 0 instructions: 6000004 cycles: 1883884 heartbeat IPC: 3.171 cumulative IPC: 3.18491 (Simulation time: 0 hr 4 min 13 sec) 
Heartbeat CPU 0 instructions: 8000000 cycles: 2516754 heartbeat IPC: 3.1602 cumulative IPC: 3.1787 (Simulation time: 0 hr 5 min 38 sec) 
Heartbeat CPU 0 instructions: 10000004 cycles: 3151758 heartbeat IPC: 3.14959 cumulative IPC: 3.17283 (Simulation time: 0 hr 6 min 59 sec) 
Heartbeat CPU 0 instructions: 12000000 cycles: 3788964 heartbeat IPC: 3.1387 cumulative IPC: 3.16709 (Simulation time: 0 hr 8 min 23 sec) 
Heartbeat CPU 0 instructions: 14000004 cycles: 4430977 heartbeat IPC: 3.11521 cumulative IPC: 3.15957 (Simulation time: 0 hr 9 min 49 sec) 
Heartbeat CPU 0 instructions: 16000003 cycles: 5078169 heartbeat IPC: 3.09027 cumulative IPC: 3.15074 (Simulation time: 0 hr 11 min 15 sec) 
Heartbeat CPU 0 instructions: 18000000 cycles: 5732742 heartbeat IPC: 3.05542 cumulative IPC: 3.13986 (Simulation time: 0 hr 12 min 45 sec) 
Heartbeat CPU 0 instructions: 20000004 cycles: 6396128 heartbeat IPC: 3.01484 cumulative IPC: 3.12689 (Simulation time: 0 hr 14 min 19 sec) 
Heartbeat CPU 0 instructions: 22000000 cycles: 7073409 heartbeat IPC: 2.95298 cumulative IPC: 3.11024 (Simulation time: 0 hr 15 min 52 sec) 
Heartbeat CPU 0 instructions: 24000001 cycles: 7645189 heartbeat IPC: 3.49785 cumulative IPC: 3.13923 (Simulation time: 0 hr 17 min 10 sec) 
Heartbeat CPU 0 instructions: 26000001 cycles: 8187422 heartbeat IPC: 3.68845 cumulative IPC: 3.1756 (Simulation time: 0 hr 18 min 26 sec) 
Heartbeat CPU 0 instructions: 28000001 cycles: 8761817 heartbeat IPC: 3.48192 cumulative IPC: 3.19568 (Simulation time: 0 hr 19 min 46 sec) 
Heartbeat CPU 0 instructions: 30000003 cycles: 9364416 heartbeat IPC: 3.31896 cumulative IPC: 3.20362 (Simulation time: 0 hr 21 min 11 sec) 
Heartbeat CPU 0 instructions: 32000003 cycles: 9906896 heartbeat IPC: 3.68677 cumulative IPC: 3.23007 (Simulation time: 0 hr 22 min 25 sec) 
Heartbeat CPU 0 instructions: 34000001 cycles: 10447366 heartbeat IPC: 3.70048 cumulative IPC: 3.25441 (Simulation time: 0 hr 23 min 38 sec) 
Heartbeat CPU 0 instructions: 36000000 cycles: 10986479 heartbeat IPC: 3.7098 cumulative IPC: 3.27676 (Simulation time: 0 hr 24 min 53 sec) 
Heartbeat CPU 0 instructions: 38000002 cycles: 11528442 heartbeat IPC: 3.69029 cumulative IPC: 3.2962 (Simulation time: 0 hr 26 min 9 sec) 
Heartbeat CPU 0 instructions: 40000001 cycles: 12071758 heartbeat IPC: 3.6811 cumulative IPC: 3.31352 (Simulation time: 0 hr 27 min 23 sec) 
Heartbeat CPU 0 instructions: 42000000 cycles: 12617463 heartbeat IPC: 3.66498 cumulative IPC: 3.32872 (Simulation time: 0 hr 28 min 32 sec) 
Heartbeat CPU 0 instructions: 44000003 cycles: 13163593 heartbeat IPC: 3.66214 cumulative IPC: 3.34255 (Simulation time: 0 hr 29 min 41 sec) 
Heartbeat CPU 0 instructions: 46000003 cycles: 13712133 heartbeat IPC: 3.64604 cumulative IPC: 3.35469 (Simulation time: 0 hr 30 min 51 sec) 
Heartbeat CPU 0 instructions: 48000000 cycles: 14261598 heartbeat IPC: 3.6399 cumulative IPC: 3.36568 (Simulation time: 0 hr 31 min 58 sec) 
Heartbeat CPU 0 instructions: 50000001 cycles: 14811623 heartbeat IPC: 3.6362 cumulative IPC: 3.37573 (Simulation time: 0 hr 33 min 10 sec) 

Warmup complete CPU 0 instructions: 50000001 cycles: 14811623 (Simulation time: 0 hr 33 min 10 sec) 

Heartbeat CPU 0 instructions: 52000000 cycles: 16869089 heartbeat IPC: 0.972069 cumulative IPC: 0.972069 (Simulation time: 0 hr 34 min 48 sec) 

Region of Interest Statistics
cpu0_DTLB TOTAL     ACCESS:     342876  HIT:     306050  MISS:      36826
cpu0_DTLB LOAD      ACCESS:     246163  HIT:     210376  MISS:      35787
cpu0_DTLB RFO       ACCESS:      96713  HIT:      95674  MISS:       1039
cpu0_DTLB PREFETCH  ACCESS:          0  HIT:          0  MISS:          0
cpu0_DTLB WRITEBACK ACCESS:          0  HIT:          0  MISS:          0
cpu0_ITLB TOTAL     ACCESS:     140423  HIT:     139375  MISS:       1048
cpu0_ITLB LOAD      ACCESS:     140423  HIT:     139375  MISS:       1048
cpu0_ITLB RFO       ACCESS:          0  HIT:          0  MISS:          0
cpu0_ITLB PREFETCH  ACCESS:          0  HIT:          0  MISS:          0
cpu0_ITLB WRITEBACK ACCESS:          0  HIT:          0  MISS:          0
cpu0_L1I TOTAL     ACCESS:     140513  HIT:     133994  MISS:       6519
cpu0_L1I LOAD      ACCESS:     140513  HIT:     133994  MISS:       6519
cpu0_L1I RFO       ACCESS:          0  HIT:          0  MISS:          0
cpu0_L1I PREFETCH  ACCESS:          0  HIT:          0  MISS:          0
cpu0_L1I WRITEBACK ACCESS:          0  HIT:          0  MISS:          0
cpu0_STLB TOTAL     ACCESS:      37874  HIT:      35783  MISS:       2091
cpu0_STLB LOAD      ACCESS:      36835  HIT:      34838  MISS:       1997
cpu0_STLB RFO       ACCESS:       1039  HIT:        945  MISS:         94
cpu0_STLB PREFETCH  ACCESS:          0  HIT:          0  MISS:          0
cpu0_STLB WRITEBACK ACCESS:          0  HIT:          0  MISS:          0
cpu0_L1D TOTAL     ACCESS:     453120  HIT:     375369  MISS:      77751
cpu0_L1D LOAD      ACCESS:     275323  HIT:     203415  MISS:      71908
cpu0_L1D RFO       ACCESS:     175745  HIT:     170101  MISS:       5644
cpu0_L1D PREFETCH  ACCESS:          0  HIT:          0  MISS:          0
cpu0_L1D WRITEBACK ACCESS:          0  HIT:          0  MISS:          0
cpu0_L2C TOTAL     ACCESS:      91620  HIT:      82968  MISS:       8652
cpu0_L2C LOAD      ACCESS:      78426  HIT:      74851  MISS:       3575
cpu0_L2C RFO       ACCESS:       5644  HIT:        567  MISS:       5077
cpu0_L2C PREFETCH  ACCESS:          0  HIT:          0  MISS:          0
cpu0_L2C WRITEBACK ACCESS:       7351  HIT:       7351  MISS:          0
LLC TOTAL     ACCESS:      14039  HIT:       8264  MISS:       5775
LLC LOAD      ACCESS:       3575  HIT:       3384  MISS:        191
LLC RFO       ACCESS:       5077  HIT:        205  MISS:       4872
LLC PREFETCH  ACCESS:          0  HIT:          0  MISS:          0
LLC WRITEBACK ACCESS:       5387  HIT:       4675  MISS:        712
Heartbeat CPU 0 instructions: 54000001 cycles: 18920996 heartbeat IPC: 0.974704 cumulative IPC: 0.973384 (Simulation time: 0 hr 36 min 24 sec) 

Region of Interest Statistics
cpu0_DTLB TOTAL     ACCESS:     682217  HIT:     608491  MISS:      73726
cpu0_DTLB LOAD      ACCESS:     490942  HIT:     419385  MISS:      71557
cpu0_DTLB RFO       ACCESS:     191275  HIT:     189106  MISS:       2169
cpu0_DTLB PREFETCH  ACCESS:          0  HIT:          0  MISS:          0
cpu0_DTLB WRITEBACK ACCESS:          0  HIT:          0  MISS:          0
cpu0_ITLB TOTAL     ACCESS:     277255  HIT:     275180  MISS:       2075
cpu0_ITLB LOAD      ACCESS:     277255  HIT:     275180  MISS:       2075
cpu0_ITLB RFO       ACCESS:          0  HIT:          0  MISS:          0
cpu0_ITLB PREFETCH  ACCESS:          0  HIT:          0  MISS:          0
cpu0_ITLB WRITEBACK ACCESS:          0  HIT:          0  MISS:          0
cpu0_L1I TOTAL     ACCESS:     277949  HIT:     265053  MISS:      12896
cpu0_L1I LOAD      ACCESS:     277949  HIT:     265053  MISS:      12896
cpu0_L1I RFO       ACCESS:          0  HIT:          0  MISS:          0
cpu0_L1I PREFETCH  ACCESS:          0  HIT:          0  MISS:          0
cpu0_L1I WRITEBACK ACCESS:          0  HIT:          0  MISS:          0
cpu0_STLB TOTAL     ACCESS:      75801  HIT:      71568  MISS:       4233
cpu0_STLB LOAD      ACCESS:      73632  HIT:      69591  MISS:       4041
cpu0_STLB RFO       ACCESS:       2169  HIT:       1977  MISS:        192
cpu0_STLB PREFETCH  ACCESS:          0  HIT:          0  MISS:          0
cpu0_STLB WRITEBACK ACCESS:          0  HIT:          0  MISS:          0
cpu0_L1D TOTAL     ACCESS:     900495  HIT:     744043  MISS:     156452
cpu0_L1D LOAD      ACCESS:     548444  HIT:     403572  MISS:     144872
cpu0_L1D RFO       ACCESS:     347901  HIT:     336717  MISS:      11184
cpu0_L1D PREFETCH  ACCESS:          0  HIT:          0  MISS:          0
cpu0_L1D WRITEBACK ACCESS:          0  HIT:          0  MISS:          0
cpu0_L2C TOTAL     ACCESS:     184080  HIT:     166995  MISS:      17085
cpu0_L2C LOAD      ACCESS:     157763  HIT:     150708  MISS:       7055
cpu0_L2C RFO       ACCESS:      11184  HIT:       1157  MISS:      10027
cpu0_L2C PREFETCH  ACCESS:          0  HIT:          0  MISS:          0
cpu0_L2C WRITEBACK ACCESS:      14737  HIT:      14737  MISS:          0
LLC TOTAL     ACCESS:      27742  HIT:      16387  MISS:      11355
LLC LOAD      ACCESS:       7055  HIT:       6589  MISS:        466
LLC RFO       ACCESS:      10027  HIT:        391  MISS:       9636
LLC PREFETCH  ACCESS:          0  HIT:          0  MISS:          0
LLC WRITEBACK ACCESS:      10657  HIT:       9406  MISS:       1251
Heartbeat CPU 0 instructions: 56000002 cycles: 20940956 heartbeat IPC: 0.990119 cumulative IPC: 0.978899 (Simulation time: 0 hr 38 min 7 sec) 

Region of Interest Statistics
cpu0_DTLB TOTAL     ACCESS:    1017614  HIT:     908605  MISS:     109009
cpu0_DTLB LOAD      ACCESS:     733039  HIT:     627455  MISS:     105584
cpu0_DTLB RFO       ACCESS:     284575  HIT:     281150  MISS:       3425
cpu0_DTLB PREFETCH  ACCESS:          0  HIT:          0  MISS:          0
cpu0_DTLB WRITEBACK ACCESS:          0  HIT:          0  MISS:          0
cpu0_ITLB TOTAL     ACCESS:     412194  HIT:     409105  MISS:       3089
cpu0_ITLB LOAD      ACCESS:     412194  HIT:     409105  MISS:       3089
cpu0_ITLB RFO       ACCESS:          0  HIT:          0  MISS:          0
cpu0_ITLB PREFETCH  ACCESS:          0  HIT:          0  MISS:          0
cpu0_ITLB WRITEBACK ACCESS:          0  HIT:          0  MISS:          0
cpu0_L1I TOTAL     ACCESS:     413577  HIT:     394371  MISS:      19206
cpu0_L1I LOAD      ACCESS:     413577  HIT:     394371  MISS:      19206
cpu0_L1I RFO       ACCESS:          0  HIT:          0  MISS:          0
cpu0_L1I PREFETCH  ACCESS:          0  HIT:          0  MISS:          0
cpu0_L1I WRITEBACK ACCESS:          0  HIT:          0  MISS:          0
cpu0_STLB TOTAL     ACCESS:     112098  HIT:     105827  MISS:       6271
cpu0_STLB LOAD      ACCESS:     108673  HIT:     102686  MISS:       5987
cpu0_STLB RFO       ACCESS:       3425  HIT:       3141  MISS:        284
cpu0_STLB PREFETCH  ACCESS:          0  HIT:          0  MISS:          0
cpu0_STLB WRITEBACK ACCESS:          0  HIT:          0  MISS:          0
cpu0_L1D TOTAL     ACCESS:    1341615  HIT:    1108091  MISS:     233524
cpu0_L1D LOAD      ACCESS:     817233  HIT:     601053  MISS:     216180
cpu0_L1D RFO       ACCESS:     518234  HIT:     501495  MISS:      16739
cpu0_L1D PREFETCH  ACCESS:          0  HIT:          0  MISS:          0
cpu0_L1D WRITEBACK ACCESS:          0  HIT:          0  MISS:          0
cpu0_L2C TOTAL     ACCESS:     274622  HIT:     249000  MISS:      25622
cpu0_L2C LOAD      ACCESS:     235381  HIT:     224676  MISS:      10705
cpu0_L2C RFO       ACCESS:      16739  HIT:       1827  MISS:      14912
cpu0_L2C PREFETCH  ACCESS:          0  HIT:          0  MISS:          0
cpu0_L2C WRITEBACK ACCESS:      21897  HIT:      21897  MISS:          0
LLC TOTAL     ACCESS:      41463  HIT:      24826  MISS:      16637
LLC LOAD      ACCESS:      10703  HIT:       9969  MISS:        734
LLC RFO       ACCESS:      14912  HIT:        566  MISS:      14346
LLC PREFETCH  ACCESS:          0  HIT:          0  MISS:          0
LLC WRITEBACK ACCESS:      15843  HIT:      14288  MISS:       1555
Heartbeat CPU 0 instructions: 58000001 cycles: 22938368 heartbeat IPC: 1.0013 cumulative IPC: 0.984404 (Simulation time: 0 hr 39 min 44 sec) 

Region of Interest Statistics
cpu0_DTLB TOTAL     ACCESS:    1348754  HIT:    1204075  MISS:     144679
cpu0_DTLB LOAD      ACCESS:     973349  HIT:     833423  MISS:     139926
cpu0_DTLB RFO       ACCESS:     375405  HIT:     370652  MISS:       4753
cpu0_DTLB PREFETCH  ACCESS:          0  HIT:          0  MISS:          0
cpu0_DTLB WRITEBACK ACCESS:          0  HIT:          0  MISS:          0
cpu0_ITLB TOTAL     ACCESS:     543925  HIT:     539848  MISS:       4077
cpu0_ITLB LOAD      ACCESS:     543925  HIT:     539848  MISS:       4077
cpu0_ITLB RFO       ACCESS:          0  HIT:          0  MISS:          0
cpu0_ITLB PREFETCH  ACCESS:          0  HIT:          0  MISS:          0
cpu0_ITLB WRITEBACK ACCESS:          0  HIT:          0  MISS:          0
cpu0_L1I TOTAL     ACCESS:     545748  HIT:     520407  MISS:      25341
cpu0_L1I LOAD      ACCESS:     545748  HIT:     520407  MISS:      25341
cpu0_L1I RFO       ACCESS:          0  HIT:          0  MISS:          0
cpu0_L1I PREFETCH  ACCESS:          0  HIT:          0  MISS:          0
cpu0_L1I WRITEBACK ACCESS:          0  HIT:          0  MISS:          0
cpu0_STLB TOTAL     ACCESS:     148756  HIT:     140458  MISS:       8298
cpu0_STLB LOAD      ACCESS:     144003  HIT:     136090  MISS:       7913
cpu0_STLB RFO       ACCESS:       4753  HIT:       4368  MISS:        385
cpu0_STLB PREFETCH  ACCESS:          0  HIT:          0  MISS:          0
cpu0_STLB WRITEBACK ACCESS:          0  HIT:          0  MISS:          0
cpu0_L1D TOTAL     ACCESS:    1776193  HIT:    1464663  MISS:     311530
cpu0_L1D LOAD      ACCESS:    1083303  HIT:     794746  MISS:     288557
cpu0_L1D RFO       ACCESS:     684763  HIT:     662601  MISS:      22162
cpu0_L1D PREFETCH  ACCESS:          0  HIT:          0  MISS:          0
cpu0_L1D WRITEBACK ACCESS:          0  HIT:          0  MISS:          0
cpu0_L2C TOTAL     ACCESS:     365919  HIT:     332359  MISS:      33560
cpu0_L2C LOAD      ACCESS:     313893  HIT:     299997  MISS:      13896
cpu0_L2C RFO       ACCESS:      22162  HIT:       2506  MISS:      19656
cpu0_L2C PREFETCH  ACCESS:          0  HIT:          0  MISS:          0
cpu0_L2C WRITEBACK ACCESS:      29053  HIT:      29053  MISS:          0
LLC TOTAL     ACCESS:      54427  HIT:      32668  MISS:      21759
LLC LOAD      ACCESS:      13894  HIT:      12985  MISS:        909
LLC RFO       ACCESS:      19656  HIT:        658  MISS:      18998
LLC PREFETCH  ACCESS:          0  HIT:          0  MISS:          0
LLC WRITEBACK ACCESS:      20869  HIT:      19019  MISS:       1850
Heartbeat CPU 0 instructions: 60000000 cycles: 24901538 heartbeat IPC: 1.01876 cumulative IPC: 0.991089 (Simulation time: 0 hr 41 min 23 sec) 

Region of Interest Statistics
cpu0_DTLB TOTAL     ACCESS:    1676695  HIT:    1499148  MISS:     177547
cpu0_DTLB LOAD      ACCESS:    1211970  HIT:    1040333  MISS:     171637
cpu0_DTLB RFO       ACCESS:     464725  HIT:     458815  MISS:       5910
cpu0_DTLB PREFETCH  ACCESS:          0  HIT:          0  MISS:          0
cpu0_DTLB WRITEBACK ACCESS:          0  HIT:          0  MISS:          0
cpu0_ITLB TOTAL     ACCESS:     672809  HIT:     667744  MISS:       5065
cpu0_ITLB LOAD      ACCESS:     672809  HIT:     667744  MISS:       5065
cpu0_ITLB RFO       ACCESS:          0  HIT:          0  MISS:          0
cpu0_ITLB PREFETCH  ACCESS:          0  HIT:          0  MISS:          0
cpu0_ITLB WRITEBACK ACCESS:          0  HIT:          0  MISS:          0
cpu0_L1I TOTAL     ACCESS:     677266  HIT:     645578  MISS:      31688
cpu0_L1I LOAD      ACCESS:     677266  HIT:     645578  MISS:      31688
cpu0_L1I RFO       ACCESS:          0  HIT:          0  MISS:          0
cpu0_L1I PREFETCH  ACCESS:          0  HIT:          0  MISS:          0
cpu0_L1I WRITEBACK ACCESS:          0  HIT:          0  MISS:          0
cpu0_STLB TOTAL     ACCESS:     182612  HIT:     172355  MISS:      10257
cpu0_STLB LOAD      ACCESS:     176702  HIT:     166928  MISS:       9774
cpu0_STLB RFO       ACCESS:       5910  HIT:       5427  MISS:        483
cpu0_STLB PREFETCH  ACCESS:          0  HIT:          0  MISS:          0
cpu0_STLB WRITEBACK ACCESS:          0  HIT:          0  MISS:          0
cpu0_L1D TOTAL     ACCESS:    2203663  HIT:    1816705  MISS:     386958
cpu0_L1D LOAD      ACCESS:    1345195  HIT:     986736  MISS:     358459
cpu0_L1D RFO       ACCESS:     848426  HIT:     820947  MISS:      27479
cpu0_L1D PREFETCH  ACCESS:          0  HIT:          0  MISS:          0
cpu0_L1D WRITEBACK ACCESS:          0  HIT:          0  MISS:          0
cpu0_L2C TOTAL     ACCESS:     454452  HIT:     412986  MISS:      41466
cpu0_L2C LOAD      ACCESS:     390142  HIT:     373056  MISS:      17086
cpu0_L2C RFO       ACCESS:      27479  HIT:       3108  MISS:      24371
cpu0_L2C PREFETCH  ACCESS:          0  HIT:          0  MISS:          0
cpu0_L2C WRITEBACK ACCESS:      35811  HIT:      35811  MISS:          0
LLC TOTAL     ACCESS:      67279  HIT:      40252  MISS:      27027
LLC LOAD      ACCESS:      17084  HIT:      15977  MISS:       1107
LLC RFO       ACCESS:      24372  HIT:        709  MISS:      23663
LLC PREFETCH  ACCESS:          0  HIT:          0  MISS:          0
LLC WRITEBACK ACCESS:      25814  HIT:      23560  MISS:       2254
Heartbeat CPU 0 instructions: 62000000 cycles: 26884748 heartbeat IPC: 1.00847 cumulative IPC: 0.993943 (Simulation time: 0 hr 43 min 2 sec) 

Region of Interest Statistics
cpu0_DTLB TOTAL     ACCESS:    2001263  HIT:    1789563  MISS:     211700
cpu0_DTLB LOAD      ACCESS:    1450743  HIT:    1246015  MISS:     204728
cpu0_DTLB RFO       ACCESS:     550520  HIT:     543548  MISS:       6972
cpu0_DTLB PREFETCH  ACCESS:          0  HIT:          0  MISS:          0
cpu0_DTLB WRITEBACK ACCESS:          0  HIT:          0  MISS:          0
cpu0_ITLB TOTAL     ACCESS:     797718  HIT:     791704  MISS:       6014
cpu0_ITLB LOAD      ACCESS:     797718  HIT:     791704  MISS:       6014
cpu0_ITLB RFO       ACCESS:          0  HIT:          0  MISS:          0
cpu0_ITLB PREFETCH  ACCESS:          0  HIT:          0  MISS:          0
cpu0_ITLB WRITEBACK ACCESS:          0  HIT:          0  MISS:          0
cpu0_L1I TOTAL     ACCESS:     804820  HIT:     766894  MISS:      37926
cpu0_L1I LOAD      ACCESS:     804820  HIT:     766894  MISS:      37926
cpu0_L1I RFO       ACCESS:          0  HIT:          0  MISS:          0
cpu0_L1I PREFETCH  ACCESS:          0  HIT:          0  MISS:          0
cpu0_L1I WRITEBACK ACCESS:          0  HIT:          0  MISS:          0
cpu0_STLB TOTAL     ACCESS:     217714  HIT:     205415  MISS:      12299
cpu0_STLB LOAD      ACCESS:     210742  HIT:     199030  MISS:      11712
cpu0_STLB RFO       ACCESS:       6972  HIT:       6385  MISS:        587
cpu0_STLB PREFETCH  ACCESS:          0  HIT:          0  MISS:          0
cpu0_STLB WRITEBACK ACCESS:          0  HIT:          0  MISS:          0
cpu0_L1D TOTAL     ACCESS:    2623108  HIT:    2155451  MISS:     467657
cpu0_L1D LOAD      ACCESS:    1605693  HIT:    1172086  MISS:     433607
cpu0_L1D RFO       ACCESS:    1005368  HIT:     972554  MISS:      32814
cpu0_L1D PREFETCH  ACCESS:          0  HIT:          0  MISS:          0
cpu0_L1D WRITEBACK ACCESS:          0  HIT:          0  MISS:          0
cpu0_L2C TOTAL     ACCESS:     548400  HIT:     499027  MISS:      49373
cpu0_L2C LOAD      ACCESS:     471528  HIT:     451162  MISS:      20366
cpu0_L2C RFO       ACCESS:      32814  HIT:       3816  MISS:      28998
cpu0_L2C PREFETCH  ACCESS:          0  HIT:          0  MISS:          0
cpu0_L2C WRITEBACK ACCESS:      42822  HIT:      42822  MISS:          0
LLC TOTAL     ACCESS:      80076  HIT:      48022  MISS:      32054
LLC LOAD      ACCESS:      20364  HIT:      19055  MISS:       1309
LLC RFO       ACCESS:      28998  HIT:        760  MISS:      28238
LLC PREFETCH  ACCESS:          0  HIT:          0  MISS:          0
LLC WRITEBACK ACCESS:      30705  HIT:      28201  MISS:       2504
Heartbeat CPU 0 instructions: 64000002 cycles: 28843331 heartbeat IPC: 1.02115 cumulative IPC: 0.99774 (Simulation time: 0 hr 44 min 44 sec) 

Region of Interest Statistics
cpu0_DTLB TOTAL     ACCESS:    2323353  HIT:    2079534  MISS:     243819
cpu0_DTLB LOAD      ACCESS:    1687791  HIT:    1451905  MISS:     235886
cpu0_DTLB RFO       ACCESS:     635562  HIT:     627629  MISS:       7933
cpu0_DTLB PREFETCH  ACCESS:          0  HIT:          0  MISS:          0
cpu0_DTLB WRITEBACK ACCESS:          0  HIT:          0  MISS:          0
cpu0_ITLB TOTAL     ACCESS:     922525  HIT:     915562  MISS:       6963
cpu0_ITLB LOAD      ACCESS:     922525  HIT:     915562  MISS:       6963
cpu0_ITLB RFO       ACCESS:          0  HIT:          0  MISS:          0
cpu0_ITLB PREFETCH  ACCESS:          0  HIT:          0  MISS:          0
cpu0_ITLB WRITEBACK ACCESS:          0  HIT:          0  MISS:          0
cpu0_L1I TOTAL     ACCESS:     931496  HIT:     887358  MISS:      44138
cpu0_L1I LOAD      ACCESS:     931496  HIT:     887358  MISS:      44138
cpu0_L1I RFO       ACCESS:          0  HIT:          0  MISS:          0
cpu0_L1I PREFETCH  ACCESS:          0  HIT:          0  MISS:          0
cpu0_L1I WRITEBACK ACCESS:          0  HIT:          0  MISS:          0
cpu0_STLB TOTAL     ACCESS:     250782  HIT:     236631  MISS:      14151
cpu0_STLB LOAD      ACCESS:     242849  HIT:     229379  MISS:      13470
cpu0_STLB RFO       ACCESS:       7933  HIT:       7252  MISS:        681
cpu0_STLB PREFETCH  ACCESS:          0  HIT:          0  MISS:          0
cpu0_STLB WRITEBACK ACCESS:          0  HIT:          0  MISS:          0
cpu0_L1D TOTAL     ACCESS:    3037693  HIT:    2491460  MISS:     546233
cpu0_L1D LOAD      ACCESS:    1862175  HIT:    1355466  MISS:     506709
cpu0_L1D RFO       ACCESS:    1161657  HIT:    1123568  MISS:      38089
cpu0_L1D PREFETCH  ACCESS:          0  HIT:          0  MISS:          0
cpu0_L1D WRITEBACK ACCESS:          0  HIT:          0  MISS:          0
cpu0_L2C TOTAL     ACCESS:     640035  HIT:     582942  MISS:      57093
cpu0_L2C LOAD      ACCESS:     550842  HIT:     527282  MISS:      23560
cpu0_L2C RFO       ACCESS:      38089  HIT:       4566  MISS:      33523
cpu0_L2C PREFETCH  ACCESS:          0  HIT:          0  MISS:          0
cpu0_L2C WRITEBACK ACCESS:      49669  HIT:      49669  MISS:          0
LLC TOTAL     ACCESS:      92569  HIT:      55552  MISS:      37017
LLC LOAD      ACCESS:      23558  HIT:      22054  MISS:       1504
LLC RFO       ACCESS:      33523  HIT:        809  MISS:      32714
LLC PREFETCH  ACCESS:          0  HIT:          0  MISS:          0
LLC WRITEBACK ACCESS:      35478  HIT:      32682  MISS:       2796
Heartbeat CPU 0 instructions: 66000000 cycles: 30799734 heartbeat IPC: 1.02228 cumulative IPC: 1.00074 (Simulation time: 0 hr 46 min 23 sec) 

Region of Interest Statistics
cpu0_DTLB TOTAL     ACCESS:    2641462  HIT:    2365461  MISS:     276001
cpu0_DTLB LOAD      ACCESS:    1923290  HIT:    1656200  MISS:     267090
cpu0_DTLB RFO       ACCESS:     718172  HIT:     709261  MISS:       8911
cpu0_DTLB PREFETCH  ACCESS:          0  HIT:          0  MISS:          0
cpu0_DTLB WRITEBACK ACCESS:          0  HIT:          0  MISS:          0
cpu0_ITLB TOTAL     ACCESS:    1044639  HIT:    1036753  MISS:       7886
cpu0_ITLB LOAD      ACCESS:    1044639  HIT:    1036753  MISS:       7886
cpu0_ITLB RFO       ACCESS:          0  HIT:          0  MISS:          0
cpu0_ITLB PREFETCH  ACCESS:          0  HIT:          0  MISS:          0
cpu0_ITLB WRITEBACK ACCESS:          0  HIT:          0  MISS:          0
cpu0_L1I TOTAL     ACCESS:    1054642  HIT:    1004480  MISS:      50162
cpu0_L1I LOAD      ACCESS:    1054642  HIT:    1004480  MISS:      50162
cpu0_L1I RFO       ACCESS:          0  HIT:          0  MISS:          0
cpu0_L1I PREFETCH  ACCESS:          0  HIT:          0  MISS:          0
cpu0_L1I WRITEBACK ACCESS:          0  HIT:          0  MISS:          0
cpu0_STLB TOTAL     ACCESS:     283887  HIT:     267826  MISS:      16061
cpu0_STLB LOAD      ACCESS:     274976  HIT:     259705  MISS:      15271
cpu0_STLB RFO       ACCESS:       8911  HIT:       8121  MISS:        790
cpu0_STLB PREFETCH  ACCESS:          0  HIT:          0  MISS:          0
cpu0_STLB WRITEBACK ACCESS:          0  HIT:          0  MISS:          0
cpu0_L1D TOTAL     ACCESS:    3445127  HIT:    2818215  MISS:     626912
cpu0_L1D LOAD      ACCESS:    2115238  HIT:    1533317  MISS:     581921
cpu0_L1D RFO       ACCESS:    1314158  HIT:    1270831  MISS:      43327
cpu0_L1D PREFETCH  ACCESS:          0  HIT:          0  MISS:          0
cpu0_L1D WRITEBACK ACCESS:          0  HIT:          0  MISS:          0
cpu0_L2C TOTAL     ACCESS:     733639  HIT:     668667  MISS:      64972
cpu0_L2C LOAD      ACCESS:     632077  HIT:     605135  MISS:      26942
cpu0_L2C RFO       ACCESS:      43327  HIT:       5307  MISS:      38020
cpu0_L2C PREFETCH  ACCESS:          0  HIT:          0  MISS:          0
cpu0_L2C WRITEBACK ACCESS:      56571  HIT:      56571  MISS:          0
LLC TOTAL     ACCESS:     105196  HIT:      63242  MISS:      41954
LLC LOAD      ACCESS:      26940  HIT:      25230  MISS:       1710
LLC RFO       ACCESS:      38020  HIT:        859  MISS:      37161
LLC PREFETCH  ACCESS:          0  HIT:          0  MISS:          0
LLC WRITEBACK ACCESS:      40226  HIT:      37146  MISS:       3080
Heartbeat CPU 0 instructions: 68000004 cycles: 32731816 heartbeat IPC: 1.03515 cumulative IPC: 1.00445 (Simulation time: 0 hr 48 min 2 sec) 

Region of Interest Statistics
cpu0_DTLB TOTAL     ACCESS:    2957504  HIT:    2651040  MISS:     306464
cpu0_DTLB LOAD      ACCESS:    2157151  HIT:    1860506  MISS:     296645
cpu0_DTLB RFO       ACCESS:     800353  HIT:     790534  MISS:       9819
cpu0_DTLB PREFETCH  ACCESS:          0  HIT:          0  MISS:          0
cpu0_DTLB WRITEBACK ACCESS:          0  HIT:          0  MISS:          0
cpu0_ITLB TOTAL     ACCESS:    1164830  HIT:    1156021  MISS:       8809
cpu0_ITLB LOAD      ACCESS:    1164830  HIT:    1156021  MISS:       8809
cpu0_ITLB RFO       ACCESS:          0  HIT:          0  MISS:          0
cpu0_ITLB PREFETCH  ACCESS:          0  HIT:          0  MISS:          0
cpu0_ITLB WRITEBACK ACCESS:          0  HIT:          0  MISS:          0
cpu0_L1I TOTAL     ACCESS:    1177455  HIT:    1121269  MISS:      56186
cpu0_L1I LOAD      ACCESS:    1177455  HIT:    1121269  MISS:      56186
cpu0_L1I RFO       ACCESS:          0  HIT:          0  MISS:          0
cpu0_L1I PREFETCH  ACCESS:          0  HIT:          0  MISS:          0
cpu0_L1I WRITEBACK ACCESS:          0  HIT:          0  MISS:          0
cpu0_STLB TOTAL     ACCESS:     315273  HIT:     297401  MISS:      17872
cpu0_STLB LOAD      ACCESS:     305454  HIT:     288470  MISS:      16984
cpu0_STLB RFO       ACCESS:       9819  HIT:       8931  MISS:        888
cpu0_STLB PREFETCH  ACCESS:          0  HIT:          0  MISS:          0
cpu0_STLB WRITEBACK ACCESS:          0  HIT:          0  MISS:          0
cpu0_L1D TOTAL     ACCESS:    3846514  HIT:    3139673  MISS:     706841
cpu0_L1D LOAD      ACCESS:    2363128  HIT:    1706708  MISS:     656420
cpu0_L1D RFO       ACCESS:    1465892  HIT:    1417335  MISS:      48557
cpu0_L1D PREFETCH  ACCESS:          0  HIT:          0  MISS:          0
cpu0_L1D WRITEBACK ACCESS:          0  HIT:          0  MISS:          0
cpu0_L2C TOTAL     ACCESS:     826454  HIT:     753863  MISS:      72591
cpu0_L2C LOAD      ACCESS:     712600  HIT:     682450  MISS:      30150
cpu0_L2C RFO       ACCESS:      48557  HIT:       6126  MISS:      42431
cpu0_L2C PREFETCH  ACCESS:          0  HIT:          0  MISS:          0
cpu0_L2C WRITEBACK ACCESS:      63433  HIT:      63433  MISS:          0
LLC TOTAL     ACCESS:     117474  HIT:      70555  MISS:      46919
LLC LOAD      ACCESS:      30148  HIT:      28229  MISS:       1919
LLC RFO       ACCESS:      42431  HIT:        911  MISS:      41520
LLC PREFETCH  ACCESS:          0  HIT:          0  MISS:          0
LLC WRITEBACK ACCESS:      44885  HIT:      41408  MISS:       3477
Heartbeat CPU 0 instructions: 70000000 cycles: 34688174 heartbeat IPC: 1.02231 cumulative IPC: 1.00621 (Simulation time: 0 hr 49 min 43 sec) 

Region of Interest Statistics
cpu0_DTLB TOTAL     ACCESS:    3269484  HIT:    2930409  MISS:     339075
cpu0_DTLB LOAD      ACCESS:    2390336  HIT:    2062051  MISS:     328285
cpu0_DTLB RFO       ACCESS:     879148  HIT:     868358  MISS:      10790
cpu0_DTLB PREFETCH  ACCESS:          0  HIT:          0  MISS:          0
cpu0_DTLB WRITEBACK ACCESS:          0  HIT:          0  MISS:          0
cpu0_ITLB TOTAL     ACCESS:    1280629  HIT:    1270936  MISS:       9693
cpu0_ITLB LOAD      ACCESS:    1280629  HIT:    1270936  MISS:       9693
cpu0_ITLB RFO       ACCESS:          0  HIT:          0  MISS:          0
cpu0_ITLB PREFETCH  ACCESS:          0  HIT:          0  MISS:          0
cpu0_ITLB WRITEBACK ACCESS:          0  HIT:          0  MISS:          0
cpu0_L1I TOTAL     ACCESS:    1294783  HIT:    1232950  MISS:      61833
cpu0_L1I LOAD      ACCESS:    1294783  HIT:    1232950  MISS:      61833
cpu0_L1I RFO       ACCESS:          0  HIT:          0  MISS:          0
cpu0_L1I PREFETCH  ACCESS:          0  HIT:          0  MISS:          0
cpu0_L1I WRITEBACK ACCESS:          0  HIT:          0  MISS:          0
cpu0_STLB TOTAL     ACCESS:     348768  HIT:     328921  MISS:      19847
cpu0_STLB LOAD      ACCESS:     337978  HIT:     319146  MISS:      18832
cpu0_STLB RFO       ACCESS:      10790  HIT:       9775  MISS:       1015
cpu0_STLB PREFETCH  ACCESS:          0  HIT:          0  MISS:          0
cpu0_STLB WRITEBACK ACCESS:          0  HIT:          0  MISS:          0
cpu0_L1D TOTAL     ACCESS:    4238458  HIT:    3445335  MISS:     793123
cpu0_L1D LOAD      ACCESS:    2608051  HIT:    1870838  MISS:     737213
cpu0_L1D RFO       ACCESS:    1610977  HIT:    1557169  MISS:      53808
cpu0_L1D PREFETCH  ACCESS:          0  HIT:          0  MISS:          0
cpu0_L1D WRITEBACK ACCESS:          0  HIT:          0  MISS:          0
cpu0_L2C TOTAL     ACCESS:     925647  HIT:     844813  MISS:      80834
cpu0_L2C LOAD      ACCESS:     799040  HIT:     764974  MISS:      34066
cpu0_L2C RFO       ACCESS:      53808  HIT:       7051  MISS:      46757
cpu0_L2C PREFETCH  ACCESS:          0  HIT:          0  MISS:          0
cpu0_L2C WRITEBACK ACCESS:      70697  HIT:      70697  MISS:          0
LLC TOTAL     ACCESS:     130360  HIT:      78564  MISS:      51796
LLC LOAD      ACCESS:      34064  HIT:      31878  MISS:       2186
LLC RFO       ACCESS:      46757  HIT:        986  MISS:      45771
LLC PREFETCH  ACCESS:          0  HIT:          0  MISS:          0
LLC WRITEBACK ACCESS:      49528  HIT:      45692  MISS:       3836
Heartbeat CPU 0 instructions: 72000000 cycles: 36606687 heartbeat IPC: 1.04247 cumulative IPC: 1.0094 (Simulation time: 0 hr 51 min 24 sec) 

Region of Interest Statistics
cpu0_DTLB TOTAL     ACCESS:    3581039  HIT:    3211348  MISS:     369691
cpu0_DTLB LOAD      ACCESS:    2622760  HIT:    2264889  MISS:     357871
cpu0_DTLB RFO       ACCESS:     958279  HIT:     946459  MISS:      11820
cpu0_DTLB PREFETCH  ACCESS:          0  HIT:          0  MISS:          0
cpu0_DTLB WRITEBACK ACCESS:          0  HIT:          0  MISS:          0
cpu0_ITLB TOTAL     ACCESS:    1395859  HIT:    1385269  MISS:      10590
cpu0_ITLB LOAD      ACCESS:    1395859  HIT:    1385269  MISS:      10590
cpu0_ITLB RFO       ACCESS:          0  HIT:          0  MISS:          0
cpu0_ITLB PREFETCH  ACCESS:          0  HIT:          0  MISS:          0
cpu0_ITLB WRITEBACK ACCESS:          0  HIT:          0  MISS:          0
cpu0_L1I TOTAL     ACCESS:    1412440  HIT:    1345070  MISS:      67370
cpu0_L1I LOAD      ACCESS:    1412440  HIT:    1345070  MISS:      67370
cpu0_L1I RFO       ACCESS:          0  HIT:          0  MISS:          0
cpu0_L1I PREFETCH  ACCESS:          0  HIT:          0  MISS:          0
cpu0_L1I WRITEBACK ACCESS:          0  HIT:          0  MISS:          0
cpu0_STLB TOTAL     ACCESS:     380281  HIT:     358539  MISS:      21742
cpu0_STLB LOAD      ACCESS:     368461  HIT:     347901  MISS:      20560
cpu0_STLB RFO       ACCESS:      11820  HIT:      10638  MISS:       1182
cpu0_STLB PREFETCH  ACCESS:          0  HIT:          0  MISS:          0
cpu0_STLB WRITEBACK ACCESS:          0  HIT:          0  MISS:          0
cpu0_L1D TOTAL     ACCESS:    4627843  HIT:    3750151  MISS:     877692
cpu0_L1D LOAD      ACCESS:    2850006  HIT:    2033681  MISS:     816325
cpu0_L1D RFO       ACCESS:    1756550  HIT:    1697541  MISS:      59009
cpu0_L1D PREFETCH  ACCESS:          0  HIT:          0  MISS:          0
cpu0_L1D WRITEBACK ACCESS:          0  HIT:          0  MISS:          0
cpu0_L2C TOTAL     ACCESS:    1022921  HIT:     934213  MISS:      88708
cpu0_L2C LOAD      ACCESS:     883689  HIT:     845994  MISS:      37695
cpu0_L2C RFO       ACCESS:      59009  HIT:       8007  MISS:      51002
cpu0_L2C PREFETCH  ACCESS:          0  HIT:          0  MISS:          0
cpu0_L2C WRITEBACK ACCESS:      77865  HIT:      77865  MISS:          0
LLC TOTAL     ACCESS:     142814  HIT:      86106  MISS:      56708
LLC LOAD      ACCESS:      37692  HIT:      35213  MISS:       2479
LLC RFO       ACCESS:      51002  HIT:       1061  MISS:      49941
LLC PREFETCH  ACCESS:          0  HIT:          0  MISS:          0
LLC WRITEBACK ACCESS:      54109  HIT:      49824  MISS:       4285
Heartbeat CPU 0 instructions: 74000000 cycles: 38212536 heartbeat IPC: 1.24545 cumulative IPC: 1.0256 (Simulation time: 0 hr 53 min 16 sec) 

Region of Interest Statistics
cpu0_DTLB TOTAL     ACCESS:    3825351  HIT:    3427553  MISS:     397798
cpu0_DTLB LOAD      ACCESS:    2828219  HIT:    2442657  MISS:     385562
cpu0_DTLB RFO       ACCESS:     997132  HIT:     984896  MISS:      12236
cpu0_DTLB PREFETCH  ACCESS:          0  HIT:          0  MISS:          0
cpu0_DTLB WRITEBACK ACCESS:          0  HIT:          0  MISS:          0
cpu0_ITLB TOTAL     ACCESS:    1464921  HIT:    1453901  MISS:      11020
cpu0_ITLB LOAD      ACCESS:    1464921  HIT:    1453901  MISS:      11020
cpu0_ITLB RFO       ACCESS:          0  HIT:          0  MISS:          0
cpu0_ITLB PREFETCH  ACCESS:          0  HIT:          0  MISS:          0
cpu0_ITLB WRITEBACK ACCESS:          0  HIT:          0  MISS:          0
cpu0_L1I TOTAL     ACCESS:    1467205  HIT:    1397350  MISS:      69855
cpu0_L1I LOAD      ACCESS:    1467205  HIT:    1397350  MISS:      69855
cpu0_L1I RFO       ACCESS:          0  HIT:          0  MISS:          0
cpu0_L1I PREFETCH  ACCESS:          0  HIT:          0  MISS:          0
cpu0_L1I WRITEBACK ACCESS:          0  HIT:          0  MISS:          0
cpu0_STLB TOTAL     ACCESS:     408818  HIT:     385486  MISS:      23332
cpu0_STLB LOAD      ACCESS:     396582  HIT:     374497  MISS:      22085
cpu0_STLB RFO       ACCESS:      12236  HIT:      10989  MISS:       1247
cpu0_STLB PREFETCH  ACCESS:          0  HIT:          0  MISS:          0
cpu0_STLB WRITEBACK ACCESS:          0  HIT:          0  MISS:          0
cpu0_L1D TOTAL     ACCESS:    4932455  HIT:    3983468  MISS:     948987
cpu0_L1D LOAD      ACCESS:    3081144  HIT:    2196196  MISS:     884948
cpu0_L1D RFO       ACCESS:    1828467  HIT:    1766967  MISS:      61500
cpu0_L1D PREFETCH  ACCESS:          0  HIT:          0  MISS:          0
cpu0_L1D WRITEBACK ACCESS:          0  HIT:          0  MISS:          0
cpu0_L2C TOTAL     ACCESS:    1100464  HIT:    1007057  MISS:      93407
cpu0_L2C LOAD      ACCESS:     954797  HIT:     914475  MISS:      40322
cpu0_L2C RFO       ACCESS:      61500  HIT:       8427  MISS:      53073
cpu0_L2C PREFETCH  ACCESS:          0  HIT:          0  MISS:          0
cpu0_L2C WRITEBACK ACCESS:      81628  HIT:      81628  MISS:          0
LLC TOTAL     ACCESS:     149844  HIT:      90661  MISS:      59183
LLC LOAD      ACCESS:      40319  HIT:      37626  MISS:       2693
LLC RFO       ACCESS:      53073  HIT:       1096  MISS:      51977
LLC PREFETCH  ACCESS:          0  HIT:          0  MISS:          0
LLC WRITEBACK ACCESS:      56440  HIT:      51931  MISS:       4509
Heartbeat CPU 0 instructions: 76000000 cycles: 39786999 heartbeat IPC: 1.27027 cumulative IPC: 1.04103 (Simulation time: 0 hr 55 min 17 sec) 

Region of Interest Statistics
cpu0_DTLB TOTAL     ACCESS:    4017829  HIT:    3590609  MISS:     427220
cpu0_DTLB LOAD      ACCESS:    3013850  HIT:    2599079  MISS:     414771
cpu0_DTLB RFO       ACCESS:    1003979  HIT:     991530  MISS:      12449
cpu0_DTLB PREFETCH  ACCESS:          0  HIT:          0  MISS:          0
cpu0_DTLB WRITEBACK ACCESS:          0  HIT:          0  MISS:          0
cpu0_ITLB TOTAL     ACCESS:    1500082  HIT:    1489059  MISS:      11023
cpu0_ITLB LOAD      ACCESS:    1500082  HIT:    1489059  MISS:      11023
cpu0_ITLB RFO       ACCESS:          0  HIT:          0  MISS:          0
cpu0_ITLB PREFETCH  ACCESS:          0  HIT:          0  MISS:          0
cpu0_ITLB WRITEBACK ACCESS:          0  HIT:          0  MISS:          0
cpu0_L1I TOTAL     ACCESS:    1468028  HIT:    1398167  MISS:      69861
cpu0_L1I LOAD      ACCESS:    1468028  HIT:    1398167  MISS:      69861
cpu0_L1I RFO       ACCESS:          0  HIT:          0  MISS:          0
cpu0_L1I PREFETCH  ACCESS:          0  HIT:          0  MISS:          0
cpu0_L1I WRITEBACK ACCESS:          0  HIT:          0  MISS:          0
cpu0_STLB TOTAL     ACCESS:     438243  HIT:     412541  MISS:      25702
cpu0_STLB LOAD      ACCESS:     425794  HIT:     401348  MISS:      24446
cpu0_STLB RFO       ACCESS:      12449  HIT:      11193  MISS:       1256
cpu0_STLB PREFETCH  ACCESS:          0  HIT:          0  MISS:          0
cpu0_STLB WRITEBACK ACCESS:          0  HIT:          0  MISS:          0
cpu0_L1D TOTAL     ACCESS:    5174526  HIT:    4164850  MISS:    1009676
cpu0_L1D LOAD      ACCESS:    3307446  HIT:    2362076  MISS:     945370
cpu0_L1D RFO       ACCESS:    1841937  HIT:    1780320  MISS:      61617
cpu0_L1D PREFETCH  ACCESS:          0  HIT:          0  MISS:          0
cpu0_L1D WRITEBACK ACCESS:          0  HIT:          0  MISS:          0
cpu0_L2C TOTAL     ACCESS:    1162083  HIT:    1064914  MISS:      97169
cpu0_L2C LOAD      ACCESS:    1015225  HIT:     971176  MISS:      44049
cpu0_L2C RFO       ACCESS:      61617  HIT:       8509  MISS:      53108
cpu0_L2C PREFETCH  ACCESS:          0  HIT:          0  MISS:          0
cpu0_L2C WRITEBACK ACCESS:      82552  HIT:      82552  MISS:          0
LLC TOTAL     ACCESS:     155290  HIT:      94492  MISS:      60798
LLC LOAD      ACCESS:      44046  HIT:      39908  MISS:       4138
LLC RFO       ACCESS:      53108  HIT:       1127  MISS:      51981
LLC PREFETCH  ACCESS:          0  HIT:          0  MISS:          0
LLC WRITEBACK ACCESS:      58124  HIT:      53449  MISS:       4675
Heartbeat CPU 0 instructions: 78000000 cycles: 41200018 heartbeat IPC: 1.41541 cumulative IPC: 1.06107 (Simulation time: 0 hr 57 min 17 sec) 

Region of Interest Statistics
cpu0_DTLB TOTAL     ACCESS:    4214553  HIT:    3756182  MISS:     458371
cpu0_DTLB LOAD      ACCESS:    3203003  HIT:    2757384  MISS:     445619
cpu0_DTLB RFO       ACCESS:    1011550  HIT:     998798  MISS:      12752
cpu0_DTLB PREFETCH  ACCESS:          0  HIT:          0  MISS:          0
cpu0_DTLB WRITEBACK ACCESS:          0  HIT:          0  MISS:          0
cpu0_ITLB TOTAL     ACCESS:    1537765  HIT:    1526742  MISS:      11023
cpu0_ITLB LOAD      ACCESS:    1537765  HIT:    1526742  MISS:      11023
cpu0_ITLB RFO       ACCESS:          0  HIT:          0  MISS:          0
cpu0_ITLB PREFETCH  ACCESS:          0  HIT:          0  MISS:          0
cpu0_ITLB WRITEBACK ACCESS:          0  HIT:          0  MISS:          0
cpu0_L1I TOTAL     ACCESS:    1468225  HIT:    1398364  MISS:      69861
cpu0_L1I LOAD      ACCESS:    1468225  HIT:    1398364  MISS:      69861
cpu0_L1I RFO       ACCESS:          0  HIT:          0  MISS:          0
cpu0_L1I PREFETCH  ACCESS:          0  HIT:          0  MISS:          0
cpu0_L1I WRITEBACK ACCESS:          0  HIT:          0  MISS:          0
cpu0_STLB TOTAL     ACCESS:     469394  HIT:     441836  MISS:      27558
cpu0_STLB LOAD      ACCESS:     456642  HIT:     430347  MISS:      26295
cpu0_STLB RFO       ACCESS:      12752  HIT:      11489  MISS:       1263
cpu0_STLB PREFETCH  ACCESS:          0  HIT:          0  MISS:          0
cpu0_STLB WRITEBACK ACCESS:          0  HIT:          0  MISS:          0
cpu0_L1D TOTAL     ACCESS:    5420980  HIT:    4349145  MISS:    1071835
cpu0_L1D LOAD      ACCESS:    3537399  HIT:    2530168  MISS:    1007231
cpu0_L1D RFO       ACCESS:    1856631  HIT:    1794874  MISS:      61757
cpu0_L1D PREFETCH  ACCESS:          0  HIT:          0  MISS:          0
cpu0_L1D WRITEBACK ACCESS:          0  HIT:          0  MISS:          0
cpu0_L2C TOTAL     ACCESS:    1225322  HIT:    1125738  MISS:      99584
cpu0_L2C LOAD      ACCESS:    1077086  HIT:    1030679  MISS:      46407
cpu0_L2C RFO       ACCESS:      61757  HIT:       8592  MISS:      53165
cpu0_L2C PREFETCH  ACCESS:          0  HIT:          0  MISS:          0
cpu0_L2C WRITEBACK ACCESS:      83632  HIT:      83632  MISS:          0
LLC TOTAL     ACCESS:     158266  HIT:      97390  MISS:      60876
LLC LOAD      ACCESS:      46404  HIT:      42232  MISS:       4172
LLC RFO       ACCESS:      53165  HIT:       1184  MISS:      51981
LLC PREFETCH  ACCESS:          0  HIT:          0  MISS:          0
LLC WRITEBACK ACCESS:      58685  HIT:      53966  MISS:       4719
Heartbeat CPU 0 instructions: 80000002 cycles: 42633365 heartbeat IPC: 1.39534 cumulative IPC: 1.07829 (Simulation time: 0 hr 59 min 6 sec) 

Region of Interest Statistics
cpu0_DTLB TOTAL     ACCESS:    4414161  HIT:    3923737  MISS:     490424
cpu0_DTLB LOAD      ACCESS:    3394832  HIT:    2917478  MISS:     477354
cpu0_DTLB RFO       ACCESS:    1019329  HIT:    1006259  MISS:      13070
cpu0_DTLB PREFETCH  ACCESS:          0  HIT:          0  MISS:          0
cpu0_DTLB WRITEBACK ACCESS:          0  HIT:          0  MISS:          0
cpu0_ITLB TOTAL     ACCESS:    1577647  HIT:    1566624  MISS:      11023
cpu0_ITLB LOAD      ACCESS:    1577647  HIT:    1566624  MISS:      11023
cpu0_ITLB RFO       ACCESS:          0  HIT:          0  MISS:          0
cpu0_ITLB PREFETCH  ACCESS:          0  HIT:          0  MISS:          0
cpu0_ITLB WRITEBACK ACCESS:          0  HIT:          0  MISS:          0
cpu0_L1I TOTAL     ACCESS:    1468417  HIT:    1398556  MISS:      69861
cpu0_L1I LOAD      ACCESS:    1468417  HIT:    1398556  MISS:      69861
cpu0_L1I RFO       ACCESS:          0  HIT:          0  MISS:          0
cpu0_L1I PREFETCH  ACCESS:          0  HIT:          0  MISS:          0
cpu0_L1I WRITEBACK ACCESS:          0  HIT:          0  MISS:          0
cpu0_STLB TOTAL     ACCESS:     501447  HIT:     471967  MISS:      29480
cpu0_STLB LOAD      ACCESS:     488377  HIT:     460170  MISS:      28207
cpu0_STLB RFO       ACCESS:      13070  HIT:      11797  MISS:       1273
cpu0_STLB PREFETCH  ACCESS:          0  HIT:          0  MISS:          0
cpu0_STLB WRITEBACK ACCESS:          0  HIT:          0  MISS:          0
cpu0_L1D TOTAL     ACCESS:    5670343  HIT:    4536541  MISS:    1133802
cpu0_L1D LOAD      ACCESS:    3769958  HIT:    2701048  MISS:    1068910
cpu0_L1D RFO       ACCESS:    1871567  HIT:    1809661  MISS:      61906
cpu0_L1D PREFETCH  ACCESS:          0  HIT:          0  MISS:          0
cpu0_L1D WRITEBACK ACCESS:          0  HIT:          0  MISS:          0
cpu0_L2C TOTAL     ACCESS:    1288325  HIT:    1186337  MISS:     101988
cpu0_L2C LOAD      ACCESS:    1138765  HIT:    1090023  MISS:      48742
cpu0_L2C RFO       ACCESS:      61906  HIT:       8672  MISS:      53234
cpu0_L2C PREFETCH  ACCESS:          0  HIT:          0  MISS:          0
cpu0_L2C WRITEBACK ACCESS:      84668  HIT:      84668  MISS:          0
LLC TOTAL     ACCESS:     161196  HIT:     100254  MISS:      60942
LLC LOAD      ACCESS:      48739  HIT:      44549  MISS:       4190
LLC RFO       ACCESS:      53234  HIT:       1252  MISS:      51982
LLC PREFETCH  ACCESS:          0  HIT:          0  MISS:          0
LLC WRITEBACK ACCESS:      59211  HIT:      54445  MISS:       4766
Heartbeat CPU 0 instructions: 82000000 cycles: 44076522 heartbeat IPC: 1.38585 cumulative IPC: 1.09346 (Simulation time: 1 hr 0 min 52 sec) 

Region of Interest Statistics
cpu0_DTLB TOTAL     ACCESS:    4615703  HIT:    4091797  MISS:     523906
cpu0_DTLB LOAD      ACCESS:    3588353  HIT:    3077875  MISS:     510478
cpu0_DTLB RFO       ACCESS:    1027350  HIT:    1013922  MISS:      13428
cpu0_DTLB PREFETCH  ACCESS:          0  HIT:          0  MISS:          0
cpu0_DTLB WRITEBACK ACCESS:          0  HIT:          0  MISS:          0
cpu0_ITLB TOTAL     ACCESS:    1619652  HIT:    1608629  MISS:      11023
cpu0_ITLB LOAD      ACCESS:    1619652  HIT:    1608629  MISS:      11023
cpu0_ITLB RFO       ACCESS:          0  HIT:          0  MISS:          0
cpu0_ITLB PREFETCH  ACCESS:          0  HIT:          0  MISS:          0
cpu0_ITLB WRITEBACK ACCESS:          0  HIT:          0  MISS:          0
cpu0_L1I TOTAL     ACCESS:    1468615  HIT:    1398754  MISS:      69861
cpu0_L1I LOAD      ACCESS:    1468615  HIT:    1398754  MISS:      69861
cpu0_L1I RFO       ACCESS:          0  HIT:          0  MISS:          0
cpu0_L1I PREFETCH  ACCESS:          0  HIT:          0  MISS:          0
cpu0_L1I WRITEBACK ACCESS:          0  HIT:          0  MISS:          0
cpu0_STLB TOTAL     ACCESS:     534929  HIT:     503576  MISS:      31353
cpu0_STLB LOAD      ACCESS:     521501  HIT:     491427  MISS:      30074
cpu0_STLB RFO       ACCESS:      13428  HIT:      12149  MISS:       1279
cpu0_STLB PREFETCH  ACCESS:          0  HIT:          0  MISS:          0
cpu0_STLB WRITEBACK ACCESS:          0  HIT:          0  MISS:          0
cpu0_L1D TOTAL     ACCESS:    5922047  HIT:    4726384  MISS:    1195663
cpu0_L1D LOAD      ACCESS:    4004257  HIT:    2873783  MISS:    1130474
cpu0_L1D RFO       ACCESS:    1887146  HIT:    1825087  MISS:      62059
cpu0_L1D PREFETCH  ACCESS:          0  HIT:          0  MISS:          0
cpu0_L1D WRITEBACK ACCESS:          0  HIT:          0  MISS:          0
cpu0_L2C TOTAL     ACCESS:    1351227  HIT:    1246809  MISS:     104418
cpu0_L2C LOAD      ACCESS:    1200329  HIT:    1149230  MISS:      51099
cpu0_L2C RFO       ACCESS:      62059  HIT:       8752  MISS:      53307
cpu0_L2C PREFETCH  ACCESS:          0  HIT:          0  MISS:          0
cpu0_L2C WRITEBACK ACCESS:      85709  HIT:      85709  MISS:          0
LLC TOTAL     ACCESS:     164157  HIT:     103159  MISS:      60998
LLC LOAD      ACCESS:      51096  HIT:      46883  MISS:       4213
LLC RFO       ACCESS:      53307  HIT:       1324  MISS:      51983
LLC PREFETCH  ACCESS:          0  HIT:          0  MISS:          0
LLC WRITEBACK ACCESS:      59742  HIT:      54944  MISS:       4798
Heartbeat CPU 0 instructions: 84000000 cycles: 45582731 heartbeat IPC: 1.32784 cumulative IPC: 1.10493 (Simulation time: 1 hr 2 min 43 sec) 

Region of Interest Statistics
cpu0_DTLB TOTAL     ACCESS:    4821302  HIT:    4259326  MISS:     561976
cpu0_DTLB LOAD      ACCESS:    3785742  HIT:    3237612  MISS:     548130
cpu0_DTLB RFO       ACCESS:    1035560  HIT:    1021714  MISS:      13846
cpu0_DTLB PREFETCH  ACCESS:          0  HIT:          0  MISS:          0
cpu0_DTLB WRITEBACK ACCESS:          0  HIT:          0  MISS:          0
cpu0_ITLB TOTAL     ACCESS:    1663904  HIT:    1652881  MISS:      11023
cpu0_ITLB LOAD      ACCESS:    1663904  HIT:    1652881  MISS:      11023
cpu0_ITLB RFO       ACCESS:          0  HIT:          0  MISS:          0
cpu0_ITLB PREFETCH  ACCESS:          0  HIT:          0  MISS:          0
cpu0_ITLB WRITEBACK ACCESS:          0  HIT:          0  MISS:          0
cpu0_L1I TOTAL     ACCESS:    1468820  HIT:    1398959  MISS:      69861
cpu0_L1I LOAD      ACCESS:    1468820  HIT:    1398959  MISS:      69861
cpu0_L1I RFO       ACCESS:          0  HIT:          0  MISS:          0
cpu0_L1I PREFETCH  ACCESS:          0  HIT:          0  MISS:          0
cpu0_L1I WRITEBACK ACCESS:          0  HIT:          0  MISS:          0
cpu0_STLB TOTAL     ACCESS:     572999  HIT:     539628  MISS:      33371
cpu0_STLB LOAD      ACCESS:     559153  HIT:     527075  MISS:      32078
cpu0_STLB RFO       ACCESS:      13846  HIT:      12553  MISS:       1293
cpu0_STLB PREFETCH  ACCESS:          0  HIT:          0  MISS:          0
cpu0_STLB WRITEBACK ACCESS:          0  HIT:          0  MISS:          0
cpu0_L1D TOTAL     ACCESS:    6178879  HIT:    4915552  MISS:    1263327
cpu0_L1D LOAD      ACCESS:    4243179  HIT:    3045339  MISS:    1197840
cpu0_L1D RFO       ACCESS:    1903092  HIT:    1840875  MISS:      62217
cpu0_L1D PREFETCH  ACCESS:          0  HIT:          0  MISS:          0
cpu0_L1D WRITEBACK ACCESS:          0  HIT:          0  MISS:          0
cpu0_L2C TOTAL     ACCESS:    1420045  HIT:    1313073  MISS:     106972
cpu0_L2C LOAD      ACCESS:    1267695  HIT:    1214115  MISS:      53580
cpu0_L2C RFO       ACCESS:      62217  HIT:       8837  MISS:      53380
cpu0_L2C PREFETCH  ACCESS:          0  HIT:          0  MISS:          0
cpu0_L2C WRITEBACK ACCESS:      86863  HIT:      86863  MISS:          0
LLC TOTAL     ACCESS:     167220  HIT:     106174  MISS:      61046
LLC LOAD      ACCESS:      53577  HIT:      49347  MISS:       4230
LLC RFO       ACCESS:      53380  HIT:       1396  MISS:      51984
LLC PREFETCH  ACCESS:          0  HIT:          0  MISS:          0
LLC WRITEBACK ACCESS:      60251  HIT:      55423  MISS:       4828
Heartbeat CPU 0 instructions: 86000001 cycles: 47117708 heartbeat IPC: 1.30295 cumulative IPC: 1.11434 (Simulation time: 1 hr 4 min 41 sec) 

Region of Interest Statistics
cpu0_DTLB TOTAL     ACCESS:    5031315  HIT:    4430285  MISS:     601030
cpu0_DTLB LOAD      ACCESS:    3987161  HIT:    3400351  MISS:     586810
cpu0_DTLB RFO       ACCESS:    1044154  HIT:    1029934  MISS:      14220
cpu0_DTLB PREFETCH  ACCESS:          0  HIT:          0  MISS:          0
cpu0_DTLB WRITEBACK ACCESS:          0  HIT:          0  MISS:          0
cpu0_ITLB TOTAL     ACCESS:    1710136  HIT:    1699113  MISS:      11023
cpu0_ITLB LOAD      ACCESS:    1710136  HIT:    1699113  MISS:      11023
cpu0_ITLB RFO       ACCESS:          0  HIT:          0  MISS:          0
cpu0_ITLB PREFETCH  ACCESS:          0  HIT:          0  MISS:          0
cpu0_ITLB WRITEBACK ACCESS:          0  HIT:          0  MISS:          0
cpu0_L1I TOTAL     ACCESS:    1469034  HIT:    1399173  MISS:      69861
cpu0_L1I LOAD      ACCESS:    1469034  HIT:    1399173  MISS:      69861
cpu0_L1I RFO       ACCESS:          0  HIT:          0  MISS:          0
cpu0_L1I PREFETCH  ACCESS:          0  HIT:          0  MISS:          0
cpu0_L1I WRITEBACK ACCESS:          0  HIT:          0  MISS:          0
cpu0_STLB TOTAL     ACCESS:     612053  HIT:     576572  MISS:      35481
cpu0_STLB LOAD      ACCESS:     597833  HIT:     563646  MISS:      34187
cpu0_STLB RFO       ACCESS:      14220  HIT:      12926  MISS:       1294
cpu0_STLB PREFETCH  ACCESS:          0  HIT:          0  MISS:          0
cpu0_STLB WRITEBACK ACCESS:          0  HIT:          0  MISS:          0
cpu0_L1D TOTAL     ACCESS:    6438517  HIT:    5108260  MISS:    1330257
cpu0_L1D LOAD      ACCESS:    4484252  HIT:    3219807  MISS:    1264445
cpu0_L1D RFO       ACCESS:    1919600  HIT:    1857211  MISS:      62389
cpu0_L1D PREFETCH  ACCESS:          0  HIT:          0  MISS:          0
cpu0_L1D WRITEBACK ACCESS:          0  HIT:          0  MISS:          0
cpu0_L2C TOTAL     ACCESS:    1488069  HIT:    1378635  MISS:     109434
cpu0_L2C LOAD      ACCESS:    1334300  HIT:    1278340  MISS:      55960
cpu0_L2C RFO       ACCESS:      62389  HIT:       8927  MISS:      53462
cpu0_L2C PREFETCH  ACCESS:          0  HIT:          0  MISS:          0
cpu0_L2C WRITEBACK ACCESS:      87957  HIT:      87957  MISS:          0
LLC TOTAL     ACCESS:     170204  HIT:     109126  MISS:      61078
LLC LOAD      ACCESS:      55957  HIT:      51715  MISS:       4242
LLC RFO       ACCESS:      53462  HIT:       1474  MISS:      51988
LLC PREFETCH  ACCESS:          0  HIT:          0  MISS:          0
LLC WRITEBACK ACCESS:      60773  HIT:      55929  MISS:       4844
Heartbeat CPU 0 instructions: 88000001 cycles: 48696476 heartbeat IPC: 1.26681 cumulative IPC: 1.12145 (Simulation time: 1 hr 6 min 30 sec) 

Region of Interest Statistics
cpu0_DTLB TOTAL     ACCESS:    5242852  HIT:    4597604  MISS:     645248
cpu0_DTLB LOAD      ACCESS:    4189989  HIT:    3559422  MISS:     630567
cpu0_DTLB RFO       ACCESS:    1052863  HIT:    1038182  MISS:      14681
cpu0_DTLB PREFETCH  ACCESS:          0  HIT:          0  MISS:          0
cpu0_DTLB WRITEBACK ACCESS:          0  HIT:          0  MISS:          0
cpu0_ITLB TOTAL     ACCESS:    1760312  HIT:    1749289  MISS:      11023
cpu0_ITLB LOAD      ACCESS:    1760312  HIT:    1749289  MISS:      11023
cpu0_ITLB RFO       ACCESS:          0  HIT:          0  MISS:          0
cpu0_ITLB PREFETCH  ACCESS:          0  HIT:          0  MISS:          0
cpu0_ITLB WRITEBACK ACCESS:          0  HIT:          0  MISS:          0
cpu0_L1I TOTAL     ACCESS:    1469252  HIT:    1399391  MISS:      69861
cpu0_L1I LOAD      ACCESS:    1469252  HIT:    1399391  MISS:      69861
cpu0_L1I RFO       ACCESS:          0  HIT:          0  MISS:          0
cpu0_L1I PREFETCH  ACCESS:          0  HIT:          0  MISS:          0
cpu0_L1I WRITEBACK ACCESS:          0  HIT:          0  MISS:          0
cpu0_STLB TOTAL     ACCESS:     656271  HIT:     618329  MISS:      37942
cpu0_STLB LOAD      ACCESS:     641590  HIT:     604944  MISS:      36646
cpu0_STLB RFO       ACCESS:      14681  HIT:      13385  MISS:       1296
cpu0_STLB PREFETCH  ACCESS:          0  HIT:          0  MISS:          0
cpu0_STLB WRITEBACK ACCESS:          0  HIT:          0  MISS:          0
cpu0_L1D TOTAL     ACCESS:    6702147  HIT:    5299605  MISS:    1402542
cpu0_L1D LOAD      ACCESS:    4728604  HIT:    3392179  MISS:    1336425
cpu0_L1D RFO       ACCESS:    1936487  HIT:    1873927  MISS:      62560
cpu0_L1D PREFETCH  ACCESS:          0  HIT:          0  MISS:          0
cpu0_L1D WRITEBACK ACCESS:          0  HIT:          0  MISS:          0
cpu0_L2C TOTAL     ACCESS:    1561566  HIT:    1449588  MISS:     111978
cpu0_L2C LOAD      ACCESS:    1406280  HIT:    1347856  MISS:      58424
cpu0_L2C RFO       ACCESS:      62560  HIT:       9018  MISS:      53542
cpu0_L2C PREFETCH  ACCESS:          0  HIT:          0  MISS:          0
cpu0_L2C WRITEBACK ACCESS:      89169  HIT:      89169  MISS:          0
LLC TOTAL     ACCESS:     173263  HIT:     112128  MISS:      61135
LLC LOAD      ACCESS:      58421  HIT:      54145  MISS:       4276
LLC RFO       ACCESS:      53542  HIT:       1553  MISS:      51989
LLC PREFETCH  ACCESS:          0  HIT:          0  MISS:          0
LLC WRITEBACK ACCESS:      61288  HIT:      56422  MISS:       4866
Heartbeat CPU 0 instructions: 90000001 cycles: 50326754 heartbeat IPC: 1.22678 cumulative IPC: 1.12628 (Simulation time: 1 hr 8 min 19 sec) 

Region of Interest Statistics
cpu0_DTLB TOTAL     ACCESS:    5460271  HIT:    4767923  MISS:     692348
cpu0_DTLB LOAD      ACCESS:    4398181  HIT:    3721133  MISS:     677048
cpu0_DTLB RFO       ACCESS:    1062090  HIT:    1046790  MISS:      15300
cpu0_DTLB PREFETCH  ACCESS:          0  HIT:          0  MISS:          0
cpu0_DTLB WRITEBACK ACCESS:          0  HIT:          0  MISS:          0
cpu0_ITLB TOTAL     ACCESS:    1814107  HIT:    1803084  MISS:      11023
cpu0_ITLB LOAD      ACCESS:    1814107  HIT:    1803084  MISS:      11023
cpu0_ITLB RFO       ACCESS:          0  HIT:          0  MISS:          0
cpu0_ITLB PREFETCH  ACCESS:          0  HIT:          0  MISS:          0
cpu0_ITLB WRITEBACK ACCESS:          0  HIT:          0  MISS:          0
cpu0_L1I TOTAL     ACCESS:    1469486  HIT:    1399625  MISS:      69861
cpu0_L1I LOAD      ACCESS:    1469486  HIT:    1399625  MISS:      69861
cpu0_L1I RFO       ACCESS:          0  HIT:          0  MISS:          0
cpu0_L1I PREFETCH  ACCESS:          0  HIT:          0  MISS:          0
cpu0_L1I WRITEBACK ACCESS:          0  HIT:          0  MISS:          0
cpu0_STLB TOTAL     ACCESS:     703371  HIT:     662883  MISS:      40488
cpu0_STLB LOAD      ACCESS:     688071  HIT:     648887  MISS:      39184
cpu0_STLB RFO       ACCESS:      15300  HIT:      13996  MISS:       1304
cpu0_STLB PREFETCH  ACCESS:          0  HIT:          0  MISS:          0
cpu0_STLB WRITEBACK ACCESS:          0  HIT:          0  MISS:          0
cpu0_L1D TOTAL     ACCESS:    6970949  HIT:    5495947  MISS:    1475002
cpu0_L1D LOAD      ACCESS:    4977026  HIT:    3568443  MISS:    1408583
cpu0_L1D RFO       ACCESS:    1954398  HIT:    1891667  MISS:      62731
cpu0_L1D PREFETCH  ACCESS:          0  HIT:          0  MISS:          0
cpu0_L1D WRITEBACK ACCESS:          0  HIT:          0  MISS:          0
cpu0_L2C TOTAL     ACCESS:    1635228  HIT:    1520706  MISS:     114522
cpu0_L2C LOAD      ACCESS:    1478438  HIT:    1417542  MISS:      60896
cpu0_L2C RFO       ACCESS:      62731  HIT:       9117  MISS:      53614
cpu0_L2C PREFETCH  ACCESS:          0  HIT:          0  MISS:          0
cpu0_L2C WRITEBACK ACCESS:      90371  HIT:      90371  MISS:          0
LLC TOTAL     ACCESS:     176402  HIT:     115168  MISS:      61234
LLC LOAD      ACCESS:      60893  HIT:      56549  MISS:       4344
LLC RFO       ACCESS:      53614  HIT:       1620  MISS:      51994
LLC PREFETCH  ACCESS:          0  HIT:          0  MISS:          0
LLC WRITEBACK ACCESS:      61883  HIT:      56991  MISS:       4892
Heartbeat CPU 0 instructions: 92000001 cycles: 52067290 heartbeat IPC: 1.14907 cumulative IPC: 1.12735 (Simulation time: 1 hr 10 min 22 sec) 

Region of Interest Statistics
cpu0_DTLB TOTAL     ACCESS:    5685858  HIT:    4941114  MISS:     744744
cpu0_DTLB LOAD      ACCESS:    4614144  HIT:    3885371  MISS:     728773
cpu0_DTLB RFO       ACCESS:    1071714  HIT:    1055743  MISS:      15971
cpu0_DTLB PREFETCH  ACCESS:          0  HIT:          0  MISS:          0
cpu0_DTLB WRITEBACK ACCESS:          0  HIT:          0  MISS:          0
cpu0_ITLB TOTAL     ACCESS:    1871699  HIT:    1860676  MISS:      11023
cpu0_ITLB LOAD      ACCESS:    1871699  HIT:    1860676  MISS:      11023
cpu0_ITLB RFO       ACCESS:          0  HIT:          0  MISS:          0
cpu0_ITLB PREFETCH  ACCESS:          0  HIT:          0  MISS:          0
cpu0_ITLB WRITEBACK ACCESS:          0  HIT:          0  MISS:          0
cpu0_L1I TOTAL     ACCESS:    1469728  HIT:    1399867  MISS:      69861
cpu0_L1I LOAD      ACCESS:    1469728  HIT:    1399867  MISS:      69861
cpu0_L1I RFO       ACCESS:          0  HIT:          0  MISS:          0
cpu0_L1I PREFETCH  ACCESS:          0  HIT:          0  MISS:          0
cpu0_L1I WRITEBACK ACCESS:          0  HIT:          0  MISS:          0
cpu0_STLB TOTAL     ACCESS:     755767  HIT:     712581  MISS:      43186
cpu0_STLB LOAD      ACCESS:     739796  HIT:     697922  MISS:      41874
cpu0_STLB RFO       ACCESS:      15971  HIT:      14659  MISS:       1312
cpu0_STLB PREFETCH  ACCESS:          0  HIT:          0  MISS:          0
cpu0_STLB WRITEBACK ACCESS:          0  HIT:          0  MISS:          0
cpu0_L1D TOTAL     ACCESS:    7248111  HIT:    5697318  MISS:    1550793
cpu0_L1D LOAD      ACCESS:    5232880  HIT:    3748874  MISS:    1484006
cpu0_L1D RFO       ACCESS:    1973088  HIT:    1910150  MISS:      62938
cpu0_L1D PREFETCH  ACCESS:          0  HIT:          0  MISS:          0
cpu0_L1D WRITEBACK ACCESS:          0  HIT:          0  MISS:          0
cpu0_L2C TOTAL     ACCESS:    1712315  HIT:    1594992  MISS:     117323
cpu0_L2C LOAD      ACCESS:    1553861  HIT:    1490272  MISS:      63589
cpu0_L2C RFO       ACCESS:      62938  HIT:       9217  MISS:      53721
cpu0_L2C PREFETCH  ACCESS:          0  HIT:          0  MISS:          0
cpu0_L2C WRITEBACK ACCESS:      91667  HIT:      91667  MISS:          0
LLC TOTAL     ACCESS:     179744  HIT:     118292  MISS:      61452
LLC LOAD      ACCESS:      63586  HIT:      59057  MISS:       4529
LLC RFO       ACCESS:      53721  HIT:       1703  MISS:      52018
LLC PREFETCH  ACCESS:          0  HIT:          0  MISS:          0
LLC WRITEBACK ACCESS:      62424  HIT:      57524  MISS:       4900
Heartbeat CPU 0 instructions: 94000001 cycles: 53888755 heartbeat IPC: 1.09802 cumulative IPC: 1.12598 (Simulation time: 1 hr 12 min 48 sec) 

Region of Interest Statistics
cpu0_DTLB TOTAL     ACCESS:    5917263  HIT:    5115577  MISS:     801686
cpu0_DTLB LOAD      ACCESS:    4835570  HIT:    4050631  MISS:     784939
cpu0_DTLB RFO       ACCESS:    1081693  HIT:    1064946  MISS:      16747
cpu0_DTLB PREFETCH  ACCESS:          0  HIT:          0  MISS:          0
cpu0_DTLB WRITEBACK ACCESS:          0  HIT:          0  MISS:          0
cpu0_ITLB TOTAL     ACCESS:    1935164  HIT:    1924141  MISS:      11023
cpu0_ITLB LOAD      ACCESS:    1935164  HIT:    1924141  MISS:      11023
cpu0_ITLB RFO       ACCESS:          0  HIT:          0  MISS:          0
cpu0_ITLB PREFETCH  ACCESS:          0  HIT:          0  MISS:          0
cpu0_ITLB WRITEBACK ACCESS:          0  HIT:          0  MISS:          0
cpu0_L1I TOTAL     ACCESS:    1469981  HIT:    1400120  MISS:      69861
cpu0_L1I LOAD      ACCESS:    1469981  HIT:    1400120  MISS:      69861
cpu0_L1I RFO       ACCESS:          0  HIT:          0  MISS:          0
cpu0_L1I PREFETCH  ACCESS:          0  HIT:          0  MISS:          0
cpu0_L1I WRITEBACK ACCESS:          0  HIT:          0  MISS:          0
cpu0_STLB TOTAL     ACCESS:     812709  HIT:     766703  MISS:      46006
cpu0_STLB LOAD      ACCESS:     795962  HIT:     751275  MISS:      44687
cpu0_STLB RFO       ACCESS:      16747  HIT:      15428  MISS:       1319
cpu0_STLB PREFETCH  ACCESS:          0  HIT:          0  MISS:          0
cpu0_STLB WRITEBACK ACCESS:          0  HIT:          0  MISS:          0
cpu0_L1D TOTAL     ACCESS:    7531386  HIT:    5901366  MISS:    1630020
cpu0_L1D LOAD      ACCESS:    5493783  HIT:    3930878  MISS:    1562905
cpu0_L1D RFO       ACCESS:    1992720  HIT:    1929598  MISS:      63122
cpu0_L1D PREFETCH  ACCESS:          0  HIT:          0  MISS:          0
cpu0_L1D WRITEBACK ACCESS:          0  HIT:          0  MISS:          0
cpu0_L2C TOTAL     ACCESS:    1792853  HIT:    1672745  MISS:     120108
cpu0_L2C LOAD      ACCESS:    1632760  HIT:    1566465  MISS:      66295
cpu0_L2C RFO       ACCESS:      63122  HIT:       9322  MISS:      53800
cpu0_L2C PREFETCH  ACCESS:          0  HIT:          0  MISS:          0
cpu0_L2C WRITEBACK ACCESS:      92978  HIT:      92978  MISS:          0
LLC TOTAL     ACCESS:     183180  HIT:     121439  MISS:      61741
LLC LOAD      ACCESS:      66292  HIT:      61507  MISS:       4785
LLC RFO       ACCESS:      53800  HIT:       1758  MISS:      52042
LLC PREFETCH  ACCESS:          0  HIT:          0  MISS:          0
LLC WRITEBACK ACCESS:      63075  HIT:      58166  MISS:       4909
Heartbeat CPU 0 instructions: 96000004 cycles: 55845879 heartbeat IPC: 1.02191 cumulative IPC: 1.12101 (Simulation time: 1 hr 14 min 52 sec) 

Region of Interest Statistics
cpu0_DTLB TOTAL     ACCESS:    6156481  HIT:    5290457  MISS:     866024
cpu0_DTLB LOAD      ACCESS:    5064487  HIT:    4216195  MISS:     848292
cpu0_DTLB RFO       ACCESS:    1091994  HIT:    1074262  MISS:      17732
cpu0_DTLB PREFETCH  ACCESS:          0  HIT:          0  MISS:          0
cpu0_DTLB WRITEBACK ACCESS:          0  HIT:          0  MISS:          0
cpu0_ITLB TOTAL     ACCESS:    2004575  HIT:    1993552  MISS:      11023
cpu0_ITLB LOAD      ACCESS:    2004575  HIT:    1993552  MISS:      11023
cpu0_ITLB RFO       ACCESS:          0  HIT:          0  MISS:          0
cpu0_ITLB PREFETCH  ACCESS:          0  HIT:          0  MISS:          0
cpu0_ITLB WRITEBACK ACCESS:          0  HIT:          0  MISS:          0
cpu0_L1I TOTAL     ACCESS:    1470247  HIT:    1400386  MISS:      69861
cpu0_L1I LOAD      ACCESS:    1470247  HIT:    1400386  MISS:      69861
cpu0_L1I RFO       ACCESS:          0  HIT:          0  MISS:          0
cpu0_L1I PREFETCH  ACCESS:          0  HIT:          0  MISS:          0
cpu0_L1I WRITEBACK ACCESS:          0  HIT:          0  MISS:          0
cpu0_STLB TOTAL     ACCESS:     877048  HIT:     827881  MISS:      49167
cpu0_STLB LOAD      ACCESS:     859316  HIT:     811482  MISS:      47834
cpu0_STLB RFO       ACCESS:      17732  HIT:      16399  MISS:       1333
cpu0_STLB PREFETCH  ACCESS:          0  HIT:          0  MISS:          0
cpu0_STLB WRITEBACK ACCESS:          0  HIT:          0  MISS:          0
cpu0_L1D TOTAL     ACCESS:    7823776  HIT:    6107936  MISS:    1715840
cpu0_L1D LOAD      ACCESS:    5762544  HIT:    4114178  MISS:    1648366
cpu0_L1D RFO       ACCESS:    2013278  HIT:    1949959  MISS:      63319
cpu0_L1D PREFETCH  ACCESS:          0  HIT:          0  MISS:          0
cpu0_L1D WRITEBACK ACCESS:          0  HIT:          0  MISS:          0
cpu0_L2C TOTAL     ACCESS:    1880128  HIT:    1756876  MISS:     123252
cpu0_L2C LOAD      ACCESS:    1718221  HIT:    1648869  MISS:      69352
cpu0_L2C RFO       ACCESS:      63319  HIT:       9432  MISS:      53887
cpu0_L2C PREFETCH  ACCESS:          0  HIT:          0  MISS:          0
cpu0_L2C WRITEBACK ACCESS:      94433  HIT:      94433  MISS:          0
LLC TOTAL     ACCESS:     186993  HIT:     124756  MISS:      62237
LLC LOAD      ACCESS:      69349  HIT:      64112  MISS:       5237
LLC RFO       ACCESS:      53887  HIT:       1807  MISS:      52080
LLC PREFETCH  ACCESS:          0  HIT:          0  MISS:          0
LLC WRITEBACK ACCESS:      63744  HIT:      58829  MISS:       4915
Heartbeat CPU 0 instructions: 98000001 cycles: 57897097 heartbeat IPC: 0.975029 cumulative IPC: 1.11406 (Simulation time: 1 hr 16 min 45 sec) 

Region of Interest Statistics
cpu0_DTLB TOTAL     ACCESS:    6404020  HIT:    5469299  MISS:     934721
cpu0_DTLB LOAD      ACCESS:    5300990  HIT:    4385127  MISS:     915863
cpu0_DTLB RFO       ACCESS:    1103030  HIT:    1084172  MISS:      18858
cpu0_DTLB PREFETCH  ACCESS:          0  HIT:          0  MISS:          0
cpu0_DTLB WRITEBACK ACCESS:          0  HIT:          0  MISS:          0
cpu0_ITLB TOTAL     ACCESS:    2081554  HIT:    2070531  MISS:      11023
cpu0_ITLB LOAD      ACCESS:    2081554  HIT:    2070531  MISS:      11023
cpu0_ITLB RFO       ACCESS:          0  HIT:          0  MISS:          0
cpu0_ITLB PREFETCH  ACCESS:          0  HIT:          0  MISS:          0
cpu0_ITLB WRITEBACK ACCESS:          0  HIT:          0  MISS:          0
cpu0_L1I TOTAL     ACCESS:    1470535  HIT:    1400674  MISS:      69861
cpu0_L1I LOAD      ACCESS:    1470535  HIT:    1400674  MISS:      69861
cpu0_L1I RFO       ACCESS:          0  HIT:          0  MISS:          0
cpu0_L1I PREFETCH  ACCESS:          0  HIT:          0  MISS:          0
cpu0_L1I WRITEBACK ACCESS:          0  HIT:          0  MISS:          0
cpu0_STLB TOTAL     ACCESS:     945744  HIT:     893242  MISS:      52502
cpu0_STLB LOAD      ACCESS:     926886  HIT:     875737  MISS:      51149
cpu0_STLB RFO       ACCESS:      18858  HIT:      17505  MISS:       1353
cpu0_STLB PREFETCH  ACCESS:          0  HIT:          0  MISS:          0
cpu0_STLB WRITEBACK ACCESS:          0  HIT:          0  MISS:          0
cpu0_L1D TOTAL     ACCESS:    8124123  HIT:    6321355  MISS:    1802768
cpu0_L1D LOAD      ACCESS:    6037495  HIT:    4302591  MISS:    1734904
cpu0_L1D RFO       ACCESS:    2035432  HIT:    1971887  MISS:      63545
cpu0_L1D PREFETCH  ACCESS:          0  HIT:          0  MISS:          0
cpu0_L1D WRITEBACK ACCESS:          0  HIT:          0  MISS:          0
cpu0_L2C TOTAL     ACCESS:    1968509  HIT:    1842003  MISS:     126506
cpu0_L2C LOAD      ACCESS:    1804758  HIT:    1732258  MISS:      72500
cpu0_L2C RFO       ACCESS:      63545  HIT:       9552  MISS:      53993
cpu0_L2C PREFETCH  ACCESS:          0  HIT:          0  MISS:          0
cpu0_L2C WRITEBACK ACCESS:      95887  HIT:      95887  MISS:          0
LLC TOTAL     ACCESS:     190976  HIT:     128079  MISS:      62897
LLC LOAD      ACCESS:      72497  HIT:      66672  MISS:       5825
LLC RFO       ACCESS:      53993  HIT:       1857  MISS:      52136
LLC PREFETCH  ACCESS:          0  HIT:          0  MISS:          0
LLC WRITEBACK ACCESS:      64473  HIT:      59542  MISS:       4931
Heartbeat CPU 0 instructions: 100000001 cycles: 60126383 heartbeat IPC: 0.897148 cumulative IPC: 1.10339 (Simulation time: 1 hr 18 min 42 sec) 

Region of Interest Statistics
cpu0_DTLB TOTAL     ACCESS:    6663854  HIT:    5649886  MISS:    1013968
cpu0_DTLB LOAD      ACCESS:    5549040  HIT:    4555143  MISS:     993897
cpu0_DTLB RFO       ACCESS:    1114814  HIT:    1094743  MISS:      20071
cpu0_DTLB PREFETCH  ACCESS:          0  HIT:          0  MISS:          0
cpu0_DTLB WRITEBACK ACCESS:          0  HIT:          0  MISS:          0
cpu0_ITLB TOTAL     ACCESS:    2162698  HIT:    2151675  MISS:      11023
cpu0_ITLB LOAD      ACCESS:    2162698  HIT:    2151675  MISS:      11023
cpu0_ITLB RFO       ACCESS:          0  HIT:          0  MISS:          0
cpu0_ITLB PREFETCH  ACCESS:          0  HIT:          0  MISS:          0
cpu0_ITLB WRITEBACK ACCESS:          0  HIT:          0  MISS:          0
cpu0_L1I TOTAL     ACCESS:    1470843  HIT:    1400982  MISS:      69861
cpu0_L1I LOAD      ACCESS:    1470843  HIT:    1400982  MISS:      69861
cpu0_L1I RFO       ACCESS:          0  HIT:          0  MISS:          0
cpu0_L1I PREFETCH  ACCESS:          0  HIT:          0  MISS:          0
cpu0_L1I WRITEBACK ACCESS:          0  HIT:          0  MISS:          0
cpu0_STLB TOTAL     ACCESS:    1024991  HIT:     968796  MISS:      56195
cpu0_STLB LOAD      ACCESS:    1004920  HIT:     950097  MISS:      54823
cpu0_STLB RFO       ACCESS:      20071  HIT:      18699  MISS:       1372
cpu0_STLB PREFETCH  ACCESS:          0  HIT:          0  MISS:          0
cpu0_STLB WRITEBACK ACCESS:          0  HIT:          0  MISS:          0
cpu0_L1D TOTAL     ACCESS:    8439026  HIT:    6539130  MISS:    1899896
cpu0_L1D LOAD      ACCESS:    6325140  HIT:    4493506  MISS:    1831634
cpu0_L1D RFO       ACCESS:    2059094  HIT:    1995313  MISS:      63781
cpu0_L1D PREFETCH  ACCESS:          0  HIT:          0  MISS:          0
cpu0_L1D WRITEBACK ACCESS:          0  HIT:          0  MISS:          0
cpu0_L2C TOTAL     ACCESS:    2067280  HIT:    1937384  MISS:     129896
cpu0_L2C LOAD      ACCESS:    1901488  HIT:    1825704  MISS:      75784
cpu0_L2C RFO       ACCESS:      63781  HIT:       9683  MISS:      54098
cpu0_L2C PREFETCH  ACCESS:          0  HIT:          0  MISS:          0
cpu0_L2C WRITEBACK ACCESS:      97530  HIT:      97530  MISS:          0
LLC TOTAL     ACCESS:     195175  HIT:     131300  MISS:      63875
LLC LOAD      ACCESS:      75781  HIT:      69083  MISS:       6698
LLC RFO       ACCESS:      54098  HIT:       1884  MISS:      52214
LLC PREFETCH  ACCESS:          0  HIT:          0  MISS:          0
LLC WRITEBACK ACCESS:      65282  HIT:      60324  MISS:       4958
Heartbeat CPU 0 instructions: 102000004 cycles: 62506481 heartbeat IPC: 0.840303 cumulative IPC: 1.09026 (Simulation time: 1 hr 20 min 44 sec) 

Region of Interest Statistics
cpu0_DTLB TOTAL     ACCESS:    6935907  HIT:    5832907  MISS:    1103000
cpu0_DTLB LOAD      ACCESS:    5808266  HIT:    4726649  MISS:    1081617
cpu0_DTLB RFO       ACCESS:    1127641  HIT:    1106258  MISS:      21383
cpu0_DTLB PREFETCH  ACCESS:          0  HIT:          0  MISS:          0
cpu0_DTLB WRITEBACK ACCESS:          0  HIT:          0  MISS:          0
cpu0_ITLB TOTAL     ACCESS:    2253587  HIT:    2242564  MISS:      11023
cpu0_ITLB LOAD      ACCESS:    2253587  HIT:    2242564  MISS:      11023
cpu0_ITLB RFO       ACCESS:          0  HIT:          0  MISS:          0
cpu0_ITLB PREFETCH  ACCESS:          0  HIT:          0  MISS:          0
cpu0_ITLB WRITEBACK ACCESS:          0  HIT:          0  MISS:          0
cpu0_L1I TOTAL     ACCESS:    1471177  HIT:    1401316  MISS:      69861
cpu0_L1I LOAD      ACCESS:    1471177  HIT:    1401316  MISS:      69861
cpu0_L1I RFO       ACCESS:          0  HIT:          0  MISS:          0
cpu0_L1I PREFETCH  ACCESS:          0  HIT:          0  MISS:          0
cpu0_L1I WRITEBACK ACCESS:          0  HIT:          0  MISS:          0
cpu0_STLB TOTAL     ACCESS:    1114023  HIT:    1053630  MISS:      60393
cpu0_STLB LOAD      ACCESS:    1092640  HIT:    1033649  MISS:      58991
cpu0_STLB RFO       ACCESS:      21383  HIT:      19981  MISS:       1402
cpu0_STLB PREFETCH  ACCESS:          0  HIT:          0  MISS:          0
cpu0_STLB WRITEBACK ACCESS:          0  HIT:          0  MISS:          0
cpu0_L1D TOTAL     ACCESS:    8768362  HIT:    6764311  MISS:    2004051
cpu0_L1D LOAD      ACCESS:    6624654  HIT:    4689331  MISS:    1935323
cpu0_L1D RFO       ACCESS:    2084807  HIT:    2020757  MISS:      64050
cpu0_L1D PREFETCH  ACCESS:          0  HIT:          0  MISS:          0
cpu0_L1D WRITEBACK ACCESS:          0  HIT:          0  MISS:          0
cpu0_L2C TOTAL     ACCESS:    2173220  HIT:    2039556  MISS:     133664
cpu0_L2C LOAD      ACCESS:    2005177  HIT:    1925754  MISS:      79423
cpu0_L2C RFO       ACCESS:      64050  HIT:       9823  MISS:      54227
cpu0_L2C PREFETCH  ACCESS:          0  HIT:          0  MISS:          0
cpu0_L2C WRITEBACK ACCESS:      99315  HIT:      99315  MISS:          0
LLC TOTAL     ACCESS:     199830  HIT:     134855  MISS:      64975
LLC LOAD      ACCESS:      79420  HIT:      71755  MISS:       7665
LLC RFO       ACCESS:      54227  HIT:       1912  MISS:      52315
LLC PREFETCH  ACCESS:          0  HIT:          0  MISS:          0
LLC WRITEBACK ACCESS:      66169  HIT:      61179  MISS:       4990
Heartbeat CPU 0 instructions: 104000001 cycles: 65161998 heartbeat IPC: 0.753148 cumulative IPC: 1.07248 (Simulation time: 1 hr 22 min 48 sec) 

Region of Interest Statistics
cpu0_DTLB TOTAL     ACCESS:    7231089  HIT:    6025818  MISS:    1205271
cpu0_DTLB LOAD      ACCESS:    6089193  HIT:    4906737  MISS:    1182456
cpu0_DTLB RFO       ACCESS:    1141896  HIT:    1119081  MISS:      22815
cpu0_DTLB PREFETCH  ACCESS:          0  HIT:          0  MISS:          0
cpu0_DTLB WRITEBACK ACCESS:          0  HIT:          0  MISS:          0
cpu0_ITLB TOTAL     ACCESS:    2354231  HIT:    2343208  MISS:      11023
cpu0_ITLB LOAD      ACCESS:    2354231  HIT:    2343208  MISS:      11023
cpu0_ITLB RFO       ACCESS:          0  HIT:          0  MISS:          0
cpu0_ITLB PREFETCH  ACCESS:          0  HIT:          0  MISS:          0
cpu0_ITLB WRITEBACK ACCESS:          0  HIT:          0  MISS:          0
cpu0_L1I TOTAL     ACCESS:    1471543  HIT:    1401682  MISS:      69861
cpu0_L1I LOAD      ACCESS:    1471543  HIT:    1401682  MISS:      69861
cpu0_L1I RFO       ACCESS:          0  HIT:          0  MISS:          0
cpu0_L1I PREFETCH  ACCESS:          0  HIT:          0  MISS:          0
cpu0_L1I WRITEBACK ACCESS:          0  HIT:          0  MISS:          0
cpu0_STLB TOTAL     ACCESS:    1216294  HIT:    1151150  MISS:      65144
cpu0_STLB LOAD      ACCESS:    1193479  HIT:    1129755  MISS:      63724
cpu0_STLB RFO       ACCESS:      22815  HIT:      21395  MISS:       1420
cpu0_STLB PREFETCH  ACCESS:          0  HIT:          0  MISS:          0
cpu0_STLB WRITEBACK ACCESS:          0  HIT:          0  MISS:          0
cpu0_L1D TOTAL     ACCESS:    9120407  HIT:    7001957  MISS:    2118450
cpu0_L1D LOAD      ACCESS:    6943465  HIT:    4894247  MISS:    2049218
cpu0_L1D RFO       ACCESS:    2113383  HIT:    2049050  MISS:      64333
cpu0_L1D PREFETCH  ACCESS:          0  HIT:          0  MISS:          0
cpu0_L1D WRITEBACK ACCESS:          0  HIT:          0  MISS:          0
cpu0_L2C TOTAL     ACCESS:    2289601  HIT:    2151790  MISS:     137811
cpu0_L2C LOAD      ACCESS:    2119073  HIT:    2035635  MISS:      83438
cpu0_L2C RFO       ACCESS:      64333  HIT:       9974  MISS:      54359
cpu0_L2C PREFETCH  ACCESS:          0  HIT:          0  MISS:          0
cpu0_L2C WRITEBACK ACCESS:     101296  HIT:     101296  MISS:          0
LLC TOTAL     ACCESS:     204990  HIT:     138726  MISS:      66264
LLC LOAD      ACCESS:      83435  HIT:      74646  MISS:       8789
LLC RFO       ACCESS:      54359  HIT:       1928  MISS:      52431
LLC PREFETCH  ACCESS:          0  HIT:          0  MISS:          0
LLC WRITEBACK ACCESS:      67182  HIT:      62143  MISS:       5039
Heartbeat CPU 0 instructions: 106000002 cycles: 68144609 heartbeat IPC: 0.670554 cumulative IPC: 1.05001 (Simulation time: 1 hr 24 min 53 sec) 

Region of Interest Statistics
cpu0_DTLB TOTAL     ACCESS:    7552618  HIT:    6227675  MISS:    1324943
cpu0_DTLB LOAD      ACCESS:    6394326  HIT:    5093738  MISS:    1300588
cpu0_DTLB RFO       ACCESS:    1158292  HIT:    1133937  MISS:      24355
cpu0_DTLB PREFETCH  ACCESS:          0  HIT:          0  MISS:          0
cpu0_DTLB WRITEBACK ACCESS:          0  HIT:          0  MISS:          0
cpu0_ITLB TOTAL     ACCESS:    2467002  HIT:    2455979  MISS:      11023
cpu0_ITLB LOAD      ACCESS:    2467002  HIT:    2455979  MISS:      11023
cpu0_ITLB RFO       ACCESS:          0  HIT:          0  MISS:          0
cpu0_ITLB PREFETCH  ACCESS:          0  HIT:          0  MISS:          0
cpu0_ITLB WRITEBACK ACCESS:          0  HIT:          0  MISS:          0
cpu0_L1I TOTAL     ACCESS:    1471964  HIT:    1402103  MISS:      69861
cpu0_L1I LOAD      ACCESS:    1471964  HIT:    1402103  MISS:      69861
cpu0_L1I RFO       ACCESS:          0  HIT:          0  MISS:          0
cpu0_L1I PREFETCH  ACCESS:          0  HIT:          0  MISS:          0
cpu0_L1I WRITEBACK ACCESS:          0  HIT:          0  MISS:          0
cpu0_STLB TOTAL     ACCESS:    1335966  HIT:    1265323  MISS:      70643
cpu0_STLB LOAD      ACCESS:    1311611  HIT:    1242419  MISS:      69192
cpu0_STLB RFO       ACCESS:      24355  HIT:      22904  MISS:       1451
cpu0_STLB PREFETCH  ACCESS:          0  HIT:          0  MISS:          0
cpu0_STLB WRITEBACK ACCESS:          0  HIT:          0  MISS:          0
cpu0_L1D TOTAL     ACCESS:    9501254  HIT:    7254641  MISS:    2246613
cpu0_L1D LOAD      ACCESS:    7286135  HIT:    5109337  MISS:    2176798
cpu0_L1D RFO       ACCESS:    2146176  HIT:    2081511  MISS:      64665
cpu0_L1D PREFETCH  ACCESS:          0  HIT:          0  MISS:          0
cpu0_L1D WRITEBACK ACCESS:          0  HIT:          0  MISS:          0
cpu0_L2C TOTAL     ACCESS:    2420026  HIT:    2277433  MISS:     142593
cpu0_L2C LOAD      ACCESS:    2246652  HIT:    2158587  MISS:      88065
cpu0_L2C RFO       ACCESS:      64665  HIT:      10151  MISS:      54514
cpu0_L2C PREFETCH  ACCESS:          0  HIT:          0  MISS:          0
cpu0_L2C WRITEBACK ACCESS:     103559  HIT:     103559  MISS:          0
[...]
cpu0_DTLB WRITEBACK ACCESS:          0  HIT:          0  MISS:          0
cpu0_DTLB TRANSLATION ACCESS:          0  HIT:          0  MISS:          0
cpu0_DTLB PREFETCH  REQUESTED:          0  ISSUED:          0  USEFUL:          0  USELESS:          0
cpu0_DTLB AVERAGE MISS LATENCY: 9.55491 cycles
cpu0_ITLB TOTAL     ACCESS:   75557452  HIT:   75110892  MISS:     446560
cpu0_ITLB LOAD      ACCESS:   75557452  HIT:   75110892  MISS:     446560
cpu0_ITLB RFO       ACCESS:          0  HIT:          0  MISS:          0
cpu0_ITLB PREFETCH  ACCESS:          0  HIT:          0  MISS:          0
cpu0_ITLB WRITEBACK ACCESS:          0  HIT:          0  MISS:          0
cpu0_ITLB TRANSLATION ACCESS:          0  HIT:          0  MISS:          0
cpu0_ITLB PREFETCH  REQUESTED:          0  ISSUED:          0  USEFUL:          0  USELESS:          0
cpu0_ITLB AVERAGE MISS LATENCY: 9.72183 cycles
cpu0_L1I TOTAL     ACCESS:   56223651  HIT:   53614802  MISS:    2608849
cpu0_L1I LOAD      ACCESS:   56223651  HIT:   53614802  MISS:    2608849
cpu0_L1I RFO       ACCESS:          0  HIT:          0  MISS:          0
cpu0_L1I PREFETCH  ACCESS:          0  HIT:          0  MISS:          0
cpu0_L1I WRITEBACK ACCESS:          0  HIT:          0  MISS:          0
cpu0_L1I TRANSLATION ACCESS:          0  HIT:          0  MISS:          0
cpu0_L1I PREFETCH  REQUESTED:          0  ISSUED:          0  USEFUL:          0  USELESS:          0
cpu0_L1I AVERAGE MISS LATENCY: 12.8096 cycles
cpu0_STLB TOTAL     ACCESS:   36044549  HIT:   34158513  MISS:    1886036
cpu0_STLB LOAD      ACCESS:   35377921  HIT:   33551999  MISS:    1825922
cpu0_STLB RFO       ACCESS:     666628  HIT:     606514  MISS:      60114
cpu0_STLB PREFETCH  ACCESS:          0  HIT:          0  MISS:          0
cpu0_STLB WRITEBACK ACCESS:          0  HIT:          0  MISS:          0
cpu0_STLB TRANSLATION ACCESS:          0  HIT:          0  MISS:          0
cpu0_STLB PREFETCH  REQUESTED:          0  ISSUED:          0  USEFUL:          0  USELESS:          0
cpu0_STLB AVERAGE MISS LATENCY: 10.5312 cycles
cpu0_L1D TOTAL     ACCESS:  268623187  HIT:  195546123  MISS:   73077064
cpu0_L1D LOAD      ACCESS:  189021679  HIT:  118785265  MISS:   70236414
cpu0_L1D RFO       ACCESS:   77758758  HIT:   75063748  MISS:    2695010
cpu0_L1D PREFETCH  ACCESS:          0  HIT:          0  MISS:          0
cpu0_L1D WRITEBACK ACCESS:          0  HIT:          0  MISS:          0
cpu0_L1D TRANSLATION ACCESS:    1842750  HIT:    1697110  MISS:     145640
cpu0_L1D PREFETCH  REQUESTED:          0  ISSUED:          0  USEFUL:          0  USELESS:          0
cpu0_L1D AVERAGE MISS LATENCY: 22.0073 cycles
cpu0_L2C TOTAL     ACCESS:   79674494  HIT:   74498090  MISS:    5176404
cpu0_L2C LOAD      ACCESS:   72844768  HIT:   69939718  MISS:    2905050
cpu0_L2C RFO       ACCESS:    2694949  HIT:     424525  MISS:    2270424
cpu0_L2C PREFETCH  ACCESS:          0  HIT:          0  MISS:          0
cpu0_L2C WRITEBACK ACCESS:    3989137  HIT:    3989098  MISS:         39
cpu0_L2C TRANSLATION ACCESS:     145640  HIT:     144749  MISS:        891
cpu0_L2C PREFETCH  REQUESTED:          0  ISSUED:          0  USEFUL:          0  USELESS:          0
cpu0_L2C AVERAGE MISS LATENCY: 154.549 cycles
LLC TOTAL     ACCESS:    7766212  HIT:    5463690  MISS:    2302522
LLC LOAD      ACCESS:    2904991  HIT:    2679954  MISS:     225037
LLC RFO       ACCESS:    2270424  HIT:     350146  MISS:    1920278
LLC PREFETCH  ACCESS:          0  HIT:          0  MISS:          0
LLC WRITEBACK ACCESS:    2589906  HIT:    2432858  MISS:     157048
LLC TRANSLATION ACCESS:        891  HIT:        732  MISS:        159
LLC PREFETCH  REQUESTED:          0  ISSUED:          0  USEFUL:          0  USELESS:          0
LLC AVERAGE MISS LATENCY: 300.237 cycles
~~~~~~~~~~Reuse Distance Profiler output~~~~~~~~~~
0	68799632	27586160
1	16640080	10717840
2	11092704	7411360
3	6588688	4059856
4	5101776	3410704
5	3715472	2387600
6	3164976	1472208
7	2442096	1146848
8	2162320	1007328
9	2332880	1047136
10	2062768	1181264
11	1821584	870832
12	1300272	635616
13	1285616	696192
14	1248608	806016
15	1299488	751280
16	1319856	884064
17	1022320	721296
18	962448	522256
19	1264352	962400
20	660272	417184
21	522800	311904
22	556960	319520
23	514464	315200
24	321280	173184
25	370832	205520
26	381744	214352
27	385344	220352
28	395904	195536
29	341456	168624
30	389776	238944
31	445872	206016
32	465696	267616
33	420864	270576
34	363648	225952
35	317888	188784
36	286720	164032
37	294368	170096
38	351744	288640
39	414512	302848
40	334864	275760
41	310080	249200
42	237536	158608
43	343904	252512
44	272704	192176
45	308528	225984
46	255248	170864
47	217088	120176
48	240096	148640
49	185472	75712
50	219424	103552
51	173232	86816
52	215216	124688
53	191072	115984
54	227520	123728
55	230656	159536
56	205728	125280
57	239952	168496
58	191840	124208
59	223984	159024
60	236896	132848
61	253072	176528
62	244608	119632
63	316864	192112
64	404832	298464
66	338176	203872
68	298832	230976
70	398864	317728
72	291424	189920
74	360576	238224
76	302624	195776
78	257664	190528
80	373600	298272
82	354784	316368
84	478848	430192
86	400672	357344
88	282128	261424
90	214944	191296
92	219984	187616
94	207760	175136
96	176000	131872
98	160480	100576
100	152912	113984
102	142672	121648
104	158144	133280
106	204608	162928
108	185024	105184
110	202288	122480
112	127776	85744
114	140752	124976
116	126080	110384
118	131344	112480
120	95200	75296
122	77856	58272
124	99536	85392
126	144960	122272
128	355984	285632
132	386096	289984
136	307136	216016
140	264848	213120
144	206144	183920
148	181536	156848
152	205552	160064
156	236832	206352
160	242096	200576
164	250240	197920
168	282448	255632
172	216352	188912
176	244528	174304
180	240208	190352
184	253248	216832
188	259728	208032
192	221392	166784
196	131056	105024
200	154384	144448
204	234288	226336
208	311456	266480
212	226384	210944
216	144224	134928
220	110336	84304
224	102128	90000
228	118272	109792
232	139552	132704
236	163776	154272
240	99520	81856
244	116464	87232
248	135648	117168
252	118240	108560
256	129840	108208
264	115808	96176
272	104640	93136
280	156544	143440
288	156512	122384
296	118592	110512
304	173728	167408
312	185696	148400
320	205824	178688
328	221776	188576
336	218912	175280
344	193728	181520
352	216160	206912
360	232400	215744
368	215120	201424
376	233456	212768
384	256416	226240
392	365728	334512
400	299664	271696
408	399424	357232
416	281408	245744
424	250288	207872
432	307408	276608
440	275248	235136
448	245200	190096
456	195968	169376
464	178352	143584
472	213760	170720
480	241552	220000
488	227616	221264
496	206352	199920
504	198736	188432
512	567888	541872
528	296896	263920
544	380176	339376
560	365824	351600
576	380640	366224
592	395744	361040
608	379552	340464
624	445584	408656
640	465072	447376
656	433904	418704
672	394528	375728
688	349296	327456
704	377344	342880
720	377168	339680
736	429344	390800
752	392224	363584
768	525936	456704
784	413680	368544
800	383648	364096
816	356944	341856
832	448480	407056
848	462160	419504
864	367616	354272
880	358192	334992
896	436912	396192
912	457248	423792
928	442448	414976
944	408960	388656
960	433168	418528
976	423600	380352
992	410368	354224
1008	382768	346992
1024	830928	808944
1056	881728	843248
1088	711248	682048
1120	689712	669792
1152	697120	679344
1184	689360	668912
1216	621728	597264
1248	689776	669440
1280	618368	601536
1312	509664	493264
1344	654720	637536
1376	801408	783968
1408	1082192	1064160
1440	2179520	2160112
1472	1358080	1340656
1504	1081488	1065872
1536	1589904	1571312
1568	2150992	2128896
1600	804448	790608
1632	586272	576208
1664	541808	533616
1696	272800	265152
1728	196512	189536
1760	150032	142240
1792	129776	123248
1824	125856	120000
1856	107696	101520
1888	127568	121632
1920	129584	123664
1952	155888	141520
1984	123760	113168
2016	112512	91264
2048	135008	124640
2112	130544	119008
2176	157312	141568
2240	177424	163872
2304	224928	212096
2368	182192	168720
2432	189808	177632
2496	146864	132816
2560	117952	102368
2624	139808	121472
2688	131808	112240
2752	118032	98384
2816	129904	109904
2880	126608	111824
2944	153904	138800
3008	167344	154848
3072	132592	121744
3136	123504	113376
3200	102416	93520
3264	88416	81344
3328	87872	81248
3392	108480	101776
3456	127568	119232
3520	123920	113856
3584	155328	146944
3648	139264	131424
3712	121360	112704
3776	162064	153920
3840	233600	223152
3904	267984	256896
3968	272496	262096
4032	293616	283632
4096	619776	601792
4224	799440	771744
4352	882240	853392
4480	1108752	1080032
4608	1856416	1829056
4736	2315744	2285648
4864	882512	871984
4992	703088	697120
5120	711664	705680
5248	737104	732320
5376	1015616	1004560
5504	405904	398272
5632	318960	308896
5760	672128	661424
5888	521328	514784
6016	306032	301840
6144	305440	301328
6272	158784	153152
6400	206768	201616
6528	218848	211536
6656	192096	183424
6784	215360	204736
6912	279696	271664
7040	362464	358224
7168	425456	419728
7296	409504	404176
7424	447232	442784
7552	418528	414480
7680	360304	356512
7808	337472	332864
7936	342832	337360
8064	390528	384256
8192	894704	880112
8448	1019392	1005328
8704	1012800	1005952
8960	1054880	1051408
9216	641536	639840
9472	597552	595408
9728	868416	866400
9984	641776	641200
10240	537296	537152
10496	547216	547072
10752	591088	590992
11008	573936	573808
11264	508320	508096
11520	514480	514304
11776	551088	550864
12032	436192	435968
12288	499056	498848
12544	533552	533232
12800	466688	466384
13056	488528	488272
13312	425408	425264
13568	420400	420208
13824	475552	475360
14080	455152	454912
14336	414208	414112
14592	427536	427456
14848	352848	352768
15104	365424	365248
15360	375440	375200
15616	373856	373504
15872	273392	272880
16128	255440	255120
16384	332576	331920
16896	516480	515936
17408	1237040	1236192
17920	1883648	1882960
18432	829216	827856
18944	454608	453968
19456	1091216	1090416
19968	1285696	1284800
20480	1123104	1122240
20992	1196736	1195808
21504	1024496	1023264
22016	1295216	1294224
22528	1762848	1761472
23040	2108736	2107488
23552	1237072	1236384
24064	1244272	1243648
24576	1152000	1151248
25088	1032464	1031840
25600	1141008	1140720
26112	1049920	1049440
26624	960080	959440
27136	1048736	1048128
27648	2286656	2286336
28160	301360	301184
28672	169968	169904
29184	204880	204720
29696	165440	165248
30208	143040	142864
30720	137072	136912
31232	249168	249040
31744	116544	116304
32256	3056	2864
32768	5456	5184
33792	5216	5056
34816	10480	10272
35840	7968	7792
36864	7136	6976
37888	5248	5136
38912	4480	4304
39936	4992	4768
40960	5328	5072
41984	5664	5440
43008	3600	3488
44032	6848	6576
45056	3088	2832
46080	4112	3872
47104	4800	4640
48128	3520	3344
49152	3120	2944
50176	6896	6656
51200	3488	3264
52224	6304	6176
53248	4640	4544
54272	3472	3312
55296	11552	11328
56320	2416	2352
57344	2400	2240
58368	7008	6864
59392	1872	1744
60416	5472	5360
61440	1792	1728
62464	7088	7008
63488	6784	6688
64512	1472	1360
65536	5952	5776
67584	7952	7616
69632	4752	4640
71680	2976	2832
73728	9360	9248
75776	1120	992
77824	7856	7584
79872	2432	2160
81920	7488	7232
83968	1424	1152
86016	5200	4944
88064	4640	4288
90112	5584	5296
92160	2240	1920
94208	5104	4976
96256	1264	1152
98304	1168	1056
100352	1680	1648
102400	5408	5248
104448	8832	8704
106496	5024	4928
108544	5536	5488
110592	4160	4112
112640	1824	1760
114688	1216	1136
116736	1840	1664
118784	1312	1200
120832	1424	1216
122880	528	480
124928	3872	3760
126976	1312	1232
129024	3360	3264
131072	1024	880
135168	960	816
139264	1584	1456
143360	1152	976
147456	880	672
151552	592	448
155648	624	432
159744	720	624
163840	608	432
167936	608	416
172032	3872	3664
176128	880	768
180224	1712	1456
184320	1552	1424
188416	1024	848
192512	1936	1696
196608	976	800
200704	3744	3664
204800	640	464
208896	528	336
212992	544	352
217088	560	320
221184	480	368
225280	640	464
229376	496	352
233472	448	288
237568	624	496
241664	688	448
245760	576	416
249856	864	704
253952	608	480
258048	608	496
262144	1088	800
270336	1296	832
278528	1072	784
286720	976	720
294912	1248	800
303104	1280	880
311296	784	576
319488	2160	1776
327680	2080	1648
335872	1104	800
344064	1344	944
352256	2400	1936
360448	1856	1424
368640	1136	768
376832	2640	2128
385024	3616	3088
393216	3328	2992
401408	2000	1536
409600	1232	928
417792	1264	832
425984	2272	1888
434176	2368	2080
442368	2368	2016
450560	2912	2480
458752	1072	816
466944	1584	1184
475136	1504	912
483328	1168	720
491520	1184	752
499712	1280	784
507904	1584	1248
516096	1920	1664
524288	5120	4496
540672	2432	1648
557056	2368	1408
573440	2272	1360
589824	3536	2752
606208	2080	1360
622592	2032	1312
638976	3600	2960
655360	2080	1376
671744	1856	1168
688128	2752	1696
704512	3760	2880
720896	3264	2768
737280	1824	1296
753664	1904	1216
770048	1888	1200
786432	3408	2592
802816	5184	4512
819200	1968	1056
835584	1680	976
851968	3696	2640
868352	1632	896
884736	2112	1296
901120	2016	1072
917504	3632	2752
933888	1616	1024
950272	1520	912
966656	1424	880
983040	2768	2112
999424	1488	912
1015808	1920	1232
1032192	1264	768
1048576	4976	3600
1081344	6640	5264
1114112	4656	3328
1146880	3312	1920
1179648	3472	2048
1212416	3504	2096
1245184	4416	2928
1277952	3344	1728
1310720	3840	2352
1343488	2832	1488
1376256	2592	1424
1409024	3040	1648
1441792	4512	3120
1474560	3840	2512
1507328	3024	1536
1540096	4800	2960
1572864	2784	1504
1605632	2480	1312
1638400	4400	3136
1671168	2768	1328
1703936	3024	1840
1736704	4256	2928
1769472	4592	3200
1802240	4960	3296
1835008	2448	1216
1867776	2800	1552
1900544	3200	1776
1933312	3024	1552
1966080	3152	1424
1998848	3104	1472
2031616	7040	5584
2064384	3040	1632
2097152	6960	4064
2162688	6064	3536
2228224	6080	3168
2293760	5968	3392
2359296	6704	3664
2424832	8448	5392
2490368	6320	3024
2555904	5888	3232
2621440	4736	1952
2686976	4608	2176
2752512	4784	2880
2818048	6160	3872
2883584	4160	1984
2949120	4112	2048
3014656	5648	3376
3080192	4448	2256
3145728	4192	2400
3211264	6128	4000
3276800	3856	1712
3342336	4608	1760
3407872	4288	1872
3473408	4688	2160
3538944	3792	2096
3604480	5952	4192
3670016	4624	1968
3735552	3408	1920
3801088	3552	1360
3866624	4096	1312
3932160	3488	1456
3997696	3392	1488
4063232	4928	2960
4128768	4288	1936
4194304	10032	5024
4325376	6080	2576
4456448	6112	3104
4587520	8400	4480
4718592	8624	4080
4849664	10656	3968
4980736	9776	2384
5111808	12976	5552
5242880	6496	2368
5373952	8144	3984
5505024	7248	3744
5636096	6032	2480
5767168	6928	2928
5898240	4960	2144
6029312	4896	2224
6160384	5488	3712
6291456	4752	2384
6422528	4080	1824
6553600	5088	2384
6684672	4512	2176
6815744	4608	2176
6946816	4800	2320
7077888	4528	1776
7208960	5616	3376
7340032	4528	2144
7471104	4416	1888
7602176	4640	2384
7733248	4448	1888
7864320	4016	1824
7995392	4160	1904
8126464	4400	1920
8257536	4080	1776
8388608	6768	4112
8650752	8992	4144
8912896	11152	5792
9175040	9520	3232
9437184	14688	4896
9699328	12768	3984
9961472	10752	4592
10223616	17296	4816
10485760	24192	5344
10747904	27456	4080
11010048	25552	2704
11272192	19296	3344
11534336	9120	2656
11796480	7776	2816
12058624	8496	2960
12320768	7840	2560
12582912	8368	2960
12845056	33296	4112
13107200	37184	2544
13369344	40096	2736
13631488	13296	2384
13893632	14240	2608
14155776	30976	2176
14417920	53360	2416
14680064	39824	2944
14942208	11632	2448
15204352	8880	2224
15466496	35152	2368
15728640	31024	2384
15990784	16704	1248
16252928	12160	1120
16515072	7616	704
16777216	14320	1456
17301504	16016	1456
17825792	16736	1536
18350080	16976	1104
18874368	14896	1648
19398656	3696	1104
19922944	10048	1392
20447232	12240	1888
20971520	10208	1760
21495808	2784	1344
22020096	2576	880
22544384	1664	1088
23068672	2000	1328
23592960	1776	1152
24117248	1712	1072
24641536	2064	1104
25165824	2880	1232
25690112	2768	672
26214400	3104	688
26738688	6960	528
27262976	3216	448
27787264	1072	496
28311552	1440	384
28835840	13184	768
29360128	28896	640
29884416	41936	576
30408704	19760	464
30932992	29392	512
31457280	20032	1456
31981568	26544	576
32505856	5872	640
33030144	1392	640
33554432	2976	1024
34603008	2624	1168
35651584	2336	1216
36700160	20912	1232
37748736	31648	1056
38797312	31792	1104
39845888	39424	1024
40894464	26272	1008
41943040	6128	1120
42991616	1664	1056
44040192	2080	1264
45088768	1472	1296
46137344	1312	960
47185920	1168	976
48234496	1888	1232
49283072	1520	1120
50331648	3520	1040
51380224	1744	976
52428800	3776	1008
53477376	4016	80
54525952	4192	16
55574528	640	0
56623104	592	48
57671680	1376	112
58720256	7200	0
59768832	18176	0
60817408	15168	224
61865984	14704	64
62914560	16912	64
63963136	16272	0
65011712	2784	0
66060288	1056	0
67108864	2144	656
69206016	1008	80
71303168	20048	48
73400320	11168	32
75497472	16	0
77594624	80	0
79691776	432	0
81788928	576	16
83886080	928	144
85983232	15808	0
88080384	16	0
90177536	288	0
92274688	512	192
94371840	336	144
96468992	192	48
98566144	6688	176
100663296	544	256
102760448	256	192
104857600	224	112
106954752	368	240
109051904	240	112
111149056	400	256
113246208	400	272
115343360	528	320
117440512	480	288
119537664	352	256
121634816	624	416
123731968	1024	480
125829120	416	224
127926272	832	560
130023424	928	640
132120576	1040	768
134217728	1792	1072
138412032	2832	1904
142606336	3184	2112
146800640	1904	1168
150994944	848	528
155189248	400	304
159383552	64	32
163577856	9232	0
167772160	96	0
171966464	0	0
176160768	0	0
180355072	0	0
184549376	0	0
188743680	16	0
192937984	0	0
197132288	0	0
201326592	0	0
205520896	0	0
209715200	0	0
213909504	0	0
218103808	0	0
222298112	0	0
226492416	0	0
230686720	0	0
234881024	0	0
239075328	0	0
243269632	0	0
247463936	0	0
251658240	0	0
255852544	0	0
260046848	0	0
264241152	0	0
268435456	0	0
276824064	0	0
285212672	0	0
293601280	0	0
301989888	0	0
310378496	0	0
318767104	0	0
327155712	0	0
335544320	0	0
343932928	0	0
352321536	0	0
360710144	0	0
369098752	0	0
377487360	0	0
385875968	0	0
394264576	0	0
402653184	0	0
411041792	0	0
419430400	0	0
427819008	0	0
436207616	0	0
444596224	0	0
452984832	0	0
461373440	0	0
469762048	0	0
478150656	0	0
486539264	0	0
494927872	0	0
503316480	0	0
511705088	0	0
520093696	0	0
528482304	0	0
536870912	0	0
553648128	0	0
570425344	0	0
587202560	0	0
603979776	0	0
620756992	0	0
637534208	0	0
654311424	0	0
671088640	0	0
687865856	0	0
704643072	0	0
721420288	0	0
738197504	0	0
754974720	0	0
771751936	0	0
788529152	0	0
805306368	0	0
822083584	0	0
838860800	0	0
855638016	0	0
872415232	0	0
889192448	0	0
905969664	0	0
922746880	0	0
939524096	0	0
956301312	0	0
973078528	0	0
989855744	0	0
1006632960	0	0
1023410176	0	0
1040187392	0	0
1056964608	0	0
1073741824	0	0
1107296256	0	0
1140850688	0	0
1174405120	0	0
1207959552	0	0
1241513984	0	0
1275068416	0	0
1308622848	0	0
1342177280	0	0
1375731712	0	0
1409286144	0	0
1442840576	0	0
1476395008	0	0
1509949440	0	0
1543503872	0	0
1577058304	0	0
1610612736	0	0
1644167168	0	0
1677721600	0	0
1711276032	0	0
1744830464	0	0
1778384896	0	0
1811939328	0	0
1845493760	0	0
1879048192	0	0
1912602624	0	0
1946157056	0	0
1979711488	0	0
2013265920	0	0
2046820352	0	0
2080374784	0	0
2113929216	0	0
2147483648	0	0
2214592512	0	0
2281701376	0	0
2348810240	0	0
2415919104	0	0
2483027968	0	0
2550136832	0	0
2617245696	0	0
2684354560	0	0
2751463424	0	0
2818572288	0	0
2885681152	0	0
2952790016	0	0
3019898880	0	0
3087007744	0	0
3154116608	0	0
3221225472	0	0
3288334336	0	0
3355443200	0	0
3422552064	0	0
3489660928	0	0
3556769792	0	0
3623878656	0	0
3690987520	0	0
3758096384	0	0
3825205248	0	0
3892314112	0	0
3959422976	0	0
4026531840	0	0
4093640704	0	0
4160749568	0	0
4227858432	0	0
~~~~~~~~~~Reuse Distance Profiler output end~~~~~~~~~~

Sampler size:59030

DRAM Statistics
 CHANNEL 0
 RQ ROW_BUFFER_HIT:    1004182  ROW_BUFFER_MISS:    1141281
 DBUS AVG_CONGESTED_CYCLE:    3.97418
 WQ ROW_BUFFER_HIT:     179036  ROW_BUFFER_MISS:    1886909  FULL:          0


CPU 0 Branch Prediction Accuracy: 97.6314% MPKI: 7.10611 Average ROB Occupancy at Mispredict: 38.6108
Branch type MPKI
BRANCH_DIRECT_JUMP: 3.53333e-05
BRANCH_INDIRECT: 0.274237
BRANCH_CONDITIONAL: 5.74669
BRANCH_DIRECT_CALL: 0.000142
BRANCH_INDIRECT_CALL: 0.209877
BRANCH_RETURN: 0.875124

