
*** ChampSim Multicore Out-of-Order Simulator ***

Warmup Instructions: 50000000
Simulation Instructions: 1500000000
Number of CPUs: 1
Off-chip DRAM Size: 4 GiB Channels: 1 Width: 64-bit Data Rate: 3200 MT/s

VirtualMemory physical capacity: 8588881920 num_ppages: 2096895
VirtualMemory page size: 4096 log2_page_size: 12

CPU 0 runs /s/traces/champsim_traces/623.xalancbmk_s-10B.champsimtrace.xz
CPU 0 Bimodal branch predictor
Basic BTB sets: 1024 ways: 8 indirect buffer size: 4096 RAS size: 64
Initializing LRU.
Initializing LRU.
Initializing LRU.
Initializing LRU.
Initializing rdLRU.
Initializing LRU.
Heartbeat CPU 0 instructions: 2000001 cycles: 549124 heartbeat IPC: 3.64217 cumulative IPC: 3.64217 (Simulation time: 0 hr 1 min 4 sec) 
Heartbeat CPU 0 instructions: 4000003 cycles: 1093989 heartbeat IPC: 3.67064 cumulative IPC: 3.65635 (Simulation time: 0 hr 2 min 6 sec) 
Heartbeat CPU 0 instructions: 6000004 cycles: 1648593 heartbeat IPC: 3.60618 cumulative IPC: 3.63947 (Simulation time: 0 hr 3 min 12 sec) 
Heartbeat CPU 0 instructions: 8000000 cycles: 2201610 heartbeat IPC: 3.61652 cumulative IPC: 3.6337 (Simulation time: 0 hr 4 min 18 sec) 
Heartbeat CPU 0 instructions: 10000003 cycles: 2751086 heartbeat IPC: 3.63984 cumulative IPC: 3.63493 (Simulation time: 0 hr 5 min 20 sec) 
Heartbeat CPU 0 instructions: 12000002 cycles: 3303660 heartbeat IPC: 3.61942 cumulative IPC: 3.63234 (Simulation time: 0 hr 6 min 23 sec) 
Heartbeat CPU 0 instructions: 14000001 cycles: 3853633 heartbeat IPC: 3.63654 cumulative IPC: 3.63294 (Simulation time: 0 hr 7 min 24 sec) 
Heartbeat CPU 0 instructions: 16000000 cycles: 4405110 heartbeat IPC: 3.62662 cumulative IPC: 3.63215 (Simulation time: 0 hr 8 min 25 sec) 
Heartbeat CPU 0 instructions: 18000003 cycles: 4956694 heartbeat IPC: 3.62593 cumulative IPC: 3.63145 (Simulation time: 0 hr 9 min 22 sec) 
Heartbeat CPU 0 instructions: 20000002 cycles: 5504806 heartbeat IPC: 3.64889 cumulative IPC: 3.63319 (Simulation time: 0 hr 10 min 22 sec) 
Heartbeat CPU 0 instructions: 22000000 cycles: 6050279 heartbeat IPC: 3.66654 cumulative IPC: 3.6362 (Simulation time: 0 hr 11 min 20 sec) 
Heartbeat CPU 0 instructions: 24000001 cycles: 6595520 heartbeat IPC: 3.6681 cumulative IPC: 3.63883 (Simulation time: 0 hr 12 min 17 sec) 
Heartbeat CPU 0 instructions: 26000004 cycles: 7142512 heartbeat IPC: 3.65637 cumulative IPC: 3.64018 (Simulation time: 0 hr 13 min 15 sec) 
Heartbeat CPU 0 instructions: 28000003 cycles: 7694262 heartbeat IPC: 3.62483 cumulative IPC: 3.63908 (Simulation time: 0 hr 14 min 18 sec) 
Heartbeat CPU 0 instructions: 30000000 cycles: 8245079 heartbeat IPC: 3.63096 cumulative IPC: 3.63853 (Simulation time: 0 hr 15 min 21 sec) 
Heartbeat CPU 0 instructions: 32000003 cycles: 8790855 heartbeat IPC: 3.66451 cumulative IPC: 3.64015 (Simulation time: 0 hr 16 min 21 sec) 
Heartbeat CPU 0 instructions: 34000002 cycles: 9345350 heartbeat IPC: 3.60688 cumulative IPC: 3.63817 (Simulation time: 0 hr 17 min 24 sec) 
Heartbeat CPU 0 instructions: 36000004 cycles: 9895707 heartbeat IPC: 3.63401 cumulative IPC: 3.63794 (Simulation time: 0 hr 18 min 25 sec) 
Heartbeat CPU 0 instructions: 38000000 cycles: 10440922 heartbeat IPC: 3.66827 cumulative IPC: 3.63953 (Simulation time: 0 hr 19 min 23 sec) 
Heartbeat CPU 0 instructions: 40000001 cycles: 10979917 heartbeat IPC: 3.71061 cumulative IPC: 3.64301 (Simulation time: 0 hr 20 min 16 sec) 
Heartbeat CPU 0 instructions: 42000004 cycles: 11523553 heartbeat IPC: 3.67894 cumulative IPC: 3.64471 (Simulation time: 0 hr 21 min 12 sec) 
Heartbeat CPU 0 instructions: 44000000 cycles: 12073208 heartbeat IPC: 3.63864 cumulative IPC: 3.64443 (Simulation time: 0 hr 22 min 12 sec) 
Heartbeat CPU 0 instructions: 46000000 cycles: 12624292 heartbeat IPC: 3.62921 cumulative IPC: 3.64377 (Simulation time: 0 hr 23 min 12 sec) 
Heartbeat CPU 0 instructions: 48000003 cycles: 13173674 heartbeat IPC: 3.64046 cumulative IPC: 3.64363 (Simulation time: 0 hr 24 min 9 sec) 
Heartbeat CPU 0 instructions: 50000002 cycles: 13724680 heartbeat IPC: 3.62972 cumulative IPC: 3.64307 (Simulation time: 0 hr 25 min 6 sec) 

Warmup complete CPU 0 instructions: 50000002 cycles: 13724680 (Simulation time: 0 hr 25 min 6 sec) 

Heartbeat CPU 0 instructions: 52000001 cycles: 16325711 heartbeat IPC: 0.768925 cumulative IPC: 0.768925 (Simulation time: 0 hr 26 min 2 sec) 

Region of Interest Statistics
cpu0_DTLB TOTAL     ACCESS:     410341  HIT:     397815  MISS:      12526
cpu0_DTLB LOAD      ACCESS:     343356  HIT:     331224  MISS:      12132
cpu0_DTLB RFO       ACCESS:      66985  HIT:      66591  MISS:        394
cpu0_DTLB PREFETCH  ACCESS:          0  HIT:          0  MISS:          0
cpu0_DTLB WRITEBACK ACCESS:          0  HIT:          0  MISS:          0
cpu0_ITLB TOTAL     ACCESS:     212864  HIT:     211694  MISS:       1170
cpu0_ITLB LOAD      ACCESS:     212864  HIT:     211694  MISS:       1170
cpu0_ITLB RFO       ACCESS:          0  HIT:          0  MISS:          0
cpu0_ITLB PREFETCH  ACCESS:          0  HIT:          0  MISS:          0
cpu0_ITLB WRITEBACK ACCESS:          0  HIT:          0  MISS:          0
cpu0_L1I TOTAL     ACCESS:      39089  HIT:      33169  MISS:       5920
cpu0_L1I LOAD      ACCESS:      39089  HIT:      33169  MISS:       5920
cpu0_L1I RFO       ACCESS:          0  HIT:          0  MISS:          0
cpu0_L1I PREFETCH  ACCESS:          0  HIT:          0  MISS:          0
cpu0_L1I WRITEBACK ACCESS:          0  HIT:          0  MISS:          0
cpu0_STLB TOTAL     ACCESS:      13696  HIT:       4181  MISS:       9515
cpu0_STLB LOAD      ACCESS:      13302  HIT:       3805  MISS:       9497
cpu0_STLB RFO       ACCESS:        394  HIT:        376  MISS:         18
cpu0_STLB PREFETCH  ACCESS:          0  HIT:          0  MISS:          0
cpu0_STLB WRITEBACK ACCESS:          0  HIT:          0  MISS:          0
cpu0_L1D TOTAL     ACCESS:     385547  HIT:     334657  MISS:      50890
cpu0_L1D LOAD      ACCESS:     277616  HIT:     228492  MISS:      49124
cpu0_L1D RFO       ACCESS:     100090  HIT:      98366  MISS:       1724
cpu0_L1D PREFETCH  ACCESS:          0  HIT:          0  MISS:          0
cpu0_L1D WRITEBACK ACCESS:          0  HIT:          0  MISS:          0
cpu0_L2C TOTAL     ACCESS:      59833  HIT:      13277  MISS:      46556
cpu0_L2C LOAD      ACCESS:      55044  HIT:       9855  MISS:      45189
cpu0_L2C RFO       ACCESS:       1724  HIT:        374  MISS:       1350
cpu0_L2C PREFETCH  ACCESS:          0  HIT:          0  MISS:          0
cpu0_L2C WRITEBACK ACCESS:       3023  HIT:       3015  MISS:          8
LLC TOTAL     ACCESS:      48768  HIT:      47747  MISS:       1021
LLC LOAD      ACCESS:      45189  HIT:      44367  MISS:        822
LLC RFO       ACCESS:       1350  HIT:       1151  MISS:        199
LLC PREFETCH  ACCESS:          0  HIT:          0  MISS:          0
LLC WRITEBACK ACCESS:       2220  HIT:       2220  MISS:          0
Heartbeat CPU 0 instructions: 54000003 cycles: 19286121 heartbeat IPC: 0.675583 cumulative IPC: 0.719238 (Simulation time: 0 hr 27 min 3 sec) 

Region of Interest Statistics
cpu0_DTLB TOTAL     ACCESS:     833793  HIT:     806589  MISS:      27204
cpu0_DTLB LOAD      ACCESS:     714872  HIT:     688492  MISS:      26380
cpu0_DTLB RFO       ACCESS:     118921  HIT:     118097  MISS:        824
cpu0_DTLB PREFETCH  ACCESS:          0  HIT:          0  MISS:          0
cpu0_DTLB WRITEBACK ACCESS:          0  HIT:          0  MISS:          0
cpu0_ITLB TOTAL     ACCESS:     458816  HIT:     456313  MISS:       2503
cpu0_ITLB LOAD      ACCESS:     458816  HIT:     456313  MISS:       2503
cpu0_ITLB RFO       ACCESS:          0  HIT:          0  MISS:          0
cpu0_ITLB PREFETCH  ACCESS:          0  HIT:          0  MISS:          0
cpu0_ITLB WRITEBACK ACCESS:          0  HIT:          0  MISS:          0
cpu0_L1I TOTAL     ACCESS:      76938  HIT:      63776  MISS:      13162
cpu0_L1I LOAD      ACCESS:      76938  HIT:      63776  MISS:      13162
cpu0_L1I RFO       ACCESS:          0  HIT:          0  MISS:          0
cpu0_L1I PREFETCH  ACCESS:          0  HIT:          0  MISS:          0
cpu0_L1I WRITEBACK ACCESS:          0  HIT:          0  MISS:          0
cpu0_STLB TOTAL     ACCESS:      29707  HIT:       8570  MISS:      21137
cpu0_STLB LOAD      ACCESS:      28883  HIT:       7802  MISS:      21081
cpu0_STLB RFO       ACCESS:        824  HIT:        768  MISS:         56
cpu0_STLB PREFETCH  ACCESS:          0  HIT:          0  MISS:          0
cpu0_STLB WRITEBACK ACCESS:          0  HIT:          0  MISS:          0
cpu0_L1D TOTAL     ACCESS:     791443  HIT:     682870  MISS:     108573
cpu0_L1D LOAD      ACCESS:     582833  HIT:     476788  MISS:     106045
cpu0_L1D RFO       ACCESS:     191161  HIT:     188726  MISS:       2435
cpu0_L1D PREFETCH  ACCESS:          0  HIT:          0  MISS:          0
cpu0_L1D WRITEBACK ACCESS:          0  HIT:          0  MISS:          0
cpu0_L2C TOTAL     ACCESS:     125908  HIT:      23998  MISS:     101910
cpu0_L2C LOAD      ACCESS:     119207  HIT:      19196  MISS:     100011
cpu0_L2C RFO       ACCESS:       2435  HIT:        580  MISS:       1855
cpu0_L2C PREFETCH  ACCESS:          0  HIT:          0  MISS:          0
cpu0_L2C WRITEBACK ACCESS:       4173  HIT:       4155  MISS:         18
LLC TOTAL     ACCESS:     104569  HIT:     103275  MISS:       1294
LLC LOAD      ACCESS:     100011  HIT:      99096  MISS:        915
LLC RFO       ACCESS:       1855  HIT:       1476  MISS:        379
LLC PREFETCH  ACCESS:          0  HIT:          0  MISS:          0
LLC WRITEBACK ACCESS:       2677  HIT:       2677  MISS:          0
Heartbeat CPU 0 instructions: 56000002 cycles: 22259908 heartbeat IPC: 0.672543 cumulative IPC: 0.702969 (Simulation time: 0 hr 28 min 3 sec) 

Region of Interest Statistics
cpu0_DTLB TOTAL     ACCESS:    1254840  HIT:    1214262  MISS:      40578
cpu0_DTLB LOAD      ACCESS:    1093107  HIT:    1053608  MISS:      39499
cpu0_DTLB RFO       ACCESS:     161733  HIT:     160654  MISS:       1079
cpu0_DTLB PREFETCH  ACCESS:          0  HIT:          0  MISS:          0
cpu0_DTLB WRITEBACK ACCESS:          0  HIT:          0  MISS:          0
cpu0_ITLB TOTAL     ACCESS:     710528  HIT:     707087  MISS:       3441
cpu0_ITLB LOAD      ACCESS:     710528  HIT:     707087  MISS:       3441
cpu0_ITLB RFO       ACCESS:          0  HIT:          0  MISS:          0
cpu0_ITLB PREFETCH  ACCESS:          0  HIT:          0  MISS:          0
cpu0_ITLB WRITEBACK ACCESS:          0  HIT:          0  MISS:          0
cpu0_L1I TOTAL     ACCESS:     101764  HIT:      82935  MISS:      18829
cpu0_L1I LOAD      ACCESS:     101764  HIT:      82935  MISS:      18829
cpu0_L1I RFO       ACCESS:          0  HIT:          0  MISS:          0
cpu0_L1I PREFETCH  ACCESS:          0  HIT:          0  MISS:          0
cpu0_L1I WRITEBACK ACCESS:          0  HIT:          0  MISS:          0
cpu0_STLB TOTAL     ACCESS:      44019  HIT:      11508  MISS:      32511
cpu0_STLB LOAD      ACCESS:      42940  HIT:      10503  MISS:      32437
cpu0_STLB RFO       ACCESS:       1079  HIT:       1005  MISS:         74
cpu0_STLB PREFETCH  ACCESS:          0  HIT:          0  MISS:          0
cpu0_STLB WRITEBACK ACCESS:          0  HIT:          0  MISS:          0
cpu0_L1D TOTAL     ACCESS:    1176860  HIT:    1008791  MISS:     168069
cpu0_L1D LOAD      ACCESS:     887248  HIT:     722250  MISS:     164998
cpu0_L1D RFO       ACCESS:     262719  HIT:     259789  MISS:       2930
cpu0_L1D PREFETCH  ACCESS:          0  HIT:          0  MISS:          0
cpu0_L1D WRITEBACK ACCESS:          0  HIT:          0  MISS:          0
cpu0_L2C TOTAL     ACCESS:     192598  HIT:      34552  MISS:     158046
cpu0_L2C LOAD      ACCESS:     183827  HIT:      27939  MISS:     155888
cpu0_L2C RFO       ACCESS:       2930  HIT:        835  MISS:       2095
cpu0_L2C PREFETCH  ACCESS:          0  HIT:          0  MISS:          0
cpu0_L2C WRITEBACK ACCESS:       5700  HIT:       5677  MISS:         23
LLC TOTAL     ACCESS:     161552  HIT:     160105  MISS:       1447
LLC LOAD      ACCESS:     155887  HIT:     154915  MISS:        972
LLC RFO       ACCESS:       2095  HIT:       1620  MISS:        475
LLC PREFETCH  ACCESS:          0  HIT:          0  MISS:          0
LLC WRITEBACK ACCESS:       3530  HIT:       3530  MISS:          0
Heartbeat CPU 0 instructions: 58000000 cycles: 25258189 heartbeat IPC: 0.667048 cumulative IPC: 0.693631 (Simulation time: 0 hr 29 min 4 sec) 

Region of Interest Statistics
cpu0_DTLB TOTAL     ACCESS:    1676038  HIT:    1622065  MISS:      53973
cpu0_DTLB LOAD      ACCESS:    1471282  HIT:    1418640  MISS:      52642
cpu0_DTLB RFO       ACCESS:     204756  HIT:     203425  MISS:       1331
cpu0_DTLB PREFETCH  ACCESS:          0  HIT:          0  MISS:          0
cpu0_DTLB WRITEBACK ACCESS:          0  HIT:          0  MISS:          0
cpu0_ITLB TOTAL     ACCESS:     962032  HIT:     957658  MISS:       4374
cpu0_ITLB LOAD      ACCESS:     962032  HIT:     957658  MISS:       4374
cpu0_ITLB RFO       ACCESS:          0  HIT:          0  MISS:          0
cpu0_ITLB PREFETCH  ACCESS:          0  HIT:          0  MISS:          0
cpu0_ITLB WRITEBACK ACCESS:          0  HIT:          0  MISS:          0
cpu0_L1I TOTAL     ACCESS:     126638  HIT:     102654  MISS:      23984
cpu0_L1I LOAD      ACCESS:     126638  HIT:     102654  MISS:      23984
cpu0_L1I RFO       ACCESS:          0  HIT:          0  MISS:          0
cpu0_L1I PREFETCH  ACCESS:          0  HIT:          0  MISS:          0
cpu0_L1I WRITEBACK ACCESS:          0  HIT:          0  MISS:          0
cpu0_STLB TOTAL     ACCESS:      58347  HIT:      15042  MISS:      43305
cpu0_STLB LOAD      ACCESS:      57016  HIT:      13802  MISS:      43214
cpu0_STLB RFO       ACCESS:       1331  HIT:       1240  MISS:         91
cpu0_STLB PREFETCH  ACCESS:          0  HIT:          0  MISS:          0
cpu0_STLB WRITEBACK ACCESS:          0  HIT:          0  MISS:          0
cpu0_L1D TOTAL     ACCESS:    1561516  HIT:    1333937  MISS:     227579
cpu0_L1D LOAD      ACCESS:    1191323  HIT:     967395  MISS:     223928
cpu0_L1D RFO       ACCESS:     334295  HIT:     330833  MISS:       3462
cpu0_L1D PREFETCH  ACCESS:          0  HIT:          0  MISS:          0
cpu0_L1D WRITEBACK ACCESS:          0  HIT:          0  MISS:          0
cpu0_L2C TOTAL     ACCESS:     258275  HIT:      40379  MISS:     217896
cpu0_L2C LOAD      ACCESS:     247911  HIT:      32603  MISS:     215308
cpu0_L2C RFO       ACCESS:       3462  HIT:        967  MISS:       2495
cpu0_L2C PREFETCH  ACCESS:          0  HIT:          0  MISS:          0
cpu0_L2C WRITEBACK ACCESS:       6713  HIT:       6678  MISS:         35
LLC TOTAL     ACCESS:     222034  HIT:     220426  MISS:       1608
LLC LOAD      ACCESS:     215306  HIT:     214280  MISS:       1026
LLC RFO       ACCESS:       2495  HIT:       1913  MISS:        582
LLC PREFETCH  ACCESS:          0  HIT:          0  MISS:          0
LLC WRITEBACK ACCESS:       4175  HIT:       4175  MISS:          0
Heartbeat CPU 0 instructions: 60000002 cycles: 28304106 heartbeat IPC: 0.656617 cumulative IPC: 0.685898 (Simulation time: 0 hr 30 min 4 sec) 

Region of Interest Statistics
cpu0_DTLB TOTAL     ACCESS:    2095920  HIT:    2029290  MISS:      66630
cpu0_DTLB LOAD      ACCESS:    1852528  HIT:    1787396  MISS:      65132
cpu0_DTLB RFO       ACCESS:     243392  HIT:     241894  MISS:       1498
cpu0_DTLB PREFETCH  ACCESS:          0  HIT:          0  MISS:          0
cpu0_DTLB WRITEBACK ACCESS:          0  HIT:          0  MISS:          0
cpu0_ITLB TOTAL     ACCESS:    1215490  HIT:    1210532  MISS:       4958
cpu0_ITLB LOAD      ACCESS:    1215490  HIT:    1210532  MISS:       4958
cpu0_ITLB RFO       ACCESS:          0  HIT:          0  MISS:          0
cpu0_ITLB PREFETCH  ACCESS:          0  HIT:          0  MISS:          0
cpu0_ITLB WRITEBACK ACCESS:          0  HIT:          0  MISS:          0
cpu0_L1I TOTAL     ACCESS:     149498  HIT:     122230  MISS:      27268
cpu0_L1I LOAD      ACCESS:     149498  HIT:     122230  MISS:      27268
cpu0_L1I RFO       ACCESS:          0  HIT:          0  MISS:          0
cpu0_L1I PREFETCH  ACCESS:          0  HIT:          0  MISS:          0
cpu0_L1I WRITEBACK ACCESS:          0  HIT:          0  MISS:          0
cpu0_STLB TOTAL     ACCESS:      71588  HIT:      18734  MISS:      52854
cpu0_STLB LOAD      ACCESS:      70090  HIT:      17333  MISS:      52757
cpu0_STLB RFO       ACCESS:       1498  HIT:       1401  MISS:         97
cpu0_STLB PREFETCH  ACCESS:          0  HIT:          0  MISS:          0
cpu0_STLB WRITEBACK ACCESS:          0  HIT:          0  MISS:          0
cpu0_L1D TOTAL     ACCESS:    1936127  HIT:    1649565  MISS:     286562
cpu0_L1D LOAD      ACCESS:    1496069  HIT:    1213565  MISS:     282504
cpu0_L1D RFO       ACCESS:     396264  HIT:     392437  MISS:       3827
cpu0_L1D PREFETCH  ACCESS:          0  HIT:          0  MISS:          0
cpu0_L1D WRITEBACK ACCESS:          0  HIT:          0  MISS:          0
cpu0_L2C TOTAL     ACCESS:     321567  HIT:      51210  MISS:     270357
cpu0_L2C LOAD      ACCESS:     309771  HIT:      42251  MISS:     267520
cpu0_L2C RFO       ACCESS:       3827  HIT:       1102  MISS:       2725
cpu0_L2C PREFETCH  ACCESS:          0  HIT:          0  MISS:          0
cpu0_L2C WRITEBACK ACCESS:       7738  HIT:       7697  MISS:         41
LLC TOTAL     ACCESS:     275155  HIT:     271699  MISS:       3456
LLC LOAD      ACCESS:     267517  HIT:     264709  MISS:       2808
LLC RFO       ACCESS:       2725  HIT:       2077  MISS:        648
LLC PREFETCH  ACCESS:          0  HIT:          0  MISS:          0
LLC WRITEBACK ACCESS:       4842  HIT:       4842  MISS:          0
Heartbeat CPU 0 instructions: 62000000 cycles: 31127197 heartbeat IPC: 0.708443 cumulative IPC: 0.689555 (Simulation time: 0 hr 31 min 8 sec) 

Region of Interest Statistics
cpu0_DTLB TOTAL     ACCESS:    2521616  HIT:    2439812  MISS:      81804
cpu0_DTLB LOAD      ACCESS:    2214922  HIT:    2135229  MISS:      79693
cpu0_DTLB RFO       ACCESS:     306694  HIT:     304583  MISS:       2111
cpu0_DTLB PREFETCH  ACCESS:          0  HIT:          0  MISS:          0
cpu0_DTLB WRITEBACK ACCESS:          0  HIT:          0  MISS:          0
cpu0_ITLB TOTAL     ACCESS:    1451925  HIT:    1445064  MISS:       6861
cpu0_ITLB LOAD      ACCESS:    1451925  HIT:    1445064  MISS:       6861
cpu0_ITLB RFO       ACCESS:          0  HIT:          0  MISS:          0
cpu0_ITLB PREFETCH  ACCESS:          0  HIT:          0  MISS:          0
cpu0_ITLB WRITEBACK ACCESS:          0  HIT:          0  MISS:          0
cpu0_L1I TOTAL     ACCESS:     206469  HIT:     170676  MISS:      35793
cpu0_L1I LOAD      ACCESS:     206469  HIT:     170676  MISS:      35793
cpu0_L1I RFO       ACCESS:          0  HIT:          0  MISS:          0
cpu0_L1I PREFETCH  ACCESS:          0  HIT:          0  MISS:          0
cpu0_L1I WRITEBACK ACCESS:          0  HIT:          0  MISS:          0
cpu0_STLB TOTAL     ACCESS:      88665  HIT:      24710  MISS:      63955
cpu0_STLB LOAD      ACCESS:      86554  HIT:      22736  MISS:      63818
cpu0_STLB RFO       ACCESS:       2111  HIT:       1974  MISS:        137
cpu0_STLB PREFETCH  ACCESS:          0  HIT:          0  MISS:          0
cpu0_STLB WRITEBACK ACCESS:          0  HIT:          0  MISS:          0
cpu0_L1D TOTAL     ACCESS:    2365317  HIT:    2026867  MISS:     338450
cpu0_L1D LOAD      ACCESS:    1798499  HIT:    1464920  MISS:     333579
cpu0_L1D RFO       ACCESS:     513858  HIT:     509277  MISS:       4581
cpu0_L1D PREFETCH  ACCESS:          0  HIT:          0  MISS:          0
cpu0_L1D WRITEBACK ACCESS:          0  HIT:          0  MISS:          0
cpu0_L2C TOTAL     ACCESS:     383438  HIT:      61959  MISS:     321479
cpu0_L2C LOAD      ACCESS:     369371  HIT:      51313  MISS:     318058
cpu0_L2C RFO       ACCESS:       4581  HIT:       1300  MISS:       3281
cpu0_L2C PREFETCH  ACCESS:          0  HIT:          0  MISS:          0
cpu0_L2C WRITEBACK ACCESS:       9196  HIT:       9146  MISS:         50
LLC TOTAL     ACCESS:     326857  HIT:     323062  MISS:       3795
LLC LOAD      ACCESS:     318054  HIT:     315181  MISS:       2873
LLC RFO       ACCESS:       3281  HIT:       2359  MISS:        922
LLC PREFETCH  ACCESS:          0  HIT:          0  MISS:          0
LLC WRITEBACK ACCESS:       5432  HIT:       5432  MISS:          0
Heartbeat CPU 0 instructions: 64000002 cycles: 34003867 heartbeat IPC: 0.695249 cumulative IPC: 0.690363 (Simulation time: 0 hr 32 min 5 sec) 

Region of Interest Statistics
cpu0_DTLB TOTAL     ACCESS:    2943147  HIT:    2847605  MISS:      95542
cpu0_DTLB LOAD      ACCESS:    2588121  HIT:    2495048  MISS:      93073
cpu0_DTLB RFO       ACCESS:     355026  HIT:     352557  MISS:       2469
cpu0_DTLB PREFETCH  ACCESS:          0  HIT:          0  MISS:          0
cpu0_DTLB WRITEBACK ACCESS:          0  HIT:          0  MISS:          0
cpu0_ITLB TOTAL     ACCESS:    1697901  HIT:    1689907  MISS:       7994
cpu0_ITLB LOAD      ACCESS:    1697901  HIT:    1689907  MISS:       7994
cpu0_ITLB RFO       ACCESS:          0  HIT:          0  MISS:          0
cpu0_ITLB PREFETCH  ACCESS:          0  HIT:          0  MISS:          0
cpu0_ITLB WRITEBACK ACCESS:          0  HIT:          0  MISS:          0
cpu0_L1I TOTAL     ACCESS:     243811  HIT:     202227  MISS:      41584
cpu0_L1I LOAD      ACCESS:     243811  HIT:     202227  MISS:      41584
cpu0_L1I RFO       ACCESS:          0  HIT:          0  MISS:          0
cpu0_L1I PREFETCH  ACCESS:          0  HIT:          0  MISS:          0
cpu0_L1I WRITEBACK ACCESS:          0  HIT:          0  MISS:          0
cpu0_STLB TOTAL     ACCESS:     103536  HIT:      29075  MISS:      74461
cpu0_STLB LOAD      ACCESS:     101067  HIT:      26766  MISS:      74301
cpu0_STLB RFO       ACCESS:       2469  HIT:       2309  MISS:        160
cpu0_STLB PREFETCH  ACCESS:          0  HIT:          0  MISS:          0
cpu0_STLB WRITEBACK ACCESS:          0  HIT:          0  MISS:          0
cpu0_L1D TOTAL     ACCESS:    2760870  HIT:    2365173  MISS:     395697
cpu0_L1D LOAD      ACCESS:    2102353  HIT:    1712281  MISS:     390072
cpu0_L1D RFO       ACCESS:     596876  HIT:     591584  MISS:       5292
cpu0_L1D PREFETCH  ACCESS:          0  HIT:          0  MISS:          0
cpu0_L1D WRITEBACK ACCESS:          0  HIT:          0  MISS:          0
cpu0_L2C TOTAL     ACCESS:     447728  HIT:      74424  MISS:     373304
cpu0_L2C LOAD      ACCESS:     431655  HIT:      62217  MISS:     369438
cpu0_L2C RFO       ACCESS:       5292  HIT:       1589  MISS:       3703
cpu0_L2C PREFETCH  ACCESS:          0  HIT:          0  MISS:          0
cpu0_L2C WRITEBACK ACCESS:      10448  HIT:      10389  MISS:         59
LLC TOTAL     ACCESS:     379435  HIT:     375446  MISS:       3989
LLC LOAD      ACCESS:     369434  HIT:     366508  MISS:       2926
LLC RFO       ACCESS:       3703  HIT:       2640  MISS:       1063
LLC PREFETCH  ACCESS:          0  HIT:          0  MISS:          0
LLC WRITEBACK ACCESS:       6194  HIT:       6194  MISS:          0
Heartbeat CPU 0 instructions: 66000003 cycles: 36700922 heartbeat IPC: 0.74155 cumulative IPC: 0.696372 (Simulation time: 0 hr 33 min 3 sec) 

Region of Interest Statistics
cpu0_DTLB TOTAL     ACCESS:    3370484  HIT:    3259461  MISS:     111023
cpu0_DTLB LOAD      ACCESS:    2945724  HIT:    2837984  MISS:     107740
cpu0_DTLB RFO       ACCESS:     424760  HIT:     421477  MISS:       3283
cpu0_DTLB PREFETCH  ACCESS:          0  HIT:          0  MISS:          0
cpu0_DTLB WRITEBACK ACCESS:          0  HIT:          0  MISS:          0
cpu0_ITLB TOTAL     ACCESS:    1928240  HIT:    1918213  MISS:      10027
cpu0_ITLB LOAD      ACCESS:    1928240  HIT:    1918213  MISS:      10027
cpu0_ITLB RFO       ACCESS:          0  HIT:          0  MISS:          0
cpu0_ITLB PREFETCH  ACCESS:          0  HIT:          0  MISS:          0
cpu0_ITLB WRITEBACK ACCESS:          0  HIT:          0  MISS:          0
cpu0_L1I TOTAL     ACCESS:     314119  HIT:     263942  MISS:      50177
cpu0_L1I LOAD      ACCESS:     314119  HIT:     263942  MISS:      50177
cpu0_L1I RFO       ACCESS:          0  HIT:          0  MISS:          0
cpu0_L1I PREFETCH  ACCESS:          0  HIT:          0  MISS:          0
cpu0_L1I WRITEBACK ACCESS:          0  HIT:          0  MISS:          0
cpu0_STLB TOTAL     ACCESS:     121050  HIT:      36086  MISS:      84964
cpu0_STLB LOAD      ACCESS:     117767  HIT:      32989  MISS:      84778
cpu0_STLB RFO       ACCESS:       3283  HIT:       3097  MISS:        186
cpu0_STLB PREFETCH  ACCESS:          0  HIT:          0  MISS:          0
cpu0_STLB WRITEBACK ACCESS:          0  HIT:          0  MISS:          0
cpu0_L1D TOTAL     ACCESS:    3200899  HIT:    2757729  MISS:     443170
cpu0_L1D LOAD      ACCESS:    2403703  HIT:    1967066  MISS:     436637
cpu0_L1D RFO       ACCESS:     726933  HIT:     720785  MISS:       6148
cpu0_L1D PREFETCH  ACCESS:          0  HIT:          0  MISS:          0
cpu0_L1D WRITEBACK ACCESS:          0  HIT:          0  MISS:          0
cpu0_L2C TOTAL     ACCESS:     505202  HIT:      85153  MISS:     420049
cpu0_L2C LOAD      ACCESS:     486813  HIT:      71277  MISS:     415536
cpu0_L2C RFO       ACCESS:       6148  HIT:       1821  MISS:       4327
cpu0_L2C PREFETCH  ACCESS:          0  HIT:          0  MISS:          0
cpu0_L2C WRITEBACK ACCESS:      11856  HIT:      11789  MISS:         67
LLC TOTAL     ACCESS:     426976  HIT:     422601  MISS:       4375
LLC LOAD      ACCESS:     415532  HIT:     412568  MISS:       2964
LLC RFO       ACCESS:       4327  HIT:       2916  MISS:       1411
LLC PREFETCH  ACCESS:          0  HIT:          0  MISS:          0
LLC WRITEBACK ACCESS:       6998  HIT:       6998  MISS:          0
Heartbeat CPU 0 instructions: 68000002 cycles: 39039806 heartbeat IPC: 0.855108 cumulative IPC: 0.711037 (Simulation time: 0 hr 33 min 55 sec) 

Region of Interest Statistics
cpu0_DTLB TOTAL     ACCESS:    3777065  HIT:    3655454  MISS:     121611
cpu0_DTLB LOAD      ACCESS:    3283952  HIT:    3166143  MISS:     117809
cpu0_DTLB RFO       ACCESS:     493113  HIT:     489311  MISS:       3802
cpu0_DTLB PREFETCH  ACCESS:          0  HIT:          0  MISS:          0
cpu0_DTLB WRITEBACK ACCESS:          0  HIT:          0  MISS:          0
cpu0_ITLB TOTAL     ACCESS:    2137013  HIT:    2125741  MISS:      11272
cpu0_ITLB LOAD      ACCESS:    2137013  HIT:    2125741  MISS:      11272
cpu0_ITLB RFO       ACCESS:          0  HIT:          0  MISS:          0
cpu0_ITLB PREFETCH  ACCESS:          0  HIT:          0  MISS:          0
cpu0_ITLB WRITEBACK ACCESS:          0  HIT:          0  MISS:          0
cpu0_L1I TOTAL     ACCESS:     365115  HIT:     308488  MISS:      56627
cpu0_L1I LOAD      ACCESS:     365115  HIT:     308488  MISS:      56627
cpu0_L1I RFO       ACCESS:          0  HIT:          0  MISS:          0
cpu0_L1I PREFETCH  ACCESS:          0  HIT:          0  MISS:          0
cpu0_L1I WRITEBACK ACCESS:          0  HIT:          0  MISS:          0
cpu0_STLB TOTAL     ACCESS:     132883  HIT:      41399  MISS:      91484
cpu0_STLB LOAD      ACCESS:     129081  HIT:      37800  MISS:      91281
cpu0_STLB RFO       ACCESS:       3802  HIT:       3599  MISS:        203
cpu0_STLB PREFETCH  ACCESS:          0  HIT:          0  MISS:          0
cpu0_STLB WRITEBACK ACCESS:          0  HIT:          0  MISS:          0
cpu0_L1D TOTAL     ACCESS:    3579683  HIT:    3092685  MISS:     486998
cpu0_L1D LOAD      ACCESS:    2674583  HIT:    2195801  MISS:     478782
cpu0_L1D RFO       ACCESS:     829395  HIT:     821598  MISS:       7797
cpu0_L1D PREFETCH  ACCESS:          0  HIT:          0  MISS:          0
cpu0_L1D WRITEBACK ACCESS:          0  HIT:          0  MISS:          0
cpu0_L2C TOTAL     ACCESS:     558099  HIT:     100237  MISS:     457862
cpu0_L2C LOAD      ACCESS:     535408  HIT:      83294  MISS:     452114
cpu0_L2C RFO       ACCESS:       7797  HIT:       2251  MISS:       5546
cpu0_L2C PREFETCH  ACCESS:          0  HIT:          0  MISS:          0
cpu0_L2C WRITEBACK ACCESS:      14475  HIT:      14403  MISS:         72
LLC TOTAL     ACCESS:     466505  HIT:     461856  MISS:       4649
LLC LOAD      ACCESS:     452108  HIT:     449118  MISS:       2990
LLC RFO       ACCESS:       5546  HIT:       3887  MISS:       1659
LLC PREFETCH  ACCESS:          0  HIT:          0  MISS:          0
LLC WRITEBACK ACCESS:       8721  HIT:       8721  MISS:          0
Heartbeat CPU 0 instructions: 70000000 cycles: 42056888 heartbeat IPC: 0.662892 cumulative IPC: 0.70591 (Simulation time: 0 hr 34 min 52 sec) 

Region of Interest Statistics
cpu0_DTLB TOTAL     ACCESS:    4199388  HIT:    4062544  MISS:     136844
cpu0_DTLB LOAD      ACCESS:    3659183  HIT:    3526486  MISS:     132697
cpu0_DTLB RFO       ACCESS:     540205  HIT:     536058  MISS:       4147
cpu0_DTLB PREFETCH  ACCESS:          0  HIT:          0  MISS:          0
cpu0_DTLB WRITEBACK ACCESS:          0  HIT:          0  MISS:          0
cpu0_ITLB TOTAL     ACCESS:    2386847  HIT:    2374499  MISS:      12348
cpu0_ITLB LOAD      ACCESS:    2386847  HIT:    2374499  MISS:      12348
cpu0_ITLB RFO       ACCESS:          0  HIT:          0  MISS:          0
cpu0_ITLB PREFETCH  ACCESS:          0  HIT:          0  MISS:          0
cpu0_ITLB WRITEBACK ACCESS:          0  HIT:          0  MISS:          0
cpu0_L1I TOTAL     ACCESS:     394938  HIT:     332467  MISS:      62471
cpu0_L1I LOAD      ACCESS:     394938  HIT:     332467  MISS:      62471
cpu0_L1I RFO       ACCESS:          0  HIT:          0  MISS:          0
cpu0_L1I PREFETCH  ACCESS:          0  HIT:          0  MISS:          0
cpu0_L1I WRITEBACK ACCESS:          0  HIT:          0  MISS:          0
cpu0_STLB TOTAL     ACCESS:     149192  HIT:      44997  MISS:     104195
cpu0_STLB LOAD      ACCESS:     145045  HIT:      41074  MISS:     103971
cpu0_STLB RFO       ACCESS:       4147  HIT:       3923  MISS:        224
cpu0_STLB PREFETCH  ACCESS:          0  HIT:          0  MISS:          0
cpu0_STLB WRITEBACK ACCESS:          0  HIT:          0  MISS:          0
cpu0_L1D TOTAL     ACCESS:    3977661  HIT:    3429604  MISS:     548057
cpu0_L1D LOAD      ACCESS:    2981850  HIT:    2442617  MISS:     539233
cpu0_L1D RFO       ACCESS:     909684  HIT:     901329  MISS:       8355
cpu0_L1D PREFETCH  ACCESS:          0  HIT:          0  MISS:          0
cpu0_L1D WRITEBACK ACCESS:          0  HIT:          0  MISS:          0
cpu0_L2C TOTAL     ACCESS:     626295  HIT:     112545  MISS:     513750
cpu0_L2C LOAD      ACCESS:     601703  HIT:      93995  MISS:     507708
cpu0_L2C RFO       ACCESS:       8355  HIT:       2532  MISS:       5823
cpu0_L2C PREFETCH  ACCESS:          0  HIT:          0  MISS:          0
cpu0_L2C WRITEBACK ACCESS:      15768  HIT:      15692  MISS:         76
LLC TOTAL     ACCESS:     522876  HIT:     518028  MISS:       4848
LLC LOAD      ACCESS:     507701  HIT:     504644  MISS:       3057
LLC RFO       ACCESS:       5823  HIT:       4032  MISS:       1791
LLC PREFETCH  ACCESS:          0  HIT:          0  MISS:          0
LLC WRITEBACK ACCESS:       9209  HIT:       9209  MISS:          0
Heartbeat CPU 0 instructions: 72000000 cycles: 44713170 heartbeat IPC: 0.752932 cumulative IPC: 0.709941 (Simulation time: 0 hr 35 min 45 sec) 

Region of Interest Statistics
cpu0_DTLB TOTAL     ACCESS:    4621857  HIT:    4474789  MISS:     147068
cpu0_DTLB LOAD      ACCESS:    4034798  HIT:    3892223  MISS:     142575
cpu0_DTLB RFO       ACCESS:     587059  HIT:     582566  MISS:       4493
cpu0_DTLB PREFETCH  ACCESS:          0  HIT:          0  MISS:          0
cpu0_DTLB WRITEBACK ACCESS:          0  HIT:          0  MISS:          0
cpu0_ITLB TOTAL     ACCESS:    2633574  HIT:    2619953  MISS:      13621
cpu0_ITLB LOAD      ACCESS:    2633574  HIT:    2619953  MISS:      13621
cpu0_ITLB RFO       ACCESS:          0  HIT:          0  MISS:          0
cpu0_ITLB PREFETCH  ACCESS:          0  HIT:          0  MISS:          0
cpu0_ITLB WRITEBACK ACCESS:          0  HIT:          0  MISS:          0
cpu0_L1I TOTAL     ACCESS:     427832  HIT:     357405  MISS:      70427
cpu0_L1I LOAD      ACCESS:     427832  HIT:     357405  MISS:      70427
cpu0_L1I RFO       ACCESS:          0  HIT:          0  MISS:          0
cpu0_L1I PREFETCH  ACCESS:          0  HIT:          0  MISS:          0
cpu0_L1I WRITEBACK ACCESS:          0  HIT:          0  MISS:          0
cpu0_STLB TOTAL     ACCESS:     160689  HIT:      50845  MISS:     109844
cpu0_STLB LOAD      ACCESS:     156196  HIT:      46597  MISS:     109599
cpu0_STLB RFO       ACCESS:       4493  HIT:       4248  MISS:        245
cpu0_STLB PREFETCH  ACCESS:          0  HIT:          0  MISS:          0
cpu0_STLB WRITEBACK ACCESS:          0  HIT:          0  MISS:          0
cpu0_L1D TOTAL     ACCESS:    4361549  HIT:    3760276  MISS:     601273
cpu0_L1D LOAD      ACCESS:    3279462  HIT:    2687867  MISS:     591595
cpu0_L1D RFO       ACCESS:     991173  HIT:     982000  MISS:       9173
cpu0_L1D PREFETCH  ACCESS:          0  HIT:          0  MISS:          0
cpu0_L1D WRITEBACK ACCESS:          0  HIT:          0  MISS:          0
cpu0_L2C TOTAL     ACCESS:     689459  HIT:     132725  MISS:     556734
cpu0_L2C LOAD      ACCESS:     662021  HIT:     111782  MISS:     550239
cpu0_L2C RFO       ACCESS:       9172  HIT:       2920  MISS:       6252
cpu0_L2C PREFETCH  ACCESS:          0  HIT:          0  MISS:          0
cpu0_L2C WRITEBACK ACCESS:      17761  HIT:      17675  MISS:         86
LLC TOTAL     ACCESS:     566749  HIT:     561693  MISS:       5056
LLC LOAD      ACCESS:     550232  HIT:     547123  MISS:       3109
LLC RFO       ACCESS:       6252  HIT:       4305  MISS:       1947
LLC PREFETCH  ACCESS:          0  HIT:          0  MISS:          0
LLC WRITEBACK ACCESS:      10108  HIT:      10108  MISS:          0
Heartbeat CPU 0 instructions: 74000000 cycles: 47502522 heartbeat IPC: 0.717012 cumulative IPC: 0.710525 (Simulation time: 0 hr 36 min 41 sec) 

Region of Interest Statistics
cpu0_DTLB TOTAL     ACCESS:    5043601  HIT:    4883995  MISS:     159606
cpu0_DTLB LOAD      ACCESS:    4408446  HIT:    4253704  MISS:     154742
cpu0_DTLB RFO       ACCESS:     635155  HIT:     630291  MISS:       4864
cpu0_DTLB PREFETCH  ACCESS:          0  HIT:          0  MISS:          0
cpu0_DTLB WRITEBACK ACCESS:          0  HIT:          0  MISS:          0
cpu0_ITLB TOTAL     ACCESS:    2880200  HIT:    2865262  MISS:      14938
cpu0_ITLB LOAD      ACCESS:    2880200  HIT:    2865262  MISS:      14938
cpu0_ITLB RFO       ACCESS:          0  HIT:          0  MISS:          0
cpu0_ITLB PREFETCH  ACCESS:          0  HIT:          0  MISS:          0
cpu0_ITLB WRITEBACK ACCESS:          0  HIT:          0  MISS:          0
cpu0_L1I TOTAL     ACCESS:     462064  HIT:     383721  MISS:      78343
cpu0_L1I LOAD      ACCESS:     462064  HIT:     383721  MISS:      78343
cpu0_L1I RFO       ACCESS:          0  HIT:          0  MISS:          0
cpu0_L1I PREFETCH  ACCESS:          0  HIT:          0  MISS:          0
cpu0_L1I WRITEBACK ACCESS:          0  HIT:          0  MISS:          0
cpu0_STLB TOTAL     ACCESS:     174544  HIT:      55941  MISS:     118603
cpu0_STLB LOAD      ACCESS:     169680  HIT:      51341  MISS:     118339
cpu0_STLB RFO       ACCESS:       4864  HIT:       4600  MISS:        264
cpu0_STLB PREFETCH  ACCESS:          0  HIT:          0  MISS:          0
cpu0_STLB WRITEBACK ACCESS:          0  HIT:          0  MISS:          0
cpu0_L1D TOTAL     ACCESS:    4754425  HIT:    4097300  MISS:     657125
cpu0_L1D LOAD      ACCESS:    3580771  HIT:    2934086  MISS:     646685
cpu0_L1D RFO       ACCESS:    1075430  HIT:    1065539  MISS:       9891
cpu0_L1D PREFETCH  ACCESS:          0  HIT:          0  MISS:          0
cpu0_L1D WRITEBACK ACCESS:          0  HIT:          0  MISS:          0
cpu0_L2C TOTAL     ACCESS:     755009  HIT:     151413  MISS:     603596
cpu0_L2C LOAD      ACCESS:     725027  HIT:     128293  MISS:     596734
cpu0_L2C RFO       ACCESS:       9890  HIT:       3294  MISS:       6596
cpu0_L2C PREFETCH  ACCESS:          0  HIT:          0  MISS:          0
cpu0_L2C WRITEBACK ACCESS:      19543  HIT:      19447  MISS:         96
LLC TOTAL     ACCESS:     614095  HIT:     608807  MISS:       5288
LLC LOAD      ACCESS:     596727  HIT:     593537  MISS:       3190
LLC RFO       ACCESS:       6596  HIT:       4498  MISS:       2098
LLC PREFETCH  ACCESS:          0  HIT:          0  MISS:          0
LLC WRITEBACK ACCESS:      10602  HIT:      10602  MISS:          0
Heartbeat CPU 0 instructions: 76000002 cycles: 50343768 heartbeat IPC: 0.703917 cumulative IPC: 0.710012 (Simulation time: 0 hr 37 min 39 sec) 

Region of Interest Statistics
cpu0_DTLB TOTAL     ACCESS:    5468765  HIT:    5294195  MISS:     174570
cpu0_DTLB LOAD      ACCESS:    4772610  HIT:    4603494  MISS:     169116
cpu0_DTLB RFO       ACCESS:     696155  HIT:     690701  MISS:       5454
cpu0_DTLB PREFETCH  ACCESS:          0  HIT:          0  MISS:          0
cpu0_DTLB WRITEBACK ACCESS:          0  HIT:          0  MISS:          0
cpu0_ITLB TOTAL     ACCESS:    3117590  HIT:    3101094  MISS:      16496
cpu0_ITLB LOAD      ACCESS:    3117590  HIT:    3101094  MISS:      16496
cpu0_ITLB RFO       ACCESS:          0  HIT:          0  MISS:          0
cpu0_ITLB PREFETCH  ACCESS:          0  HIT:          0  MISS:          0
cpu0_ITLB WRITEBACK ACCESS:          0  HIT:          0  MISS:          0
cpu0_L1I TOTAL     ACCESS:     517469  HIT:     432296  MISS:      85173
cpu0_L1I LOAD      ACCESS:     517469  HIT:     432296  MISS:      85173
cpu0_L1I RFO       ACCESS:          0  HIT:          0  MISS:          0
cpu0_L1I PREFETCH  ACCESS:          0  HIT:          0  MISS:          0
cpu0_L1I WRITEBACK ACCESS:          0  HIT:          0  MISS:          0
cpu0_STLB TOTAL     ACCESS:     191066  HIT:      61129  MISS:     129937
cpu0_STLB LOAD      ACCESS:     185612  HIT:      55966  MISS:     129646
cpu0_STLB RFO       ACCESS:       5454  HIT:       5163  MISS:        291
cpu0_STLB PREFETCH  ACCESS:          0  HIT:          0  MISS:          0
cpu0_STLB WRITEBACK ACCESS:          0  HIT:          0  MISS:          0
cpu0_L1D TOTAL     ACCESS:    5175878  HIT:    4466685  MISS:     709193
cpu0_L1D LOAD      ACCESS:    3883390  HIT:    3185512  MISS:     697878
cpu0_L1D RFO       ACCESS:    1184923  HIT:    1174211  MISS:      10712
cpu0_L1D PREFETCH  ACCESS:          0  HIT:          0  MISS:          0
cpu0_L1D WRITEBACK ACCESS:          0  HIT:          0  MISS:          0
cpu0_L2C TOTAL     ACCESS:     815203  HIT:     159812  MISS:     655391
cpu0_L2C LOAD      ACCESS:     783050  HIT:     135151  MISS:     647899
cpu0_L2C RFO       ACCESS:      10711  HIT:       3506  MISS:       7205
cpu0_L2C PREFETCH  ACCESS:          0  HIT:          0  MISS:          0
cpu0_L2C WRITEBACK ACCESS:      20839  HIT:      20736  MISS:        103
LLC TOTAL     ACCESS:     666804  HIT:     661038  MISS:       5766
LLC LOAD      ACCESS:     647892  HIT:     644562  MISS:       3330
LLC RFO       ACCESS:       7205  HIT:       4770  MISS:       2435
LLC PREFETCH  ACCESS:          0  HIT:          0  MISS:          0
LLC WRITEBACK ACCESS:      11523  HIT:      11522  MISS:          1
Heartbeat CPU 0 instructions: 78000001 cycles: 53493824 heartbeat IPC: 0.634909 cumulative IPC: 0.704063 (Simulation time: 0 hr 38 min 40 sec) 

Region of Interest Statistics
cpu0_DTLB TOTAL     ACCESS:    5890680  HIT:    5700391  MISS:     190289
cpu0_DTLB LOAD      ACCESS:    5153042  HIT:    4968444  MISS:     184598
cpu0_DTLB RFO       ACCESS:     737638  HIT:     731947  MISS:       5691
cpu0_DTLB PREFETCH  ACCESS:          0  HIT:          0  MISS:          0
cpu0_DTLB WRITEBACK ACCESS:          0  HIT:          0  MISS:          0
cpu0_ITLB TOTAL     ACCESS:    3372578  HIT:    3355366  MISS:      17212
cpu0_ITLB LOAD      ACCESS:    3372578  HIT:    3355366  MISS:      17212
cpu0_ITLB RFO       ACCESS:          0  HIT:          0  MISS:          0
cpu0_ITLB PREFETCH  ACCESS:          0  HIT:          0  MISS:          0
cpu0_ITLB WRITEBACK ACCESS:          0  HIT:          0  MISS:          0
cpu0_L1I TOTAL     ACCESS:     537383  HIT:     448251  MISS:      89132
cpu0_L1I LOAD      ACCESS:     537383  HIT:     448251  MISS:      89132
cpu0_L1I RFO       ACCESS:          0  HIT:          0  MISS:          0
cpu0_L1I PREFETCH  ACCESS:          0  HIT:          0  MISS:          0
cpu0_L1I WRITEBACK ACCESS:          0  HIT:          0  MISS:          0
cpu0_STLB TOTAL     ACCESS:     207501  HIT:      63591  MISS:     143910
cpu0_STLB LOAD      ACCESS:     201810  HIT:      58210  MISS:     143600
cpu0_STLB RFO       ACCESS:       5691  HIT:       5381  MISS:        310
cpu0_STLB PREFETCH  ACCESS:          0  HIT:          0  MISS:          0
cpu0_STLB WRITEBACK ACCESS:          0  HIT:          0  MISS:          0
cpu0_L1D TOTAL     ACCESS:    5563070  HIT:    4789806  MISS:     773264
cpu0_L1D LOAD      ACCESS:    4192486  HIT:    3430982  MISS:     761504
cpu0_L1D RFO       ACCESS:    1251528  HIT:    1240421  MISS:      11107
cpu0_L1D PREFETCH  ACCESS:          0  HIT:          0  MISS:          0
cpu0_L1D WRITEBACK ACCESS:          0  HIT:          0  MISS:          0
cpu0_L2C TOTAL     ACCESS:     884131  HIT:     165833  MISS:     718298
cpu0_L2C LOAD      ACCESS:     850635  HIT:     140100  MISS:     710535
cpu0_L2C RFO       ACCESS:      11106  HIT:       3651  MISS:       7455
cpu0_L2C PREFETCH  ACCESS:          0  HIT:          0  MISS:          0
cpu0_L2C WRITEBACK ACCESS:      21737  HIT:      21629  MISS:        108
LLC TOTAL     ACCESS:     730257  HIT:     724353  MISS:       5904
LLC LOAD      ACCESS:     710528  HIT:     707146  MISS:       3382
LLC RFO       ACCESS:       7455  HIT:       4934  MISS:       2521
LLC PREFETCH  ACCESS:          0  HIT:          0  MISS:          0
LLC WRITEBACK ACCESS:      12074  HIT:      12073  MISS:          1
Heartbeat CPU 0 instructions: 80000003 cycles: 56688694 heartbeat IPC: 0.626004 cumulative IPC: 0.698259 (Simulation time: 0 hr 39 min 40 sec) 

Region of Interest Statistics
cpu0_DTLB TOTAL     ACCESS:    6312110  HIT:    6105560  MISS:     206550
cpu0_DTLB LOAD      ACCESS:    5533994  HIT:    5333339  MISS:     200655
cpu0_DTLB RFO       ACCESS:     778116  HIT:     772221  MISS:       5895
cpu0_DTLB PREFETCH  ACCESS:          0  HIT:          0  MISS:          0
cpu0_DTLB WRITEBACK ACCESS:          0  HIT:          0  MISS:          0
cpu0_ITLB TOTAL     ACCESS:    3628431  HIT:    3610549  MISS:      17882
cpu0_ITLB LOAD      ACCESS:    3628431  HIT:    3610549  MISS:      17882
cpu0_ITLB RFO       ACCESS:          0  HIT:          0  MISS:          0
cpu0_ITLB PREFETCH  ACCESS:          0  HIT:          0  MISS:          0
cpu0_ITLB WRITEBACK ACCESS:          0  HIT:          0  MISS:          0
cpu0_L1I TOTAL     ACCESS:     555808  HIT:     462746  MISS:      93062
cpu0_L1I LOAD      ACCESS:     555808  HIT:     462746  MISS:      93062
cpu0_L1I RFO       ACCESS:          0  HIT:          0  MISS:          0
cpu0_L1I PREFETCH  ACCESS:          0  HIT:          0  MISS:          0
cpu0_L1I WRITEBACK ACCESS:          0  HIT:          0  MISS:          0
cpu0_STLB TOTAL     ACCESS:     224432  HIT:      65712  MISS:     158720
cpu0_STLB LOAD      ACCESS:     218537  HIT:      60145  MISS:     158392
cpu0_STLB RFO       ACCESS:       5895  HIT:       5567  MISS:        328
cpu0_STLB PREFETCH  ACCESS:          0  HIT:          0  MISS:          0
cpu0_STLB WRITEBACK ACCESS:          0  HIT:          0  MISS:          0
cpu0_L1D TOTAL     ACCESS:    5950833  HIT:    5112150  MISS:     838683
cpu0_L1D LOAD      ACCESS:    4503332  HIT:    3676786  MISS:     826546
cpu0_L1D RFO       ACCESS:    1316317  HIT:    1304888  MISS:      11429
cpu0_L1D PREFETCH  ACCESS:          0  HIT:          0  MISS:          0
cpu0_L1D WRITEBACK ACCESS:          0  HIT:          0  MISS:          0
cpu0_L2C TOTAL     ACCESS:     954286  HIT:     172269  MISS:     782017
cpu0_L2C LOAD      ACCESS:     919607  HIT:     145547  MISS:     774060
cpu0_L2C RFO       ACCESS:      11428  HIT:       3799  MISS:       7629
cpu0_L2C PREFETCH  ACCESS:          0  HIT:          0  MISS:          0
cpu0_L2C WRITEBACK ACCESS:      22543  HIT:      22431  MISS:        112
LLC TOTAL     ACCESS:     794341  HIT:     788317  MISS:       6024
LLC LOAD      ACCESS:     774053  HIT:     770618  MISS:       3435
LLC RFO       ACCESS:       7629  HIT:       5041  MISS:       2588
LLC PREFETCH  ACCESS:          0  HIT:          0  MISS:          0
LLC WRITEBACK ACCESS:      12443  HIT:      12442  MISS:          1
Heartbeat CPU 0 instructions: 82000000 cycles: 59080390 heartbeat IPC: 0.836225 cumulative IPC: 0.705534 (Simulation time: 0 hr 40 min 34 sec) 

Region of Interest Statistics
cpu0_DTLB TOTAL     ACCESS:    6716265  HIT:    6497325  MISS:     218940
cpu0_DTLB LOAD      ACCESS:    5863735  HIT:    5651245  MISS:     212490
cpu0_DTLB RFO       ACCESS:     852530  HIT:     846080  MISS:       6450
cpu0_DTLB PREFETCH  ACCESS:          0  HIT:          0  MISS:          0
cpu0_DTLB WRITEBACK ACCESS:          0  HIT:          0  MISS:          0
cpu0_ITLB TOTAL     ACCESS:    3828627  HIT:    3809085  MISS:      19542
cpu0_ITLB LOAD      ACCESS:    3828627  HIT:    3809085  MISS:      19542
cpu0_ITLB RFO       ACCESS:          0  HIT:          0  MISS:          0
cpu0_ITLB PREFETCH  ACCESS:          0  HIT:          0  MISS:          0
cpu0_ITLB WRITEBACK ACCESS:          0  HIT:          0  MISS:          0
cpu0_L1I TOTAL     ACCESS:     630578  HIT:     529604  MISS:     100974
cpu0_L1I LOAD      ACCESS:     630578  HIT:     529604  MISS:     100974
cpu0_L1I RFO       ACCESS:          0  HIT:          0  MISS:          0
cpu0_L1I PREFETCH  ACCESS:          0  HIT:          0  MISS:          0
cpu0_L1I WRITEBACK ACCESS:          0  HIT:          0  MISS:          0
cpu0_STLB TOTAL     ACCESS:     238482  HIT:      70735  MISS:     167747
cpu0_STLB LOAD      ACCESS:     232032  HIT:      64642  MISS:     167390
cpu0_STLB RFO       ACCESS:       6450  HIT:       6093  MISS:        357
cpu0_STLB PREFETCH  ACCESS:          0  HIT:          0  MISS:          0
cpu0_STLB WRITEBACK ACCESS:          0  HIT:          0  MISS:          0
cpu0_L1D TOTAL     ACCESS:    6356426  HIT:    5476248  MISS:     880178
cpu0_L1D LOAD      ACCESS:    4778964  HIT:    3912405  MISS:     866559
cpu0_L1D RFO       ACCESS:    1438867  HIT:    1425997  MISS:      12870
cpu0_L1D PREFETCH  ACCESS:          0  HIT:          0  MISS:          0
cpu0_L1D WRITEBACK ACCESS:          0  HIT:          0  MISS:          0
cpu0_L2C TOTAL     ACCESS:    1005645  HIT:     182870  MISS:     822775
cpu0_L2C LOAD      ACCESS:     967532  HIT:     153835  MISS:     813697
cpu0_L2C RFO       ACCESS:      12866  HIT:       4134  MISS:       8732
cpu0_L2C PREFETCH  ACCESS:          0  HIT:          0  MISS:          0
cpu0_L2C WRITEBACK ACCESS:      24498  HIT:      24381  MISS:        117
LLC TOTAL     ACCESS:     836453  HIT:     830194  MISS:       6259
LLC LOAD      ACCESS:     813690  HIT:     810217  MISS:       3473
LLC RFO       ACCESS:       8732  HIT:       5947  MISS:       2785
LLC PREFETCH  ACCESS:          0  HIT:          0  MISS:          0
LLC WRITEBACK ACCESS:      13802  HIT:      13801  MISS:          1
Heartbeat CPU 0 instructions: 84000000 cycles: 61932996 heartbeat IPC: 0.701113 cumulative IPC: 0.705272 (Simulation time: 0 hr 41 min 28 sec) 

Region of Interest Statistics
cpu0_DTLB TOTAL     ACCESS:    7137104  HIT:    6905823  MISS:     231281
cpu0_DTLB LOAD      ACCESS:    6239832  HIT:    6015277  MISS:     224555
cpu0_DTLB RFO       ACCESS:     897272  HIT:     890546  MISS:       6726
cpu0_DTLB PREFETCH  ACCESS:          0  HIT:          0  MISS:          0
cpu0_DTLB WRITEBACK ACCESS:          0  HIT:          0  MISS:          0
cpu0_ITLB TOTAL     ACCESS:    4077926  HIT:    4057247  MISS:      20679
cpu0_ITLB LOAD      ACCESS:    4077926  HIT:    4057247  MISS:      20679
cpu0_ITLB RFO       ACCESS:          0  HIT:          0  MISS:          0
cpu0_ITLB PREFETCH  ACCESS:          0  HIT:          0  MISS:          0
cpu0_ITLB WRITEBACK ACCESS:          0  HIT:          0  MISS:          0
cpu0_L1I TOTAL     ACCESS:     659716  HIT:     551687  MISS:     108029
cpu0_L1I LOAD      ACCESS:     659716  HIT:     551687  MISS:     108029
cpu0_L1I RFO       ACCESS:          0  HIT:          0  MISS:          0
cpu0_L1I PREFETCH  ACCESS:          0  HIT:          0  MISS:          0
cpu0_L1I WRITEBACK ACCESS:          0  HIT:          0  MISS:          0
cpu0_STLB TOTAL     ACCESS:     251960  HIT:      75155  MISS:     176805
cpu0_STLB LOAD      ACCESS:     245234  HIT:      68804  MISS:     176430
cpu0_STLB RFO       ACCESS:       6726  HIT:       6351  MISS:        375
cpu0_STLB PREFETCH  ACCESS:          0  HIT:          0  MISS:          0
cpu0_STLB WRITEBACK ACCESS:          0  HIT:          0  MISS:          0
cpu0_L1D TOTAL     ACCESS:    6743798  HIT:    5806000  MISS:     937798
cpu0_L1D LOAD      ACCESS:    5081748  HIT:    4158235  MISS:     923513
cpu0_L1D RFO       ACCESS:    1515888  HIT:    1502388  MISS:      13500
cpu0_L1D PREFETCH  ACCESS:          0  HIT:          0  MISS:          0
cpu0_L1D WRITEBACK ACCESS:          0  HIT:          0  MISS:          0
cpu0_L2C TOTAL     ACCESS:    1071942  HIT:     198856  MISS:     873086
cpu0_L2C LOAD      ACCESS:    1031541  HIT:     167844  MISS:     863697
cpu0_L2C RFO       ACCESS:      13496  HIT:       4476  MISS:       9020
cpu0_L2C PREFETCH  ACCESS:          0  HIT:          0  MISS:          0
cpu0_L2C WRITEBACK ACCESS:      26120  HIT:      25993  MISS:        127
LLC TOTAL     ACCESS:     887378  HIT:     880944  MISS:       6434
LLC LOAD      ACCESS:     863690  HIT:     860155  MISS:       3535
LLC RFO       ACCESS:       9020  HIT:       6122  MISS:       2898
LLC PREFETCH  ACCESS:          0  HIT:          0  MISS:          0
LLC WRITEBACK ACCESS:      14426  HIT:      14425  MISS:          1
Heartbeat CPU 0 instructions: 86000001 cycles: 64672862 heartbeat IPC: 0.729963 cumulative IPC: 0.7066 (Simulation time: 0 hr 42 min 26 sec) 

Region of Interest Statistics
cpu0_DTLB TOTAL     ACCESS:    7560718  HIT:    7314830  MISS:     245888
cpu0_DTLB LOAD      ACCESS:    6598724  HIT:    6360139  MISS:     238585
cpu0_DTLB RFO       ACCESS:     961994  HIT:     954691  MISS:       7303
cpu0_DTLB PREFETCH  ACCESS:          0  HIT:          0  MISS:          0
cpu0_DTLB WRITEBACK ACCESS:          0  HIT:          0  MISS:          0
cpu0_ITLB TOTAL     ACCESS:    4309888  HIT:    4287461  MISS:      22427
cpu0_ITLB LOAD      ACCESS:    4309888  HIT:    4287461  MISS:      22427
cpu0_ITLB RFO       ACCESS:          0  HIT:          0  MISS:          0
cpu0_ITLB PREFETCH  ACCESS:          0  HIT:          0  MISS:          0
cpu0_ITLB WRITEBACK ACCESS:          0  HIT:          0  MISS:          0
cpu0_L1I TOTAL     ACCESS:     728167  HIT:     612885  MISS:     115282
cpu0_L1I LOAD      ACCESS:     728167  HIT:     612885  MISS:     115282
cpu0_L1I RFO       ACCESS:          0  HIT:          0  MISS:          0
cpu0_L1I PREFETCH  ACCESS:          0  HIT:          0  MISS:          0
cpu0_L1I WRITEBACK ACCESS:          0  HIT:          0  MISS:          0
cpu0_STLB TOTAL     ACCESS:     268315  HIT:      80430  MISS:     187885
cpu0_STLB LOAD      ACCESS:     261012  HIT:      73525  MISS:     187487
cpu0_STLB RFO       ACCESS:       7303  HIT:       6905  MISS:        398
cpu0_STLB PREFETCH  ACCESS:          0  HIT:          0  MISS:          0
cpu0_STLB WRITEBACK ACCESS:          0  HIT:          0  MISS:          0
cpu0_L1D TOTAL     ACCESS:    7175950  HIT:    6189189  MISS:     986761
cpu0_L1D LOAD      ACCESS:    5384964  HIT:    4413348  MISS:     971616
cpu0_L1D RFO       ACCESS:    1635751  HIT:    1621435  MISS:      14316
cpu0_L1D PREFETCH  ACCESS:          0  HIT:          0  MISS:          0
cpu0_L1D WRITEBACK ACCESS:          0  HIT:          0  MISS:          0
cpu0_L2C TOTAL     ACCESS:    1129396  HIT:     207681  MISS:     921715
cpu0_L2C LOAD      ACCESS:    1086897  HIT:     175140  MISS:     911757
cpu0_L2C RFO       ACCESS:      14310  HIT:       4739  MISS:       9571
cpu0_L2C PREFETCH  ACCESS:          0  HIT:          0  MISS:          0
cpu0_L2C WRITEBACK ACCESS:      27360  HIT:      27228  MISS:        132
LLC TOTAL     ACCESS:     936751  HIT:     929997  MISS:       6754
LLC LOAD      ACCESS:     911750  HIT:     908168  MISS:       3582
LLC RFO       ACCESS:       9571  HIT:       6400  MISS:       3171
LLC PREFETCH  ACCESS:          0  HIT:          0  MISS:          0
LLC WRITEBACK ACCESS:      15175  HIT:      15174  MISS:          1
Heartbeat CPU 0 instructions: 88000002 cycles: 67749579 heartbeat IPC: 0.650044 cumulative IPC: 0.703379 (Simulation time: 0 hr 43 min 27 sec) 

Region of Interest Statistics
cpu0_DTLB TOTAL     ACCESS:    7981460  HIT:    7721316  MISS:     260144
cpu0_DTLB LOAD      ACCESS:    6980119  HIT:    6727478  MISS:     252641
cpu0_DTLB RFO       ACCESS:    1001341  HIT:     993838  MISS:       7503
cpu0_DTLB PREFETCH  ACCESS:          0  HIT:          0  MISS:          0
cpu0_DTLB WRITEBACK ACCESS:          0  HIT:          0  MISS:          0
cpu0_ITLB TOTAL     ACCESS:    4565096  HIT:    4541997  MISS:      23099
cpu0_ITLB LOAD      ACCESS:    4565096  HIT:    4541997  MISS:      23099
cpu0_ITLB RFO       ACCESS:          0  HIT:          0  MISS:          0
cpu0_ITLB PREFETCH  ACCESS:          0  HIT:          0  MISS:          0
cpu0_ITLB WRITEBACK ACCESS:          0  HIT:          0  MISS:          0
cpu0_L1I TOTAL     ACCESS:     746642  HIT:     627421  MISS:     119221
cpu0_L1I LOAD      ACCESS:     746642  HIT:     627421  MISS:     119221
cpu0_L1I RFO       ACCESS:          0  HIT:          0  MISS:          0
cpu0_L1I PREFETCH  ACCESS:          0  HIT:          0  MISS:          0
cpu0_L1I WRITEBACK ACCESS:          0  HIT:          0  MISS:          0
cpu0_STLB TOTAL     ACCESS:     283243  HIT:      83110  MISS:     200133
cpu0_STLB LOAD      ACCESS:     275740  HIT:      76024  MISS:     199716
cpu0_STLB RFO       ACCESS:       7503  HIT:       7086  MISS:        417
cpu0_STLB PREFETCH  ACCESS:          0  HIT:          0  MISS:          0
cpu0_STLB WRITEBACK ACCESS:          0  HIT:          0  MISS:          0
cpu0_L1D TOTAL     ACCESS:    7556498  HIT:    6507431  MISS:    1049067
cpu0_L1D LOAD      ACCESS:    5692104  HIT:    4658551  MISS:    1033553
cpu0_L1D RFO       ACCESS:    1699009  HIT:    1684371  MISS:      14638
cpu0_L1D PREFETCH  ACCESS:          0  HIT:          0  MISS:          0
cpu0_L1D WRITEBACK ACCESS:          0  HIT:          0  MISS:          0
cpu0_L2C TOTAL     ACCESS:    1196448  HIT:     214084  MISS:     982364
cpu0_L2C LOAD      ACCESS:    1152773  HIT:     180613  MISS:     972160
cpu0_L2C RFO       ACCESS:      14632  HIT:       4840  MISS:       9792
cpu0_L2C PREFETCH  ACCESS:          0  HIT:          0  MISS:          0
cpu0_L2C WRITEBACK ACCESS:      28167  HIT:      28026  MISS:        141
LLC TOTAL     ACCESS:     997927  HIT:     991070  MISS:       6857
LLC LOAD      ACCESS:     972153  HIT:     968523  MISS:       3630
LLC RFO       ACCESS:       9792  HIT:       6566  MISS:       3226
LLC PREFETCH  ACCESS:          0  HIT:          0  MISS:          0
LLC WRITEBACK ACCESS:      15711  HIT:      15710  MISS:          1
Heartbeat CPU 0 instructions: 90000000 cycles: 70045095 heartbeat IPC: 0.871263 cumulative IPC: 0.710222 (Simulation time: 0 hr 44 min 26 sec) 

Region of Interest Statistics
cpu0_DTLB TOTAL     ACCESS:    8407660  HIT:    8139160  MISS:     268500
cpu0_DTLB LOAD      ACCESS:    7343781  HIT:    7083434  MISS:     260347
cpu0_DTLB RFO       ACCESS:    1063879  HIT:    1055726  MISS:       8153
cpu0_DTLB PREFETCH  ACCESS:          0  HIT:          0  MISS:          0
cpu0_DTLB WRITEBACK ACCESS:          0  HIT:          0  MISS:          0
cpu0_ITLB TOTAL     ACCESS:    4799184  HIT:    4774001  MISS:      25183
cpu0_ITLB LOAD      ACCESS:    4799184  HIT:    4774001  MISS:      25183
cpu0_ITLB RFO       ACCESS:          0  HIT:          0  MISS:          0
cpu0_ITLB PREFETCH  ACCESS:          0  HIT:          0  MISS:          0
cpu0_ITLB WRITEBACK ACCESS:          0  HIT:          0  MISS:          0
cpu0_L1I TOTAL     ACCESS:     805415  HIT:     675452  MISS:     129963
cpu0_L1I LOAD      ACCESS:     805415  HIT:     675452  MISS:     129963
cpu0_L1I RFO       ACCESS:          0  HIT:          0  MISS:          0
cpu0_L1I PREFETCH  ACCESS:          0  HIT:          0  MISS:          0
cpu0_L1I WRITEBACK ACCESS:          0  HIT:          0  MISS:          0
cpu0_STLB TOTAL     ACCESS:     293683  HIT:      91401  MISS:     202282
cpu0_STLB LOAD      ACCESS:     285530  HIT:      83687  MISS:     201843
cpu0_STLB RFO       ACCESS:       8153  HIT:       7714  MISS:        439
cpu0_STLB PREFETCH  ACCESS:          0  HIT:          0  MISS:          0
cpu0_STLB WRITEBACK ACCESS:          0  HIT:          0  MISS:          0
cpu0_L1D TOTAL     ACCESS:    7964100  HIT:    6872121  MISS:    1091979
cpu0_L1D LOAD      ACCESS:    5981993  HIT:    4906804  MISS:    1075189
cpu0_L1D RFO       ACCESS:    1814820  HIT:    1798937  MISS:      15883
cpu0_L1D PREFETCH  ACCESS:          0  HIT:          0  MISS:          0
cpu0_L1D WRITEBACK ACCESS:          0  HIT:          0  MISS:          0
cpu0_L2C TOTAL     ACCESS:    1252544  HIT:     241424  MISS:    1011120
cpu0_L2C LOAD      ACCESS:    1205151  HIT:     204968  MISS:    1000183
cpu0_L2C RFO       ACCESS:      15877  HIT:       5372  MISS:      10505
cpu0_L2C PREFETCH  ACCESS:          0  HIT:          0  MISS:          0
cpu0_L2C WRITEBACK ACCESS:      30609  HIT:      30459  MISS:        150
LLC TOTAL     ACCESS:    1027492  HIT:    1020265  MISS:       7227
LLC LOAD      ACCESS:    1000176  HIT:     996487  MISS:       3689
LLC RFO       ACCESS:      10505  HIT:       6968  MISS:       3537
LLC PREFETCH  ACCESS:          0  HIT:          0  MISS:          0
LLC WRITEBACK ACCESS:      16529  HIT:      16528  MISS:          1
Heartbeat CPU 0 instructions: 92000001 cycles: 72815436 heartbeat IPC: 0.721933 cumulative IPC: 0.710771 (Simulation time: 0 hr 45 min 29 sec) 

Region of Interest Statistics
cpu0_DTLB TOTAL     ACCESS:    8829614  HIT:    8547102  MISS:     282512
cpu0_DTLB LOAD      ACCESS:    7708114  HIT:    7434259  MISS:     273855
cpu0_DTLB RFO       ACCESS:    1121500  HIT:    1112843  MISS:       8657
cpu0_DTLB PREFETCH  ACCESS:          0  HIT:          0  MISS:          0
cpu0_DTLB WRITEBACK ACCESS:          0  HIT:          0  MISS:          0
cpu0_ITLB TOTAL     ACCESS:    5035490  HIT:    5008903  MISS:      26587
cpu0_ITLB LOAD      ACCESS:    5035490  HIT:    5008903  MISS:      26587
cpu0_ITLB RFO       ACCESS:          0  HIT:          0  MISS:          0
cpu0_ITLB PREFETCH  ACCESS:          0  HIT:          0  MISS:          0
cpu0_ITLB WRITEBACK ACCESS:          0  HIT:          0  MISS:          0
cpu0_L1I TOTAL     ACCESS:     865845  HIT:     729142  MISS:     136703
cpu0_L1I LOAD      ACCESS:     865845  HIT:     729142  MISS:     136703
cpu0_L1I RFO       ACCESS:          0  HIT:          0  MISS:          0
cpu0_L1I PREFETCH  ACCESS:          0  HIT:          0  MISS:          0
cpu0_L1I WRITEBACK ACCESS:          0  HIT:          0  MISS:          0
cpu0_STLB TOTAL     ACCESS:     309099  HIT:      96507  MISS:     212592
cpu0_STLB LOAD      ACCESS:     300442  HIT:      88307  MISS:     212135
cpu0_STLB RFO       ACCESS:       8657  HIT:       8200  MISS:        457
cpu0_STLB PREFETCH  ACCESS:          0  HIT:          0  MISS:          0
cpu0_STLB WRITEBACK ACCESS:          0  HIT:          0  MISS:          0
cpu0_L1D TOTAL     ACCESS:    8380949  HIT:    7238816  MISS:    1142133
cpu0_L1D LOAD      ACCESS:    6285858  HIT:    5161121  MISS:    1124737
cpu0_L1D RFO       ACCESS:    1919263  HIT:    1902814  MISS:      16449
cpu0_L1D PREFETCH  ACCESS:          0  HIT:          0  MISS:          0
cpu0_L1D WRITEBACK ACCESS:          0  HIT:          0  MISS:          0
cpu0_L2C TOTAL     ACCESS:    1310542  HIT:     248971  MISS:    1061571
cpu0_L2C LOAD      ACCESS:    1261438  HIT:     211251  MISS:    1050187
cpu0_L2C RFO       ACCESS:      16442  HIT:       5513  MISS:      10929
cpu0_L2C PREFETCH  ACCESS:          0  HIT:          0  MISS:          0
cpu0_L2C WRITEBACK ACCESS:      31715  HIT:      31556  MISS:        159
LLC TOTAL     ACCESS:    1078719  HIT:    1071251  MISS:       7468
LLC LOAD      ACCESS:    1050180  HIT:    1046453  MISS:       3727
LLC RFO       ACCESS:      10929  HIT:       7189  MISS:       3740
LLC PREFETCH  ACCESS:          0  HIT:          0  MISS:          0
LLC WRITEBACK ACCESS:      17314  HIT:      17313  MISS:          1
Heartbeat CPU 0 instructions: 94000002 cycles: 75769579 heartbeat IPC: 0.677016 cumulative IPC: 0.709164 (Simulation time: 0 hr 46 min 25 sec) 

Region of Interest Statistics
cpu0_DTLB TOTAL     ACCESS:    9251179  HIT:    8954174  MISS:     297005
cpu0_DTLB LOAD      ACCESS:    8080340  HIT:    7792348  MISS:     287992
cpu0_DTLB RFO       ACCESS:    1170839  HIT:    1161826  MISS:       9013
cpu0_DTLB PREFETCH  ACCESS:          0  HIT:          0  MISS:          0
cpu0_DTLB WRITEBACK ACCESS:          0  HIT:          0  MISS:          0
cpu0_ITLB TOTAL     ACCESS:    5280571  HIT:    5252841  MISS:      27730
cpu0_ITLB LOAD      ACCESS:    5280571  HIT:    5252841  MISS:      27730
cpu0_ITLB RFO       ACCESS:          0  HIT:          0  MISS:          0
cpu0_ITLB PREFETCH  ACCESS:          0  HIT:          0  MISS:          0
cpu0_ITLB WRITEBACK ACCESS:          0  HIT:          0  MISS:          0
cpu0_L1I TOTAL     ACCESS:     906143  HIT:     763440  MISS:     142703
cpu0_L1I LOAD      ACCESS:     906143  HIT:     763440  MISS:     142703
cpu0_L1I RFO       ACCESS:          0  HIT:          0  MISS:          0
cpu0_L1I PREFETCH  ACCESS:          0  HIT:          0  MISS:          0
cpu0_L1I WRITEBACK ACCESS:          0  HIT:          0  MISS:          0
cpu0_STLB TOTAL     ACCESS:     324735  HIT:     100780  MISS:     223955
cpu0_STLB LOAD      ACCESS:     315722  HIT:      92247  MISS:     223475
cpu0_STLB RFO       ACCESS:       9013  HIT:       8533  MISS:        480
cpu0_STLB PREFETCH  ACCESS:          0  HIT:          0  MISS:          0
cpu0_STLB WRITEBACK ACCESS:          0  HIT:          0  MISS:          0
cpu0_L1D TOTAL     ACCESS:    8781773  HIT:    7582801  MISS:    1198972
cpu0_L1D LOAD      ACCESS:    6591408  HIT:    5410457  MISS:    1180951
cpu0_L1D RFO       ACCESS:    2005116  HIT:    1988090  MISS:      17026
cpu0_L1D PREFETCH  ACCESS:          0  HIT:          0  MISS:          0
cpu0_L1D WRITEBACK ACCESS:          0  HIT:          0  MISS:          0
cpu0_L2C TOTAL     ACCESS:    1374517  HIT:     255567  MISS:    1118950
cpu0_L2C LOAD      ACCESS:    1323652  HIT:     216530  MISS:    1107122
cpu0_L2C RFO       ACCESS:      17019  HIT:       5672  MISS:      11347
cpu0_L2C PREFETCH  ACCESS:          0  HIT:          0  MISS:          0
cpu0_L2C WRITEBACK ACCESS:      32851  HIT:      32682  MISS:        169
LLC TOTAL     ACCESS:    1136695  HIT:    1129037  MISS:       7658
LLC LOAD      ACCESS:    1107115  HIT:    1103340  MISS:       3775
LLC RFO       ACCESS:      11347  HIT:       7465  MISS:       3882
LLC PREFETCH  ACCESS:          0  HIT:          0  MISS:          0
LLC WRITEBACK ACCESS:      17921  HIT:      17920  MISS:          1
Heartbeat CPU 0 instructions: 96000002 cycles: 78450757 heartbeat IPC: 0.745941 cumulative IPC: 0.710687 (Simulation time: 0 hr 47 min 25 sec) 

Region of Interest Statistics
cpu0_DTLB TOTAL     ACCESS:    9663852  HIT:    9354619  MISS:     309233
cpu0_DTLB LOAD      ACCESS:    8427986  HIT:    8128136  MISS:     299850
cpu0_DTLB RFO       ACCESS:    1235866  HIT:    1226483  MISS:       9383
cpu0_DTLB PREFETCH  ACCESS:          0  HIT:          0  MISS:          0
cpu0_DTLB WRITEBACK ACCESS:          0  HIT:          0  MISS:          0
cpu0_ITLB TOTAL     ACCESS:    5498183  HIT:    5469432  MISS:      28751
cpu0_ITLB LOAD      ACCESS:    5498183  HIT:    5469432  MISS:      28751
cpu0_ITLB RFO       ACCESS:          0  HIT:          0  MISS:          0
cpu0_ITLB PREFETCH  ACCESS:          0  HIT:          0  MISS:          0
cpu0_ITLB WRITEBACK ACCESS:          0  HIT:          0  MISS:          0
cpu0_L1I TOTAL     ACCESS:     936092  HIT:     788693  MISS:     147399
cpu0_L1I LOAD      ACCESS:     936092  HIT:     788693  MISS:     147399
cpu0_L1I RFO       ACCESS:          0  HIT:          0  MISS:          0
cpu0_L1I PREFETCH  ACCESS:          0  HIT:          0  MISS:          0
cpu0_L1I WRITEBACK ACCESS:          0  HIT:          0  MISS:          0
cpu0_STLB TOTAL     ACCESS:     337984  HIT:     103814  MISS:     234170
cpu0_STLB LOAD      ACCESS:     328601  HIT:      94943  MISS:     233658
cpu0_STLB RFO       ACCESS:       9383  HIT:       8871  MISS:        512
cpu0_STLB PREFETCH  ACCESS:          0  HIT:          0  MISS:          0
cpu0_STLB WRITEBACK ACCESS:          0  HIT:          0  MISS:          0
cpu0_L1D TOTAL     ACCESS:    9161712  HIT:    7911099  MISS:    1250613
cpu0_L1D LOAD      ACCESS:    6868893  HIT:    5637915  MISS:    1230978
cpu0_L1D RFO       ACCESS:    2099088  HIT:    2080493  MISS:      18595
cpu0_L1D PREFETCH  ACCESS:          0  HIT:          0  MISS:          0
cpu0_L1D WRITEBACK ACCESS:          0  HIT:          0  MISS:          0
cpu0_L2C TOTAL     ACCESS:    1433261  HIT:     262814  MISS:    1170447
cpu0_L2C LOAD      ACCESS:    1378375  HIT:     221117  MISS:    1157258
cpu0_L2C RFO       ACCESS:      18588  HIT:       5897  MISS:      12691
cpu0_L2C PREFETCH  ACCESS:          0  HIT:          0  MISS:          0
cpu0_L2C WRITEBACK ACCESS:      35258  HIT:      35084  MISS:        174
LLC TOTAL     ACCESS:    1190491  HIT:    1181830  MISS:       8661
LLC LOAD      ACCESS:    1157251  HIT:    1152669  MISS:       4582
LLC RFO       ACCESS:      12691  HIT:       8613  MISS:       4078
LLC PREFETCH  ACCESS:          0  HIT:          0  MISS:          0
LLC WRITEBACK ACCESS:      20225  HIT:      20224  MISS:          1
Heartbeat CPU 0 instructions: 98000001 cycles: 81244399 heartbeat IPC: 0.715911 cumulative IPC: 0.710903 (Simulation time: 0 hr 48 min 25 sec) 

Region of Interest Statistics
cpu0_DTLB TOTAL     ACCESS:   10082540  HIT:    9760319  MISS:     322221
cpu0_DTLB LOAD      ACCESS:    8800147  HIT:    8487597  MISS:     312550
cpu0_DTLB RFO       ACCESS:    1282393  HIT:    1272722  MISS:       9671
cpu0_DTLB PREFETCH  ACCESS:          0  HIT:          0  MISS:          0
cpu0_DTLB WRITEBACK ACCESS:          0  HIT:          0  MISS:          0
cpu0_ITLB TOTAL     ACCESS:    5743312  HIT:    5713576  MISS:      29736
cpu0_ITLB LOAD      ACCESS:    5743312  HIT:    5713576  MISS:      29736
cpu0_ITLB RFO       ACCESS:          0  HIT:          0  MISS:          0
cpu0_ITLB PREFETCH  ACCESS:          0  HIT:          0  MISS:          0
cpu0_ITLB WRITEBACK ACCESS:          0  HIT:          0  MISS:          0
cpu0_L1I TOTAL     ACCESS:     976453  HIT:     823751  MISS:     152702
cpu0_L1I LOAD      ACCESS:     976453  HIT:     823751  MISS:     152702
cpu0_L1I RFO       ACCESS:          0  HIT:          0  MISS:          0
cpu0_L1I PREFETCH  ACCESS:          0  HIT:          0  MISS:          0
cpu0_L1I WRITEBACK ACCESS:          0  HIT:          0  MISS:          0
cpu0_STLB TOTAL     ACCESS:     351957  HIT:     108592  MISS:     243365
cpu0_STLB LOAD      ACCESS:     342286  HIT:      99438  MISS:     242848
cpu0_STLB RFO       ACCESS:       9671  HIT:       9154  MISS:        517
cpu0_STLB PREFETCH  ACCESS:          0  HIT:          0  MISS:          0
cpu0_STLB WRITEBACK ACCESS:          0  HIT:          0  MISS:          0
cpu0_L1D TOTAL     ACCESS:    9554010  HIT:    8247663  MISS:    1306347
cpu0_L1D LOAD      ACCESS:    7172658  HIT:    5886514  MISS:    1286144
cpu0_L1D RFO       ACCESS:    2180070  HIT:    2160944  MISS:      19126
cpu0_L1D PREFETCH  ACCESS:          0  HIT:          0  MISS:          0
cpu0_L1D WRITEBACK ACCESS:          0  HIT:          0  MISS:          0
cpu0_L2C TOTAL     ACCESS:    1495448  HIT:     276582  MISS:    1218866
cpu0_L2C LOAD      ACCESS:    1438844  HIT:     233463  MISS:    1205381
cpu0_L2C RFO       ACCESS:      19119  HIT:       6149  MISS:      12970
cpu0_L2C PREFETCH  ACCESS:          0  HIT:          0  MISS:          0
cpu0_L2C WRITEBACK ACCESS:      36408  HIT:      36228  MISS:        180
LLC TOTAL     ACCESS:    1239609  HIT:    1230806  MISS:       8803
LLC LOAD      ACCESS:    1205373  HIT:    1200766  MISS:       4607
LLC RFO       ACCESS:      12970  HIT:       8775  MISS:       4195
LLC PREFETCH  ACCESS:          0  HIT:          0  MISS:          0
LLC WRITEBACK ACCESS:      20931  HIT:      20930  MISS:          1
Heartbeat CPU 0 instructions: 100000003 cycles: 84025470 heartbeat IPC: 0.719148 cumulative IPC: 0.71123 (Simulation time: 0 hr 49 min 31 sec) 

Region of Interest Statistics
cpu0_DTLB TOTAL     ACCESS:   10509996  HIT:   10172357  MISS:     337639
cpu0_DTLB LOAD      ACCESS:    9160632  HIT:    8833357  MISS:     327275
cpu0_DTLB RFO       ACCESS:    1349364  HIT:    1339000  MISS:      10364
cpu0_DTLB PREFETCH  ACCESS:          0  HIT:          0  MISS:          0
cpu0_DTLB WRITEBACK ACCESS:          0  HIT:          0  MISS:          0
cpu0_ITLB TOTAL     ACCESS:    5977817  HIT:    5946093  MISS:      31724
cpu0_ITLB LOAD      ACCESS:    5977817  HIT:    5946093  MISS:      31724
cpu0_ITLB RFO       ACCESS:          0  HIT:          0  MISS:          0
cpu0_ITLB PREFETCH  ACCESS:          0  HIT:          0  MISS:          0
cpu0_ITLB WRITEBACK ACCESS:          0  HIT:          0  MISS:          0
cpu0_L1I TOTAL     ACCESS:    1036150  HIT:     874373  MISS:     161777
cpu0_L1I LOAD      ACCESS:    1036150  HIT:     874373  MISS:     161777
cpu0_L1I RFO       ACCESS:          0  HIT:          0  MISS:          0
cpu0_L1I PREFETCH  ACCESS:          0  HIT:          0  MISS:          0
cpu0_L1I WRITEBACK ACCESS:          0  HIT:          0  MISS:          0
cpu0_STLB TOTAL     ACCESS:     369363  HIT:     114864  MISS:     254499
cpu0_STLB LOAD      ACCESS:     358999  HIT:     105053  MISS:     253946
cpu0_STLB RFO       ACCESS:      10364  HIT:       9811  MISS:        553
cpu0_STLB PREFETCH  ACCESS:          0  HIT:          0  MISS:          0
cpu0_STLB WRITEBACK ACCESS:          0  HIT:          0  MISS:          0
cpu0_L1D TOTAL     ACCESS:    9988068  HIT:    8631221  MISS:    1356847
cpu0_L1D LOAD      ACCESS:    7473534  HIT:    6137750  MISS:    1335784
cpu0_L1D RFO       ACCESS:    2304096  HIT:    2284160  MISS:      19936
cpu0_L1D PREFETCH  ACCESS:          0  HIT:          0  MISS:          0
cpu0_L1D WRITEBACK ACCESS:          0  HIT:          0  MISS:          0
cpu0_L2C TOTAL     ACCESS:    1556338  HIT:     288073  MISS:    1268265
cpu0_L2C LOAD      ACCESS:    1497559  HIT:     243407  MISS:    1254152
cpu0_L2C RFO       ACCESS:      19929  HIT:       6355  MISS:      13574
cpu0_L2C PREFETCH  ACCESS:          0  HIT:          0  MISS:          0
cpu0_L2C WRITEBACK ACCESS:      37723  HIT:      37536  MISS:        187
LLC TOTAL     ACCESS:    1289717  HIT:    1280488  MISS:       9229
LLC LOAD      ACCESS:    1254144  HIT:    1249463  MISS:       4681
LLC RFO       ACCESS:      13574  HIT:       9027  MISS:       4547
LLC PREFETCH  ACCESS:          0  HIT:          0  MISS:          0
LLC WRITEBACK ACCESS:      21647  HIT:      21646  MISS:          1
Heartbeat CPU 0 instructions: 102000001 cycles: 86268529 heartbeat IPC: 0.891639 cumulative IPC: 0.716808 (Simulation time: 0 hr 50 min 27 sec) 

Region of Interest Statistics
cpu0_DTLB TOTAL     ACCESS:   10931941  HIT:   10583423  MISS:     348518
cpu0_DTLB LOAD      ACCESS:    9514800  HIT:    9177403  MISS:     337397
cpu0_DTLB RFO       ACCESS:    1417141  HIT:    1406020  MISS:      11121
cpu0_DTLB PREFETCH  ACCESS:          0  HIT:          0  MISS:          0
cpu0_DTLB WRITEBACK ACCESS:          0  HIT:          0  MISS:          0
cpu0_ITLB TOTAL     ACCESS:    6202424  HIT:    6168559  MISS:      33865
cpu0_ITLB LOAD      ACCESS:    6202424  HIT:    6168559  MISS:      33865
cpu0_ITLB RFO       ACCESS:          0  HIT:          0  MISS:          0
cpu0_ITLB PREFETCH  ACCESS:          0  HIT:          0  MISS:          0
cpu0_ITLB WRITEBACK ACCESS:          0  HIT:          0  MISS:          0
cpu0_L1I TOTAL     ACCESS:    1116528  HIT:     943588  MISS:     172940
cpu0_L1I LOAD      ACCESS:    1116528  HIT:     943588  MISS:     172940
cpu0_L1I RFO       ACCESS:          0  HIT:          0  MISS:          0
cpu0_L1I PREFETCH  ACCESS:          0  HIT:          0  MISS:          0
cpu0_L1I WRITEBACK ACCESS:          0  HIT:          0  MISS:          0
cpu0_STLB TOTAL     ACCESS:     382383  HIT:     123616  MISS:     258767
cpu0_STLB LOAD      ACCESS:     371262  HIT:     113057  MISS:     258205
cpu0_STLB RFO       ACCESS:      11121  HIT:      10559  MISS:        562
cpu0_STLB PREFETCH  ACCESS:          0  HIT:          0  MISS:          0
cpu0_STLB WRITEBACK ACCESS:          0  HIT:          0  MISS:          0
cpu0_L1D TOTAL     ACCESS:   10414006  HIT:    9015634  MISS:    1398372
cpu0_L1D LOAD      ACCESS:    7767010  HIT:    6390899  MISS:    1376111
cpu0_L1D RFO       ACCESS:    2433010  HIT:    2411908  MISS:      21102
cpu0_L1D PREFETCH  ACCESS:          0  HIT:          0  MISS:          0
cpu0_L1D WRITEBACK ACCESS:          0  HIT:          0  MISS:          0
cpu0_L2C TOTAL     ACCESS:    1611669  HIT:     319825  MISS:    1291844
cpu0_L2C LOAD      ACCESS:    1549049  HIT:     271800  MISS:    1277249
cpu0_L2C RFO       ACCESS:      21094  HIT:       7048  MISS:      14046
cpu0_L2C PREFETCH  ACCESS:          0  HIT:          0  MISS:          0
cpu0_L2C WRITEBACK ACCESS:      40367  HIT:      40176  MISS:        191
LLC TOTAL     ACCESS:    1314098  HIT:    1304535  MISS:       9563
LLC LOAD      ACCESS:    1277237  HIT:    1272532  MISS:       4705
LLC RFO       ACCESS:      14046  HIT:       9189  MISS:       4857
LLC PREFETCH  ACCESS:          0  HIT:          0  MISS:          0
LLC WRITEBACK ACCESS:      22457  HIT:      22456  MISS:          1
Heartbeat CPU 0 instructions: 104000000 cycles: 88390819 heartbeat IPC: 0.942378 cumulative IPC: 0.723219 (Simulation time: 0 hr 51 min 23 sec) 

Region of Interest Statistics
cpu0_DTLB TOTAL     ACCESS:   11347677  HIT:   10986228  MISS:     361449
cpu0_DTLB LOAD      ACCESS:    9832250  HIT:    9483074  MISS:     349176
cpu0_DTLB RFO       ACCESS:    1515427  HIT:    1503154  MISS:      12273
cpu0_DTLB PREFETCH  ACCESS:          0  HIT:          0  MISS:          0
cpu0_DTLB WRITEBACK ACCESS:          0  HIT:          0  MISS:          0
cpu0_ITLB TOTAL     ACCESS:    6393224  HIT:    6356671  MISS:      36553
cpu0_ITLB LOAD      ACCESS:    6393224  HIT:    6356671  MISS:      36553
cpu0_ITLB RFO       ACCESS:          0  HIT:          0  MISS:          0
cpu0_ITLB PREFETCH  ACCESS:          0  HIT:          0  MISS:          0
cpu0_ITLB WRITEBACK ACCESS:          0  HIT:          0  MISS:          0
cpu0_L1I TOTAL     ACCESS:    1201748  HIT:    1018726  MISS:     183022
cpu0_L1I LOAD      ACCESS:    1201748  HIT:    1018726  MISS:     183022
cpu0_L1I RFO       ACCESS:          0  HIT:          0  MISS:          0
cpu0_L1I PREFETCH  ACCESS:          0  HIT:          0  MISS:          0
cpu0_L1I WRITEBACK ACCESS:          0  HIT:          0  MISS:          0
cpu0_STLB TOTAL     ACCESS:     398002  HIT:     132767  MISS:     265235
cpu0_STLB LOAD      ACCESS:     385729  HIT:     121090  MISS:     264639
cpu0_STLB RFO       ACCESS:      12273  HIT:      11677  MISS:        596
cpu0_STLB PREFETCH  ACCESS:          0  HIT:          0  MISS:          0
cpu0_STLB WRITEBACK ACCESS:          0  HIT:          0  MISS:          0
cpu0_L1D TOTAL     ACCESS:   10852005  HIT:    9420588  MISS:    1431417
cpu0_L1D LOAD      ACCESS:    8030817  HIT:    6623674  MISS:    1407143
cpu0_L1D RFO       ACCESS:    2601877  HIT:    2578807  MISS:      23070
cpu0_L1D PREFETCH  ACCESS:          0  HIT:          0  MISS:          0
cpu0_L1D WRITEBACK ACCESS:          0  HIT:          0  MISS:          0
cpu0_L2C TOTAL     ACCESS:    1657242  HIT:     335146  MISS:    1322096
cpu0_L2C LOAD      ACCESS:    1590163  HIT:     284165  MISS:    1305998
cpu0_L2C RFO       ACCESS:      23062  HIT:       7527  MISS:      15535
cpu0_L2C PREFETCH  ACCESS:          0  HIT:          0  MISS:          0
cpu0_L2C WRITEBACK ACCESS:      42813  HIT:      42617  MISS:        196
LLC TOTAL     ACCESS:    1344457  HIT:    1334279  MISS:      10178
LLC LOAD      ACCESS:    1305986  HIT:    1301250  MISS:       4736
LLC RFO       ACCESS:      15535  HIT:      10094  MISS:       5441
LLC PREFETCH  ACCESS:          0  HIT:          0  MISS:          0
LLC WRITEBACK ACCESS:      22569  HIT:      22568  MISS:          1
Heartbeat CPU 0 instructions: 106000000 cycles: 91206499 heartbeat IPC: 0.710308 cumulative IPC: 0.72275 (Simulation time: 0 hr 52 min 22 sec) 

Region of Interest Statistics
cpu0_DTLB TOTAL     ACCESS:   11770376  HIT:   11394573  MISS:     375803
cpu0_DTLB LOAD      ACCESS:   10200099  HIT:    9837080  MISS:     363019
cpu0_DTLB RFO       ACCESS:    1570277  HIT:    1557493  MISS:      12784
cpu0_DTLB PREFETCH  ACCESS:          0  HIT:          0  MISS:          0
cpu0_DTLB WRITEBACK ACCESS:          0  HIT:          0  MISS:          0
cpu0_ITLB TOTAL     ACCESS:    6633964  HIT:    6595982  MISS:      37982
cpu0_ITLB LOAD      ACCESS:    6633964  HIT:    6595982  MISS:      37982
cpu0_ITLB RFO       ACCESS:          0  HIT:          0  MISS:          0
cpu0_ITLB PREFETCH  ACCESS:          0  HIT:          0  MISS:          0
cpu0_ITLB WRITEBACK ACCESS:          0  HIT:          0  MISS:          0
cpu0_L1I TOTAL     ACCESS:    1250479  HIT:    1061052  MISS:     189427
cpu0_L1I LOAD      ACCESS:    1250479  HIT:    1061052  MISS:     189427
cpu0_L1I RFO       ACCESS:          0  HIT:          0  MISS:          0
cpu0_L1I PREFETCH  ACCESS:          0  HIT:          0  MISS:          0
cpu0_L1I WRITEBACK ACCESS:          0  HIT:          0  MISS:          0
cpu0_STLB TOTAL     ACCESS:     413785  HIT:     137772  MISS:     276013
cpu0_STLB LOAD      ACCESS:     401001  HIT:     125606  MISS:     275395
cpu0_STLB RFO       ACCESS:      12784  HIT:      12166  MISS:        618
cpu0_STLB PREFETCH  ACCESS:          0  HIT:          0  MISS:          0
cpu0_STLB WRITEBACK ACCESS:          0  HIT:          0  MISS:          0
cpu0_L1D TOTAL     ACCESS:   11264081  HIT:    9778981  MISS:    1485100
cpu0_L1D LOAD      ACCESS:    8334705  HIT:    6874516  MISS:    1460189
cpu0_L1D RFO       ACCESS:    2701189  HIT:    2677532  MISS:      23657
cpu0_L1D PREFETCH  ACCESS:          0  HIT:          0  MISS:          0
cpu0_L1D WRITEBACK ACCESS:          0  HIT:          0  MISS:          0
cpu0_L2C TOTAL     ACCESS:    1718731  HIT:     346784  MISS:    1371947
cpu0_L2C LOAD      ACCESS:    1649614  HIT:     294159  MISS:    1355455
cpu0_L2C RFO       ACCESS:      23649  HIT:       7740  MISS:      15909
cpu0_L2C PREFETCH  ACCESS:          0  HIT:          0  MISS:          0
[...]
cpu0_DTLB LOAD      ACCESS:  274887047  HIT:  265231038  MISS:    9656009
cpu0_DTLB RFO       ACCESS:   40319443  HIT:   40006438  MISS:     313005
cpu0_DTLB PREFETCH  ACCESS:          0  HIT:          0  MISS:          0
cpu0_DTLB WRITEBACK ACCESS:          0  HIT:          0  MISS:          0
cpu0_DTLB TRANSLATION ACCESS:          0  HIT:          0  MISS:          0
cpu0_DTLB PREFETCH  REQUESTED:          0  ISSUED:          0  USEFUL:          0  USELESS:          0
cpu0_DTLB AVERAGE MISS LATENCY: 15.0513 cycles
cpu0_ITLB TOTAL     ACCESS:  179309905  HIT:  178357064  MISS:     952841
cpu0_ITLB LOAD      ACCESS:  179309905  HIT:  178357064  MISS:     952841
cpu0_ITLB RFO       ACCESS:          0  HIT:          0  MISS:          0
cpu0_ITLB PREFETCH  ACCESS:          0  HIT:          0  MISS:          0
cpu0_ITLB WRITEBACK ACCESS:          0  HIT:          0  MISS:          0
cpu0_ITLB TRANSLATION ACCESS:          0  HIT:          0  MISS:          0
cpu0_ITLB PREFETCH  REQUESTED:          0  ISSUED:          0  USEFUL:          0  USELESS:          0
cpu0_ITLB AVERAGE MISS LATENCY: 9.64614 cycles
cpu0_L1I TOTAL     ACCESS:   31886221  HIT:   27112130  MISS:    4774091
cpu0_L1I LOAD      ACCESS:   31886221  HIT:   27112130  MISS:    4774091
cpu0_L1I RFO       ACCESS:          0  HIT:          0  MISS:          0
cpu0_L1I PREFETCH  ACCESS:          0  HIT:          0  MISS:          0
cpu0_L1I WRITEBACK ACCESS:          0  HIT:          0  MISS:          0
cpu0_L1I TRANSLATION ACCESS:          0  HIT:          0  MISS:          0
cpu0_L1I PREFETCH  REQUESTED:          0  ISSUED:          0  USEFUL:          0  USELESS:          0
cpu0_L1I AVERAGE MISS LATENCY: 15.3317 cycles
cpu0_STLB TOTAL     ACCESS:   10921855  HIT:    3497656  MISS:    7424199
cpu0_STLB LOAD      ACCESS:   10608850  HIT:    3200494  MISS:    7408356
cpu0_STLB RFO       ACCESS:     313005  HIT:     297162  MISS:      15843
cpu0_STLB PREFETCH  ACCESS:          0  HIT:          0  MISS:          0
cpu0_STLB WRITEBACK ACCESS:          0  HIT:          0  MISS:          0
cpu0_STLB TRANSLATION ACCESS:          0  HIT:          0  MISS:          0
cpu0_STLB PREFETCH  REQUESTED:          0  ISSUED:          0  USEFUL:          0  USELESS:          0
cpu0_STLB AVERAGE MISS LATENCY: 8.16138 cycles
cpu0_L1D TOTAL     ACCESS:  299629498  HIT:  259341493  MISS:   40288005
cpu0_L1D LOAD      ACCESS:  224259665  HIT:  184591266  MISS:   39668399
cpu0_L1D RFO       ACCESS:   69236301  HIT:   68649910  MISS:     586391
cpu0_L1D PREFETCH  ACCESS:          0  HIT:          0  MISS:          0
cpu0_L1D WRITEBACK ACCESS:          0  HIT:          0  MISS:          0
cpu0_L1D TRANSLATION ACCESS:    6133532  HIT:    6100317  MISS:      33215
cpu0_L1D PREFETCH  REQUESTED:          0  ISSUED:          0  USEFUL:          0  USELESS:          0
cpu0_L1D AVERAGE MISS LATENCY: 31.108 cycles
cpu0_L2C TOTAL     ACCESS:   46163875  HIT:    9102331  MISS:   37061544
cpu0_L2C LOAD      ACCESS:   44442356  HIT:    7785203  MISS:   36657153
cpu0_L2C RFO       ACCESS:     586228  HIT:     197969  MISS:     388259
cpu0_L2C PREFETCH  ACCESS:          0  HIT:          0  MISS:          0
cpu0_L2C WRITEBACK ACCESS:    1102076  HIT:    1096871  MISS:       5205
cpu0_L2C TRANSLATION ACCESS:      33215  HIT:      22288  MISS:      10927
cpu0_L2C PREFETCH  REQUESTED:          0  ISSUED:          0  USEFUL:          0  USELESS:          0
cpu0_L2C AVERAGE MISS LATENCY: 22.1862 cycles
LLC TOTAL     ACCESS:   37665915  HIT:   37431621  MISS:     234294
LLC LOAD      ACCESS:   36656785  HIT:   36556912  MISS:      99873
LLC RFO       ACCESS:     388259  HIT:     254107  MISS:     134152
LLC PREFETCH  ACCESS:          0  HIT:          0  MISS:          0
LLC WRITEBACK ACCESS:     609944  HIT:     609678  MISS:        266
LLC TRANSLATION ACCESS:      10927  HIT:      10924  MISS:          3
LLC PREFETCH  REQUESTED:          0  ISSUED:          0  USEFUL:          0  USELESS:          0
LLC AVERAGE MISS LATENCY: 188.126 cycles
~~~~~~~~~~Reuse Distance Profiler output~~~~~~~~~~
0	60317600	29854880
1	26536048	21486848
2	14203472	11939888
3	20516224	19193232
4	12383120	5758176
5	5192112	4416896
6	4644400	3777184
7	2178016	1539616
8	1336912	725040
9	2056272	726976
10	3375952	709008
11	5885840	567728
12	2956752	575744
13	1712672	558768
14	921696	567776
15	1182896	860656
16	920288	540784
17	772976	470384
18	774992	497232
19	767664	507824
20	643344	429504
21	650080	461120
22	1197136	1003136
23	2389104	2171472
24	2488720	2318768
25	1504896	1331488
26	961920	711536
27	1137200	954720
28	2076896	1921440
29	2565056	2425408
30	3392912	3290800
31	4132496	3982832
32	5669280	5558800
33	9221872	9109712
34	8937056	8812960
35	5309040	5220816
36	2674560	2554352
37	2762480	2626128
38	3939024	3804800
39	4590096	4443472
40	2596992	2429376
41	878080	741712
42	514352	358560
43	420144	296768
44	334816	234736
45	352704	231760
46	312960	219984
47	308768	272432
48	282048	215568
49	256496	212128
50	226752	181824
51	185984	153040
52	149792	122048
53	166496	127200
54	184192	157344
55	293920	266080
56	141904	115456
57	149296	112528
58	112672	74240
59	108688	79472
60	95248	73888
61	92032	61872
62	79904	56000
63	86080	67008
64	141856	98320
66	156384	129360
68	168528	145072
70	145552	113856
72	192144	151504
74	201648	173152
76	117344	88896
78	116640	82720
80	141664	108496
82	127376	105088
84	138976	116384
86	104848	87040
88	69472	54736
90	72032	48080
92	73824	57200
94	83504	75264
96	69280	60896
98	46400	38544
100	59152	48368
102	60736	49456
104	73984	58912
106	58448	51152
108	65648	58208
110	56000	47136
112	71344	62016
114	104880	94016
116	138992	129472
118	158368	150416
120	90800	83664
122	80672	72640
124	67248	60704
126	67184	62112
128	97488	87024
132	92768	75520
136	85120	69536
140	77584	65024
144	80768	70048
148	81088	64128
152	74528	55504
156	76496	61312
160	95968	78944
164	102496	91248
168	70496	57632
172	63936	52736
176	64368	56368
180	67552	57024
184	62960	49712
188	53568	41216
192	65984	44448
196	84032	60224
200	73904	58384
204	57728	44800
208	55920	39504
212	53328	40496
216	56544	45744
220	57472	45856
224	61856	49872
228	68144	54000
232	62672	48720
236	73664	56400
240	65008	49360
244	66640	53360
248	68688	58736
252	68416	57536
256	98416	81552
264	101264	81792
272	107616	91344
280	109440	90288
288	105136	78624
296	76992	60384
304	76704	64224
312	70912	62976
320	74992	67104
328	77456	62784
336	57152	49856
344	57184	47040
352	65136	53136
360	57584	47376
368	62352	53024
376	54448	49008
384	40064	36032
392	47664	42960
400	41072	36480
408	48336	40928
416	44112	36896
424	46784	39376
432	43040	37568
440	39728	35392
448	42992	38848
456	31392	28752
464	33248	29168
472	26400	20976
480	25520	20192
488	34176	28768
496	38512	32992
504	40560	34048
512	57984	47216
528	50288	41408
544	54656	46592
560	51456	43328
576	40656	32864
592	44864	33952
608	44144	32800
624	54960	45856
640	59328	50704
656	68368	59296
672	64736	55056
688	33968	24912
704	48080	33008
720	46848	28992
736	37840	24640
752	43952	29952
768	47744	33392
784	49920	38544
800	50640	38224
816	58464	37824
832	79584	59200
848	54848	38800
864	35024	26848
880	37984	33168
896	33248	28080
912	39232	34480
928	52960	47056
944	55952	50384
960	55264	46160
976	52720	43008
992	70832	53680
1008	67904	54336
1024	151328	123888
1056	142608	118960
1088	135536	111056
1120	108496	89888
1152	107072	80800
1184	98704	78016
1216	121856	106128
1248	241024	214080
1280	127152	109152
1312	97888	78464
1344	111600	95184
1376	137616	118144
1408	119616	101760
1440	141168	122256
1472	202880	183648
1504	197008	174576
1536	159472	142400
1568	141504	125248
1600	181360	164080
1632	167872	149984
1664	131504	117792
1696	139760	126048
1728	132832	118544
1760	145248	131680
1792	140816	123312
1824	137984	122464
1856	153120	142400
1888	130288	120256
1920	110688	101056
1952	103024	92192
1984	93648	83872
2016	100528	90944
2048	187856	170800
2112	227600	210400
2176	288368	260848
2240	227168	196480
2304	189584	168416
2368	208496	186976
2432	340656	306672
2496	407616	343424
2560	206576	166000
2624	168144	141232
2688	221008	191936
2752	180976	153120
2816	138560	115120
2880	122656	103008
2944	104304	86000
3008	89840	75520
3072	83920	72320
3136	65744	54080
3200	52816	38368
3264	87024	74528
3328	75616	69040
3392	30272	23904
3456	29968	22800
3520	30656	26192
3584	18784	14992
3648	16800	13808
3712	21040	17488
3776	18176	15472
3840	18304	14960
3904	25440	20688
3968	41296	36384
4032	71424	66048
4096	124144	113456
4224	111136	97408
4352	113264	98176
4480	68496	58512
4608	52496	42048
4736	40432	33376
4864	27872	22000
4992	28912	24064
5120	20640	17136
5248	24752	19920
5376	28608	23904
5504	27264	23376
5632	30560	25392
5760	26800	23248
5888	27344	24352
6016	23248	19472
6144	23808	20432
6272	23280	19840
6400	26192	21168
6528	25056	20560
6656	27856	23408
6784	30656	25696
6912	36624	31728
7040	39568	34720
7168	35392	31264
7296	35568	31520
7424	32336	28720
7552	32112	27984
7680	31216	26960
7808	33936	29088
7936	31392	27472
8064	31920	27744
8192	61584	54560
8448	62576	56288
8704	58144	52304
8960	54912	48192
9216	60544	53088
9472	55920	50144
9728	47104	42576
9984	48128	44064
10240	37552	33552
10496	53072	48640
10752	41568	38224
11008	44240	41216
11264	30656	28048
11520	32512	29904
11776	36544	34144
12032	32880	30512
12288	40352	37552
12544	43136	40448
12800	27376	25088
13056	32448	30128
13312	33184	31312
13568	28144	25760
13824	37808	35392
14080	46512	44256
14336	24496	22720
14592	20304	18672
14848	21648	20208
15104	24192	22480
15360	31808	30128
15616	29984	27856
15872	19808	17968
16128	17456	15264
16384	61728	57280
16896	74656	70736
17408	40832	37840
17920	39888	36576
18432	55552	51808
18944	58080	54544
19456	64432	61200
19968	62880	59552
20480	77216	73552
20992	60400	56336
21504	88256	84288
22016	74176	70368
22528	74944	71600
23040	64704	62176
23552	50144	47328
24064	62592	60064
24576	52464	50096
25088	70096	67376
25600	54080	51296
26112	56736	54144
26624	58880	56240
27136	75744	73376
27648	59776	56944
28160	70240	67904
28672	77936	75616
29184	55728	53568
29696	55536	53616
30208	65328	63264
30720	48320	46416
31232	58880	56944
31744	57728	55488
32256	45248	43008
32768	57344	53664
33792	75600	71664
34816	84768	82000
35840	60848	58656
36864	52416	49136
37888	83088	80272
38912	86608	83344
39936	107888	104768
40960	61136	59200
41984	67216	65072
43008	66512	64208
44032	85312	83056
45056	81632	78992
46080	68464	66016
47104	84816	82768
48128	82064	80224
49152	84880	82864
50176	70368	68816
51200	108928	107264
52224	31232	30080
53248	23440	22352
54272	56336	54880
55296	46960	45488
56320	40624	39808
57344	24256	23392
58368	22272	21104
59392	46480	45536
60416	42096	41184
61440	36592	35632
62464	52176	50672
63488	57104	56064
64512	34800	33856
65536	82576	80256
67584	82848	80512
69632	64736	63088
71680	62368	61136
73728	46784	45856
75776	58192	56768
77824	42752	42064
79872	20864	19712
81920	71968	70224
83968	25216	24304
86016	10736	9904
88064	38656	37712
90112	15936	15104
92160	48640	47600
94208	24400	23328
96256	53312	52272
98304	17904	17328
100352	56128	55456
102400	11008	10432
104448	16064	15584
106496	14128	13424
108544	45056	44304
110592	13488	12864
112640	9712	9152
114688	13696	13152
116736	3456	2912
118784	5920	5488
120832	6960	6560
122880	5920	5472
124928	13808	13392
126976	8688	8224
129024	6160	5680
131072	14416	13312
135168	17248	16496
139264	15360	14720
143360	13856	13024
147456	58320	57232
151552	3760	3344
155648	13872	13072
159744	2752	2272
163840	4384	3568
167936	10704	10096
172032	10800	10464
176128	4368	3952
180224	2720	2320
184320	1840	1568
188416	4832	4304
192512	9840	9472
196608	2512	2320
200704	7280	6864
204800	1616	1264
208896	4640	4032
212992	14944	13552
217088	39296	34480
221184	44128	38464
225280	52672	45920
229376	51296	44976
233472	48912	42976
237568	36672	32224
241664	13264	10640
245760	12480	9872
249856	11536	8112
253952	12272	8560
258048	14000	9824
262144	78464	69776
270336	173728	167840
278528	449488	445152
286720	448288	445008
294912	534928	531744
303104	877136	874624
311296	870352	868368
319488	794288	791328
327680	733952	731600
335872	1144176	1142032
344064	1019760	1017504
352256	909328	907488
360448	1430368	1428368
368640	822736	821184
376832	1206480	1204752
385024	1415120	1413344
393216	1178096	1176544
401408	1270992	1269584
409600	1033712	1032240
417792	1313920	1312608
425984	881088	879792
434176	823744	822368
442368	877312	876112
450560	926256	925168
458752	1009792	1008672
466944	778864	778032
475136	782752	781744
483328	812272	811680
491520	435200	434528
499712	700128	699328
507904	441104	440448
516096	392224	391600
524288	682272	681024
540672	870176	868400
557056	1420656	1419088
573440	814560	813056
589824	592736	591264
606208	412592	411424
622592	559728	558576
638976	254720	253600
655360	285648	284880
671744	248320	247568
688128	137824	137312
704512	251328	250544
720896	34768	33968
737280	116432	115248
753664	137312	136752
770048	221504	220800
786432	44848	44288
802816	49456	48832
819200	24144	23520
835584	18560	17792
851968	28208	27424
868352	16016	15232
884736	13376	12736
901120	28464	27824
917504	35104	34448
933888	10704	10064
950272	3248	2656
966656	21984	21072
983040	14304	13616
999424	12672	12192
1015808	18848	18368
1032192	16048	15568
1048576	14016	12880
1081344	21792	20784
1114112	27984	27232
1146880	30448	28864
1179648	19968	19008
1212416	15984	14864
1245184	16080	15120
1277952	23744	22704
1310720	36432	34944
1343488	15776	14944
1376256	25328	24288
1409024	27600	26544
1441792	12032	10992
1474560	27552	26096
1507328	9408	8048
1540096	30784	29296
1572864	12944	11984
1605632	10624	9712
1638400	9264	8656
1671168	11984	11120
1703936	10288	9088
1736704	15344	14768
1769472	5744	4640
1802240	8992	8112
1835008	9584	8944
1867776	12704	11872
1900544	7168	5888
1933312	9616	8512
1966080	16032	14848
1998848	5024	3888
2031616	4272	3472
2064384	11632	11184
2097152	15856	14080
2162688	18912	16688
2228224	17648	15456
2293760	15024	13168
2359296	15872	13488
2424832	10336	9344
2490368	22576	20272
2555904	21344	18576
2621440	9104	7856
2686976	9648	8576
2752512	6992	4560
2818048	8928	7184
2883584	5152	3792
2949120	8304	7152
3014656	6672	5712
3080192	4624	3680
3145728	8064	6416
3211264	4080	2864
3276800	3712	2736
3342336	2688	1712
3407872	6176	5696
3473408	5296	4144
3538944	3088	1936
3604480	5104	4736
3670016	7120	6608
3735552	18976	18352
3801088	4672	4320
3866624	5472	5360
3932160	4160	4064
3997696	3120	3024
4063232	11584	11536
4128768	8576	8432
4194304	8352	8112
4325376	10096	9376
4456448	1984	1360
4587520	8320	7920
4718592	7600	7296
4849664	5232	4960
4980736	12560	12352
5111808	3312	3184
5242880	9856	9824
5373952	5664	5632
5505024	7856	7760
5636096	1184	912
5767168	3536	3504
5898240	8704	8672
6029312	7888	7696
6160384	8832	8800
6291456	1552	1280
6422528	8080	8000
6553600	1152	832
6684672	3632	2816
6815744	576	560
6946816	7232	6720
7077888	384	80
7208960	736	464
7340032	3968	3904
7471104	576	80
7602176	1584	1552
7733248	464	208
7864320	2896	2336
7995392	1248	208
8126464	4640	4592
8257536	656	320
8388608	3776	2752
8650752	1136	128
8912896	3840	3008
9175040	2320	2016
9437184	1408	1360
9699328	1888	1744
9961472	2640	1312
10223616	3008	2928
10485760	1088	816
10747904	1216	928
11010048	528	528
11272192	368	112
11534336	3104	3104
11796480	2336	2240
12058624	640	624
12320768	64	64
12582912	272	160
12845056	3712	3712
13107200	1232	1232
13369344	160	96
13631488	2608	2576
13893632	64	64
14155776	96	80
14417920	96	96
14680064	96	96
14942208	368	368
15204352	944	944
15466496	112	48
15728640	464	464
15990784	896	864
16252928	128	80
16515072	80	48
16777216	1136	1136
17301504	3568	3520
17825792	176	144
18350080	8608	8608
18874368	624	592
19398656	80	64
19922944	6144	6144
20447232	2544	2544
20971520	832	784
21495808	1280	1264
22020096	144	128
22544384	80	80
23068672	2352	2352
23592960	6256	6224
24117248	608	608
24641536	64	64
25165824	1600	1584
25690112	96	64
26214400	48	48
26738688	944	944
27262976	112	80
27787264	64	48
28311552	128	128
28835840	80	48
29360128	32	32
29884416	128	112
30408704	3792	3792
30932992	48	48
31457280	64	64
31981568	16	0
32505856	32	16
33030144	128	112
33554432	1392	1376
34603008	80	80
35651584	160	160
36700160	304	304
37748736	240	192
38797312	240	224
39845888	240	240
40894464	48	48
41943040	144	144
42991616	112	112
44040192	64	64
45088768	48	48
46137344	96	80
47185920	64	64
48234496	6464	6448
49283072	112	112
50331648	64	64
51380224	48	48
52428800	32	32
53477376	0	0
54525952	1376	1376
55574528	32	32
56623104	32	32
57671680	48	48
58720256	32	32
59768832	16	16
60817408	48	48
61865984	0	0
62914560	32	32
63963136	16	16
65011712	32	32
66060288	16	16
67108864	112	112
69206016	32	32
71303168	96	96
73400320	32	32
75497472	16	16
77594624	64	48
79691776	6336	6336
81788928	32	32
83886080	48	48
85983232	32	32
88080384	96	96
90177536	176	176
92274688	96	96
94371840	272	256
96468992	80	80
98566144	32	32
100663296	48	48
102760448	64	64
104857600	0	0
106954752	16	16
109051904	16	16
111149056	16	16
113246208	16	16
115343360	0	0
117440512	0	0
119537664	0	0
121634816	48	48
123731968	16	16
125829120	0	0
127926272	16	16
130023424	0	0
132120576	16	16
134217728	16	16
138412032	0	0
142606336	16	16
146800640	0	0
150994944	32	32
155189248	0	0
159383552	0	0
163577856	0	0
167772160	304	304
171966464	2144	2144
176160768	4800	4800
180355072	2112	2112
184549376	1520	1520
188743680	16	16
192937984	0	0
197132288	0	0
201326592	16	16
205520896	16	16
209715200	0	0
213909504	0	0
218103808	0	0
222298112	0	0
226492416	0	0
230686720	0	0
234881024	0	0
239075328	0	0
243269632	0	0
247463936	0	0
251658240	0	0
255852544	0	0
260046848	0	0
264241152	0	0
268435456	0	0
276824064	0	0
285212672	0	0
293601280	0	0
301989888	0	0
310378496	0	0
318767104	0	0
327155712	0	0
335544320	0	0
343932928	0	0
352321536	0	0
360710144	0	0
369098752	0	0
377487360	0	0
385875968	0	0
394264576	0	0
402653184	0	0
411041792	0	0
419430400	0	0
427819008	0	0
436207616	0	0
444596224	0	0
452984832	0	0
461373440	0	0
469762048	0	0
478150656	0	0
486539264	0	0
494927872	0	0
503316480	0	0
511705088	0	0
520093696	0	0
528482304	0	0
536870912	0	0
553648128	0	0
570425344	0	0
587202560	0	0
603979776	0	0
620756992	0	0
637534208	0	0
654311424	0	0
671088640	0	0
687865856	0	0
704643072	0	0
721420288	0	0
738197504	0	0
754974720	0	0
771751936	0	0
788529152	0	0
805306368	0	0
822083584	0	0
838860800	0	0
855638016	0	0
872415232	0	0
889192448	0	0
905969664	0	0
922746880	0	0
939524096	0	0
956301312	0	0
973078528	0	0
989855744	0	0
1006632960	0	0
1023410176	0	0
1040187392	0	0
1056964608	0	0
1073741824	0	0
1107296256	0	0
1140850688	0	0
1174405120	0	0
1207959552	0	0
1241513984	0	0
1275068416	0	0
1308622848	0	0
1342177280	0	0
1375731712	0	0
1409286144	0	0
1442840576	0	0
1476395008	0	0
1509949440	0	0
1543503872	0	0
1577058304	0	0
1610612736	0	0
1644167168	0	0
1677721600	0	0
1711276032	0	0
1744830464	0	0
1778384896	0	0
1811939328	0	0
1845493760	0	0
1879048192	0	0
1912602624	0	0
1946157056	0	0
1979711488	0	0
2013265920	0	0
2046820352	0	0
2080374784	0	0
2113929216	0	0
2147483648	0	0
2214592512	0	0
2281701376	0	0
2348810240	0	0
2415919104	0	0
2483027968	0	0
2550136832	0	0
2617245696	0	0
2684354560	0	0
2751463424	0	0
2818572288	0	0
2885681152	0	0
2952790016	0	0
3019898880	0	0
3087007744	0	0
3154116608	0	0
3221225472	0	0
3288334336	0	0
3355443200	0	0
3422552064	0	0
3489660928	0	0
3556769792	0	0
3623878656	0	0
3690987520	0	0
3758096384	0	0
3825205248	0	0
3892314112	0	0
3959422976	0	0
4026531840	0	0
4093640704	0	0
4160749568	0	0
4227858432	0	0
~~~~~~~~~~Reuse Distance Profiler output end~~~~~~~~~~

Sampler size:14386

DRAM Statistics
 CHANNEL 0
 RQ ROW_BUFFER_HIT:      37482  ROW_BUFFER_MISS:     196540
 DBUS AVG_CONGESTED_CYCLE:    3.84364
 WQ ROW_BUFFER_HIT:       9451  ROW_BUFFER_MISS:      72725  FULL:          0


CPU 0 Branch Prediction Accuracy: 90.4714% MPKI: 24.7036 Average ROB Occupancy at Mispredict: 19.2364
Branch type MPKI
BRANCH_DIRECT_JUMP: 6e-06
BRANCH_INDIRECT: 0.0184547
BRANCH_CONDITIONAL: 24.2403
BRANCH_DIRECT_CALL: 8.66667e-06
BRANCH_INDIRECT_CALL: 0.08242
BRANCH_RETURN: 0.362381

