
*** ChampSim Multicore Out-of-Order Simulator ***

Warmup Instructions: 50000000
Simulation Instructions: 1500000000
Number of CPUs: 1
Off-chip DRAM Size: 4 GiB Channels: 1 Width: 64-bit Data Rate: 3200 MT/s

VirtualMemory physical capacity: 8588881920 num_ppages: 2096895
VirtualMemory page size: 4096 log2_page_size: 12

CPU 0 runs /s/traces/champsim_traces/625.x264_s-33B.champsimtrace.xz
CPU 0 Bimodal branch predictor
Basic BTB sets: 1024 ways: 8 indirect buffer size: 4096 RAS size: 64
Initializing LRU.
Initializing LRU.
Initializing LRU.
Initializing LRU.
Initializing rdLRU.
Initializing LRU.
Heartbeat CPU 0 instructions: 2000000 cycles: 500089 heartbeat IPC: 3.99929 cumulative IPC: 3.99929 (Simulation time: 0 hr 1 min 3 sec) 
Heartbeat CPU 0 instructions: 4000000 cycles: 1000089 heartbeat IPC: 4 cumulative IPC: 3.99964 (Simulation time: 0 hr 2 min 5 sec) 
Heartbeat CPU 0 instructions: 6000000 cycles: 1500089 heartbeat IPC: 4 cumulative IPC: 3.99976 (Simulation time: 0 hr 3 min 4 sec) 
Heartbeat CPU 0 instructions: 8000000 cycles: 2000089 heartbeat IPC: 4 cumulative IPC: 3.99982 (Simulation time: 0 hr 4 min 4 sec) 
Heartbeat CPU 0 instructions: 10000000 cycles: 2500089 heartbeat IPC: 4 cumulative IPC: 3.99986 (Simulation time: 0 hr 5 min 5 sec) 
Heartbeat CPU 0 instructions: 12000000 cycles: 3000089 heartbeat IPC: 4 cumulative IPC: 3.99988 (Simulation time: 0 hr 6 min 4 sec) 
Heartbeat CPU 0 instructions: 14000000 cycles: 3500089 heartbeat IPC: 4 cumulative IPC: 3.9999 (Simulation time: 0 hr 7 min 4 sec) 
Heartbeat CPU 0 instructions: 16000000 cycles: 4000089 heartbeat IPC: 4 cumulative IPC: 3.99991 (Simulation time: 0 hr 8 min 4 sec) 
Heartbeat CPU 0 instructions: 18000000 cycles: 4500089 heartbeat IPC: 4 cumulative IPC: 3.99992 (Simulation time: 0 hr 9 min 9 sec) 
Heartbeat CPU 0 instructions: 20000000 cycles: 5000089 heartbeat IPC: 4 cumulative IPC: 3.99993 (Simulation time: 0 hr 10 min 7 sec) 
Heartbeat CPU 0 instructions: 22000000 cycles: 5500089 heartbeat IPC: 4 cumulative IPC: 3.99994 (Simulation time: 0 hr 11 min 10 sec) 
Heartbeat CPU 0 instructions: 24000000 cycles: 6000089 heartbeat IPC: 4 cumulative IPC: 3.99994 (Simulation time: 0 hr 12 min 9 sec) 
Heartbeat CPU 0 instructions: 26000000 cycles: 6500089 heartbeat IPC: 4 cumulative IPC: 3.99995 (Simulation time: 0 hr 13 min 11 sec) 
Heartbeat CPU 0 instructions: 28000000 cycles: 7000089 heartbeat IPC: 4 cumulative IPC: 3.99995 (Simulation time: 0 hr 14 min 11 sec) 
Heartbeat CPU 0 instructions: 30000000 cycles: 7500089 heartbeat IPC: 4 cumulative IPC: 3.99995 (Simulation time: 0 hr 15 min 8 sec) 
Heartbeat CPU 0 instructions: 32000000 cycles: 8000089 heartbeat IPC: 4 cumulative IPC: 3.99996 (Simulation time: 0 hr 16 min 6 sec) 
Heartbeat CPU 0 instructions: 34000000 cycles: 8500089 heartbeat IPC: 4 cumulative IPC: 3.99996 (Simulation time: 0 hr 17 min 2 sec) 
Heartbeat CPU 0 instructions: 36000000 cycles: 9000089 heartbeat IPC: 4 cumulative IPC: 3.99996 (Simulation time: 0 hr 17 min 59 sec) 
Heartbeat CPU 0 instructions: 38000000 cycles: 9500089 heartbeat IPC: 4 cumulative IPC: 3.99996 (Simulation time: 0 hr 18 min 56 sec) 
Heartbeat CPU 0 instructions: 40000000 cycles: 10000089 heartbeat IPC: 4 cumulative IPC: 3.99996 (Simulation time: 0 hr 19 min 55 sec) 
Heartbeat CPU 0 instructions: 42000000 cycles: 10500089 heartbeat IPC: 4 cumulative IPC: 3.99997 (Simulation time: 0 hr 20 min 56 sec) 
Heartbeat CPU 0 instructions: 44000000 cycles: 11000089 heartbeat IPC: 4 cumulative IPC: 3.99997 (Simulation time: 0 hr 21 min 55 sec) 
Heartbeat CPU 0 instructions: 46000000 cycles: 11500089 heartbeat IPC: 4 cumulative IPC: 3.99997 (Simulation time: 0 hr 22 min 53 sec) 
Heartbeat CPU 0 instructions: 48000000 cycles: 12000089 heartbeat IPC: 4 cumulative IPC: 3.99997 (Simulation time: 0 hr 23 min 52 sec) 
Heartbeat CPU 0 instructions: 50000000 cycles: 12500089 heartbeat IPC: 4 cumulative IPC: 3.99997 (Simulation time: 0 hr 24 min 53 sec) 

Warmup complete CPU 0 instructions: 50000004 cycles: 12500090 (Simulation time: 0 hr 24 min 53 sec) 

Heartbeat CPU 0 instructions: 52000000 cycles: 13271797 heartbeat IPC: 2.59165 cumulative IPC: 2.59165 (Simulation time: 0 hr 25 min 52 sec) 

Region of Interest Statistics
cpu0_DTLB TOTAL     ACCESS:     221145  HIT:     221013  MISS:        132
cpu0_DTLB LOAD      ACCESS:     167001  HIT:     166899  MISS:        102
cpu0_DTLB RFO       ACCESS:      54144  HIT:      54114  MISS:         30
cpu0_DTLB PREFETCH  ACCESS:          0  HIT:          0  MISS:          0
cpu0_DTLB WRITEBACK ACCESS:          0  HIT:          0  MISS:          0
cpu0_ITLB TOTAL     ACCESS:     149617  HIT:     149617  MISS:          0
cpu0_ITLB LOAD      ACCESS:     149617  HIT:     149617  MISS:          0
cpu0_ITLB RFO       ACCESS:          0  HIT:          0  MISS:          0
cpu0_ITLB PREFETCH  ACCESS:          0  HIT:          0  MISS:          0
cpu0_ITLB WRITEBACK ACCESS:          0  HIT:          0  MISS:          0
cpu0_L1I TOTAL     ACCESS:      39483  HIT:      39483  MISS:          0
cpu0_L1I LOAD      ACCESS:      39483  HIT:      39483  MISS:          0
cpu0_L1I RFO       ACCESS:          0  HIT:          0  MISS:          0
cpu0_L1I PREFETCH  ACCESS:          0  HIT:          0  MISS:          0
cpu0_L1I WRITEBACK ACCESS:          0  HIT:          0  MISS:          0
cpu0_STLB TOTAL     ACCESS:        132  HIT:        125  MISS:          7
cpu0_STLB LOAD      ACCESS:        102  HIT:         95  MISS:          7
cpu0_STLB RFO       ACCESS:         30  HIT:         30  MISS:          0
cpu0_STLB PREFETCH  ACCESS:          0  HIT:          0  MISS:          0
cpu0_STLB WRITEBACK ACCESS:          0  HIT:          0  MISS:          0
cpu0_L1D TOTAL     ACCESS:     270119  HIT:     269711  MISS:        408
cpu0_L1D LOAD      ACCESS:     121483  HIT:     121089  MISS:        394
cpu0_L1D RFO       ACCESS:     148629  HIT:     148615  MISS:         14
cpu0_L1D PREFETCH  ACCESS:          0  HIT:          0  MISS:          0
cpu0_L1D WRITEBACK ACCESS:          0  HIT:          0  MISS:          0
cpu0_L2C TOTAL     ACCESS:        423  HIT:         20  MISS:        403
cpu0_L2C LOAD      ACCESS:        394  HIT:          5  MISS:        389
cpu0_L2C RFO       ACCESS:         14  HIT:          0  MISS:         14
cpu0_L2C PREFETCH  ACCESS:          0  HIT:          0  MISS:          0
cpu0_L2C WRITEBACK ACCESS:         15  HIT:         15  MISS:          0
LLC TOTAL     ACCESS:        405  HIT:          2  MISS:        403
LLC LOAD      ACCESS:        389  HIT:          0  MISS:        389
LLC RFO       ACCESS:         14  HIT:          0  MISS:         14
LLC PREFETCH  ACCESS:          0  HIT:          0  MISS:          0
LLC WRITEBACK ACCESS:          2  HIT:          2  MISS:          0
Heartbeat CPU 0 instructions: 54000003 cycles: 14044437 heartbeat IPC: 2.58853 cumulative IPC: 2.59009 (Simulation time: 0 hr 26 min 49 sec) 

Region of Interest Statistics
cpu0_DTLB TOTAL     ACCESS:     443277  HIT:     442916  MISS:        361
cpu0_DTLB LOAD      ACCESS:     334583  HIT:     334261  MISS:        322
cpu0_DTLB RFO       ACCESS:     108694  HIT:     108655  MISS:         39
cpu0_DTLB PREFETCH  ACCESS:          0  HIT:          0  MISS:          0
cpu0_DTLB WRITEBACK ACCESS:          0  HIT:          0  MISS:          0
cpu0_ITLB TOTAL     ACCESS:     299582  HIT:     299582  MISS:          0
cpu0_ITLB LOAD      ACCESS:     299582  HIT:     299582  MISS:          0
cpu0_ITLB RFO       ACCESS:          0  HIT:          0  MISS:          0
cpu0_ITLB PREFETCH  ACCESS:          0  HIT:          0  MISS:          0
cpu0_ITLB WRITEBACK ACCESS:          0  HIT:          0  MISS:          0
cpu0_L1I TOTAL     ACCESS:      79011  HIT:      79011  MISS:          0
cpu0_L1I LOAD      ACCESS:      79011  HIT:      79011  MISS:          0
cpu0_L1I RFO       ACCESS:          0  HIT:          0  MISS:          0
cpu0_L1I PREFETCH  ACCESS:          0  HIT:          0  MISS:          0
cpu0_L1I WRITEBACK ACCESS:          0  HIT:          0  MISS:          0
cpu0_STLB TOTAL     ACCESS:        361  HIT:        347  MISS:         14
cpu0_STLB LOAD      ACCESS:        322  HIT:        309  MISS:         13
cpu0_STLB RFO       ACCESS:         39  HIT:         38  MISS:          1
cpu0_STLB PREFETCH  ACCESS:          0  HIT:          0  MISS:          0
cpu0_STLB WRITEBACK ACCESS:          0  HIT:          0  MISS:          0
cpu0_L1D TOTAL     ACCESS:     541530  HIT:     540720  MISS:        810
cpu0_L1D LOAD      ACCESS:     243361  HIT:     242580  MISS:        781
cpu0_L1D RFO       ACCESS:     298155  HIT:     298127  MISS:         28
cpu0_L1D PREFETCH  ACCESS:          0  HIT:          0  MISS:          0
cpu0_L1D WRITEBACK ACCESS:          0  HIT:          0  MISS:          0
cpu0_L2C TOTAL     ACCESS:        837  HIT:         40  MISS:        797
cpu0_L2C LOAD      ACCESS:        781  HIT:         12  MISS:        769
cpu0_L2C RFO       ACCESS:         28  HIT:          0  MISS:         28
cpu0_L2C PREFETCH  ACCESS:          0  HIT:          0  MISS:          0
cpu0_L2C WRITEBACK ACCESS:         27  HIT:         27  MISS:          0
LLC TOTAL     ACCESS:        801  HIT:          4  MISS:        797
LLC LOAD      ACCESS:        769  HIT:          0  MISS:        769
LLC RFO       ACCESS:         28  HIT:          0  MISS:         28
LLC PREFETCH  ACCESS:          0  HIT:          0  MISS:          0
LLC WRITEBACK ACCESS:          4  HIT:          4  MISS:          0
Heartbeat CPU 0 instructions: 56000001 cycles: 14818439 heartbeat IPC: 2.58397 cumulative IPC: 2.58805 (Simulation time: 0 hr 27 min 43 sec) 

Region of Interest Statistics
cpu0_DTLB TOTAL     ACCESS:     664920  HIT:     664464  MISS:        456
cpu0_DTLB LOAD      ACCESS:     501991  HIT:     501617  MISS:        374
cpu0_DTLB RFO       ACCESS:     162929  HIT:     162847  MISS:         82
cpu0_DTLB PREFETCH  ACCESS:          0  HIT:          0  MISS:          0
cpu0_DTLB WRITEBACK ACCESS:          0  HIT:          0  MISS:          0
cpu0_ITLB TOTAL     ACCESS:     449634  HIT:     449634  MISS:          0
cpu0_ITLB LOAD      ACCESS:     449634  HIT:     449634  MISS:          0
cpu0_ITLB RFO       ACCESS:          0  HIT:          0  MISS:          0
cpu0_ITLB PREFETCH  ACCESS:          0  HIT:          0  MISS:          0
cpu0_ITLB WRITEBACK ACCESS:          0  HIT:          0  MISS:          0
cpu0_L1I TOTAL     ACCESS:     118423  HIT:     118423  MISS:          0
cpu0_L1I LOAD      ACCESS:     118423  HIT:     118423  MISS:          0
cpu0_L1I RFO       ACCESS:          0  HIT:          0  MISS:          0
cpu0_L1I PREFETCH  ACCESS:          0  HIT:          0  MISS:          0
cpu0_L1I WRITEBACK ACCESS:          0  HIT:          0  MISS:          0
cpu0_STLB TOTAL     ACCESS:        456  HIT:        434  MISS:         22
cpu0_STLB LOAD      ACCESS:        374  HIT:        353  MISS:         21
cpu0_STLB RFO       ACCESS:         82  HIT:         81  MISS:          1
cpu0_STLB PREFETCH  ACCESS:          0  HIT:          0  MISS:          0
cpu0_STLB WRITEBACK ACCESS:          0  HIT:          0  MISS:          0
cpu0_L1D TOTAL     ACCESS:     811871  HIT:     810661  MISS:       1210
cpu0_L1D LOAD      ACCESS:     365045  HIT:     363878  MISS:       1167
cpu0_L1D RFO       ACCESS:     446804  HIT:     446762  MISS:         42
cpu0_L1D PREFETCH  ACCESS:          0  HIT:          0  MISS:          0
cpu0_L1D WRITEBACK ACCESS:          0  HIT:          0  MISS:          0
cpu0_L2C TOTAL     ACCESS:       1250  HIT:         58  MISS:       1192
cpu0_L2C LOAD      ACCESS:       1167  HIT:         17  MISS:       1150
cpu0_L2C RFO       ACCESS:         42  HIT:          0  MISS:         42
cpu0_L2C PREFETCH  ACCESS:          0  HIT:          0  MISS:          0
cpu0_L2C WRITEBACK ACCESS:         40  HIT:         40  MISS:          0
LLC TOTAL     ACCESS:       1215  HIT:         23  MISS:       1192
LLC LOAD      ACCESS:       1150  HIT:          0  MISS:       1150
LLC RFO       ACCESS:         42  HIT:          0  MISS:         42
LLC PREFETCH  ACCESS:          0  HIT:          0  MISS:          0
LLC WRITEBACK ACCESS:         23  HIT:         23  MISS:          0
Heartbeat CPU 0 instructions: 58000003 cycles: 15592181 heartbeat IPC: 2.58484 cumulative IPC: 2.58725 (Simulation time: 0 hr 28 min 43 sec) 

Region of Interest Statistics
cpu0_DTLB TOTAL     ACCESS:     885332  HIT:     884809  MISS:        523
cpu0_DTLB LOAD      ACCESS:     668840  HIT:     668419  MISS:        421
cpu0_DTLB RFO       ACCESS:     216492  HIT:     216390  MISS:        102
cpu0_DTLB PREFETCH  ACCESS:          0  HIT:          0  MISS:          0
cpu0_DTLB WRITEBACK ACCESS:          0  HIT:          0  MISS:          0
cpu0_ITLB TOTAL     ACCESS:     600102  HIT:     600102  MISS:          0
cpu0_ITLB LOAD      ACCESS:     600102  HIT:     600102  MISS:          0
cpu0_ITLB RFO       ACCESS:          0  HIT:          0  MISS:          0
cpu0_ITLB PREFETCH  ACCESS:          0  HIT:          0  MISS:          0
cpu0_ITLB WRITEBACK ACCESS:          0  HIT:          0  MISS:          0
cpu0_L1I TOTAL     ACCESS:     157275  HIT:     157275  MISS:          0
cpu0_L1I LOAD      ACCESS:     157275  HIT:     157275  MISS:          0
cpu0_L1I RFO       ACCESS:          0  HIT:          0  MISS:          0
cpu0_L1I PREFETCH  ACCESS:          0  HIT:          0  MISS:          0
cpu0_L1I WRITEBACK ACCESS:          0  HIT:          0  MISS:          0
cpu0_STLB TOTAL     ACCESS:        523  HIT:        494  MISS:         29
cpu0_STLB LOAD      ACCESS:        421  HIT:        393  MISS:         28
cpu0_STLB RFO       ACCESS:        102  HIT:        101  MISS:          1
cpu0_STLB PREFETCH  ACCESS:          0  HIT:          0  MISS:          0
cpu0_STLB WRITEBACK ACCESS:          0  HIT:          0  MISS:          0
cpu0_L1D TOTAL     ACCESS:    1080042  HIT:    1078447  MISS:       1595
cpu0_L1D LOAD      ACCESS:     486266  HIT:     484728  MISS:       1538
cpu0_L1D RFO       ACCESS:     593747  HIT:     593691  MISS:         56
cpu0_L1D PREFETCH  ACCESS:          0  HIT:          0  MISS:          0
cpu0_L1D WRITEBACK ACCESS:          0  HIT:          0  MISS:          0
cpu0_L2C TOTAL     ACCESS:       1651  HIT:         80  MISS:       1571
cpu0_L2C LOAD      ACCESS:       1538  HIT:         23  MISS:       1515
cpu0_L2C RFO       ACCESS:         56  HIT:          0  MISS:         56
cpu0_L2C PREFETCH  ACCESS:          0  HIT:          0  MISS:          0
cpu0_L2C WRITEBACK ACCESS:         56  HIT:         56  MISS:          0
LLC TOTAL     ACCESS:       1654  HIT:         83  MISS:       1571
LLC LOAD      ACCESS:       1515  HIT:          0  MISS:       1515
LLC RFO       ACCESS:         56  HIT:          0  MISS:         56
LLC PREFETCH  ACCESS:          0  HIT:          0  MISS:          0
LLC WRITEBACK ACCESS:         83  HIT:         83  MISS:          0
Heartbeat CPU 0 instructions: 60000001 cycles: 16365623 heartbeat IPC: 2.58584 cumulative IPC: 2.58696 (Simulation time: 0 hr 29 min 37 sec) 

Region of Interest Statistics
cpu0_DTLB TOTAL     ACCESS:    1106761  HIT:    1106235  MISS:        526
cpu0_DTLB LOAD      ACCESS:     836469  HIT:     836045  MISS:        424
cpu0_DTLB RFO       ACCESS:     270292  HIT:     270190  MISS:        102
cpu0_DTLB PREFETCH  ACCESS:          0  HIT:          0  MISS:          0
cpu0_DTLB WRITEBACK ACCESS:          0  HIT:          0  MISS:          0
cpu0_ITLB TOTAL     ACCESS:     751765  HIT:     751765  MISS:          0
cpu0_ITLB LOAD      ACCESS:     751765  HIT:     751765  MISS:          0
cpu0_ITLB RFO       ACCESS:          0  HIT:          0  MISS:          0
cpu0_ITLB PREFETCH  ACCESS:          0  HIT:          0  MISS:          0
cpu0_ITLB WRITEBACK ACCESS:          0  HIT:          0  MISS:          0
cpu0_L1I TOTAL     ACCESS:     195473  HIT:     195473  MISS:          0
cpu0_L1I LOAD      ACCESS:     195473  HIT:     195473  MISS:          0
cpu0_L1I RFO       ACCESS:          0  HIT:          0  MISS:          0
cpu0_L1I PREFETCH  ACCESS:          0  HIT:          0  MISS:          0
cpu0_L1I WRITEBACK ACCESS:          0  HIT:          0  MISS:          0
cpu0_STLB TOTAL     ACCESS:        526  HIT:        495  MISS:         31
cpu0_STLB LOAD      ACCESS:        424  HIT:        394  MISS:         30
cpu0_STLB RFO       ACCESS:        102  HIT:        101  MISS:          1
cpu0_STLB PREFETCH  ACCESS:          0  HIT:          0  MISS:          0
cpu0_STLB WRITEBACK ACCESS:          0  HIT:          0  MISS:          0
cpu0_L1D TOTAL     ACCESS:    1349098  HIT:    1347146  MISS:       1952
cpu0_L1D LOAD      ACCESS:     608234  HIT:     606352  MISS:       1882
cpu0_L1D RFO       ACCESS:     740833  HIT:     740764  MISS:         69
cpu0_L1D PREFETCH  ACCESS:          0  HIT:          0  MISS:          0
cpu0_L1D WRITEBACK ACCESS:          0  HIT:          0  MISS:          0
cpu0_L2C TOTAL     ACCESS:       2023  HIT:        108  MISS:       1915
cpu0_L2C LOAD      ACCESS:       1882  HIT:         36  MISS:       1846
cpu0_L2C RFO       ACCESS:         69  HIT:          0  MISS:         69
cpu0_L2C PREFETCH  ACCESS:          0  HIT:          0  MISS:          0
cpu0_L2C WRITEBACK ACCESS:         71  HIT:         71  MISS:          0
LLC TOTAL     ACCESS:       2024  HIT:        109  MISS:       1915
LLC LOAD      ACCESS:       1846  HIT:          0  MISS:       1846
LLC RFO       ACCESS:         69  HIT:          0  MISS:         69
LLC PREFETCH  ACCESS:          0  HIT:          0  MISS:          0
LLC WRITEBACK ACCESS:        109  HIT:        109  MISS:          0
Heartbeat CPU 0 instructions: 62000003 cycles: 17136655 heartbeat IPC: 2.59393 cumulative IPC: 2.58812 (Simulation time: 0 hr 30 min 30 sec) 

Region of Interest Statistics
cpu0_DTLB TOTAL     ACCESS:    1328039  HIT:    1327508  MISS:        531
cpu0_DTLB LOAD      ACCESS:    1003629  HIT:    1003200  MISS:        429
cpu0_DTLB RFO       ACCESS:     324410  HIT:     324308  MISS:        102
cpu0_DTLB PREFETCH  ACCESS:          0  HIT:          0  MISS:          0
cpu0_DTLB WRITEBACK ACCESS:          0  HIT:          0  MISS:          0
cpu0_ITLB TOTAL     ACCESS:     901677  HIT:     901677  MISS:          0
cpu0_ITLB LOAD      ACCESS:     901677  HIT:     901677  MISS:          0
cpu0_ITLB RFO       ACCESS:          0  HIT:          0  MISS:          0
cpu0_ITLB PREFETCH  ACCESS:          0  HIT:          0  MISS:          0
cpu0_ITLB WRITEBACK ACCESS:          0  HIT:          0  MISS:          0
cpu0_L1I TOTAL     ACCESS:     235045  HIT:     235045  MISS:          0
cpu0_L1I LOAD      ACCESS:     235045  HIT:     235045  MISS:          0
cpu0_L1I RFO       ACCESS:          0  HIT:          0  MISS:          0
cpu0_L1I PREFETCH  ACCESS:          0  HIT:          0  MISS:          0
cpu0_L1I WRITEBACK ACCESS:          0  HIT:          0  MISS:          0
cpu0_STLB TOTAL     ACCESS:        531  HIT:        495  MISS:         36
cpu0_STLB LOAD      ACCESS:        429  HIT:        394  MISS:         35
cpu0_STLB RFO       ACCESS:        102  HIT:        101  MISS:          1
cpu0_STLB PREFETCH  ACCESS:          0  HIT:          0  MISS:          0
cpu0_STLB WRITEBACK ACCESS:          0  HIT:          0  MISS:          0
cpu0_L1D TOTAL     ACCESS:    1619156  HIT:    1616833  MISS:       2323
cpu0_L1D LOAD      ACCESS:     729443  HIT:     727205  MISS:       2238
cpu0_L1D RFO       ACCESS:     889677  HIT:     889593  MISS:         84
cpu0_L1D PREFETCH  ACCESS:          0  HIT:          0  MISS:          0
cpu0_L1D WRITEBACK ACCESS:          0  HIT:          0  MISS:          0
cpu0_L2C TOTAL     ACCESS:       2409  HIT:        130  MISS:       2279
cpu0_L2C LOAD      ACCESS:       2238  HIT:         43  MISS:       2195
cpu0_L2C RFO       ACCESS:         84  HIT:          0  MISS:         84
cpu0_L2C PREFETCH  ACCESS:          0  HIT:          0  MISS:          0
cpu0_L2C WRITEBACK ACCESS:         86  HIT:         86  MISS:          0
LLC TOTAL     ACCESS:       2394  HIT:        115  MISS:       2279
LLC LOAD      ACCESS:       2195  HIT:          0  MISS:       2195
LLC RFO       ACCESS:         84  HIT:          0  MISS:         84
LLC PREFETCH  ACCESS:          0  HIT:          0  MISS:          0
LLC WRITEBACK ACCESS:        115  HIT:        115  MISS:          0
Heartbeat CPU 0 instructions: 64000000 cycles: 17906992 heartbeat IPC: 2.59626 cumulative IPC: 2.58928 (Simulation time: 0 hr 31 min 22 sec) 

Region of Interest Statistics
cpu0_DTLB TOTAL     ACCESS:    1549050  HIT:    1548511  MISS:        539
cpu0_DTLB LOAD      ACCESS:    1170476  HIT:    1170039  MISS:        437
cpu0_DTLB RFO       ACCESS:     378574  HIT:     378472  MISS:        102
cpu0_DTLB PREFETCH  ACCESS:          0  HIT:          0  MISS:          0
cpu0_DTLB WRITEBACK ACCESS:          0  HIT:          0  MISS:          0
cpu0_ITLB TOTAL     ACCESS:    1050917  HIT:    1050917  MISS:          0
cpu0_ITLB LOAD      ACCESS:    1050917  HIT:    1050917  MISS:          0
cpu0_ITLB RFO       ACCESS:          0  HIT:          0  MISS:          0
cpu0_ITLB PREFETCH  ACCESS:          0  HIT:          0  MISS:          0
cpu0_ITLB WRITEBACK ACCESS:          0  HIT:          0  MISS:          0
cpu0_L1I TOTAL     ACCESS:     275016  HIT:     275016  MISS:          0
cpu0_L1I LOAD      ACCESS:     275016  HIT:     275016  MISS:          0
cpu0_L1I RFO       ACCESS:          0  HIT:          0  MISS:          0
cpu0_L1I PREFETCH  ACCESS:          0  HIT:          0  MISS:          0
cpu0_L1I WRITEBACK ACCESS:          0  HIT:          0  MISS:          0
cpu0_STLB TOTAL     ACCESS:        539  HIT:        495  MISS:         44
cpu0_STLB LOAD      ACCESS:        437  HIT:        394  MISS:         43
cpu0_STLB RFO       ACCESS:        102  HIT:        101  MISS:          1
cpu0_STLB PREFETCH  ACCESS:          0  HIT:          0  MISS:          0
cpu0_STLB WRITEBACK ACCESS:          0  HIT:          0  MISS:          0
cpu0_L1D TOTAL     ACCESS:    1889426  HIT:    1886735  MISS:       2691
cpu0_L1D LOAD      ACCESS:     850491  HIT:     847898  MISS:       2593
cpu0_L1D RFO       ACCESS:    1038891  HIT:    1038794  MISS:         97
cpu0_L1D PREFETCH  ACCESS:          0  HIT:          0  MISS:          0
cpu0_L1D WRITEBACK ACCESS:          0  HIT:          0  MISS:          0
cpu0_L2C TOTAL     ACCESS:       2790  HIT:        150  MISS:       2640
cpu0_L2C LOAD      ACCESS:       2593  HIT:         50  MISS:       2543
cpu0_L2C RFO       ACCESS:         97  HIT:          0  MISS:         97
cpu0_L2C PREFETCH  ACCESS:          0  HIT:          0  MISS:          0
cpu0_L2C WRITEBACK ACCESS:         99  HIT:         99  MISS:          0
LLC TOTAL     ACCESS:       2759  HIT:        119  MISS:       2640
LLC LOAD      ACCESS:       2543  HIT:          0  MISS:       2543
LLC RFO       ACCESS:         97  HIT:          0  MISS:         97
LLC PREFETCH  ACCESS:          0  HIT:          0  MISS:          0
LLC WRITEBACK ACCESS:        119  HIT:        119  MISS:          0
Heartbeat CPU 0 instructions: 66000003 cycles: 18676069 heartbeat IPC: 2.60052 cumulative IPC: 2.59068 (Simulation time: 0 hr 32 min 15 sec) 

Region of Interest Statistics
cpu0_DTLB TOTAL     ACCESS:    1770397  HIT:    1769852  MISS:        545
cpu0_DTLB LOAD      ACCESS:    1337174  HIT:    1336731  MISS:        443
cpu0_DTLB RFO       ACCESS:     433223  HIT:     433121  MISS:        102
cpu0_DTLB PREFETCH  ACCESS:          0  HIT:          0  MISS:          0
cpu0_DTLB WRITEBACK ACCESS:          0  HIT:          0  MISS:          0
cpu0_ITLB TOTAL     ACCESS:    1199258  HIT:    1199258  MISS:          0
cpu0_ITLB LOAD      ACCESS:    1199258  HIT:    1199258  MISS:          0
cpu0_ITLB RFO       ACCESS:          0  HIT:          0  MISS:          0
cpu0_ITLB PREFETCH  ACCESS:          0  HIT:          0  MISS:          0
cpu0_ITLB WRITEBACK ACCESS:          0  HIT:          0  MISS:          0
cpu0_L1I TOTAL     ACCESS:     315763  HIT:     315763  MISS:          0
cpu0_L1I LOAD      ACCESS:     315763  HIT:     315763  MISS:          0
cpu0_L1I RFO       ACCESS:          0  HIT:          0  MISS:          0
cpu0_L1I PREFETCH  ACCESS:          0  HIT:          0  MISS:          0
cpu0_L1I WRITEBACK ACCESS:          0  HIT:          0  MISS:          0
cpu0_STLB TOTAL     ACCESS:        545  HIT:        495  MISS:         50
cpu0_STLB LOAD      ACCESS:        443  HIT:        394  MISS:         49
cpu0_STLB RFO       ACCESS:        102  HIT:        101  MISS:          1
cpu0_STLB PREFETCH  ACCESS:          0  HIT:          0  MISS:          0
cpu0_STLB WRITEBACK ACCESS:          0  HIT:          0  MISS:          0
cpu0_L1D TOTAL     ACCESS:    2161036  HIT:    2157970  MISS:       3066
cpu0_L1D LOAD      ACCESS:     971290  HIT:     968337  MISS:       2953
cpu0_L1D RFO       ACCESS:    1189696  HIT:    1189585  MISS:        111
cpu0_L1D PREFETCH  ACCESS:          0  HIT:          0  MISS:          0
cpu0_L1D WRITEBACK ACCESS:          0  HIT:          0  MISS:          0
cpu0_L2C TOTAL     ACCESS:       3174  HIT:        163  MISS:       3011
cpu0_L2C LOAD      ACCESS:       2953  HIT:         53  MISS:       2900
cpu0_L2C RFO       ACCESS:        111  HIT:          0  MISS:        111
cpu0_L2C PREFETCH  ACCESS:          0  HIT:          0  MISS:          0
cpu0_L2C WRITEBACK ACCESS:        108  HIT:        108  MISS:          0
LLC TOTAL     ACCESS:       3135  HIT:        124  MISS:       3011
LLC LOAD      ACCESS:       2900  HIT:          0  MISS:       2900
LLC RFO       ACCESS:        111  HIT:          0  MISS:        111
LLC PREFETCH  ACCESS:          0  HIT:          0  MISS:          0
LLC WRITEBACK ACCESS:        124  HIT:        124  MISS:          0
Heartbeat CPU 0 instructions: 68000003 cycles: 19443918 heartbeat IPC: 2.60468 cumulative IPC: 2.59223 (Simulation time: 0 hr 33 min 5 sec) 

Region of Interest Statistics
cpu0_DTLB TOTAL     ACCESS:    1990762  HIT:    1990208  MISS:        554
cpu0_DTLB LOAD      ACCESS:    1503384  HIT:    1502933  MISS:        451
cpu0_DTLB RFO       ACCESS:     487378  HIT:     487275  MISS:        103
cpu0_DTLB PREFETCH  ACCESS:          0  HIT:          0  MISS:          0
cpu0_DTLB WRITEBACK ACCESS:          0  HIT:          0  MISS:          0
cpu0_ITLB TOTAL     ACCESS:    1347443  HIT:    1347443  MISS:          0
cpu0_ITLB LOAD      ACCESS:    1347443  HIT:    1347443  MISS:          0
cpu0_ITLB RFO       ACCESS:          0  HIT:          0  MISS:          0
cpu0_ITLB PREFETCH  ACCESS:          0  HIT:          0  MISS:          0
cpu0_ITLB WRITEBACK ACCESS:          0  HIT:          0  MISS:          0
cpu0_L1I TOTAL     ACCESS:     356425  HIT:     356425  MISS:          0
cpu0_L1I LOAD      ACCESS:     356425  HIT:     356425  MISS:          0
cpu0_L1I RFO       ACCESS:          0  HIT:          0  MISS:          0
cpu0_L1I PREFETCH  ACCESS:          0  HIT:          0  MISS:          0
cpu0_L1I WRITEBACK ACCESS:          0  HIT:          0  MISS:          0
cpu0_STLB TOTAL     ACCESS:        554  HIT:        495  MISS:         59
cpu0_STLB LOAD      ACCESS:        451  HIT:        394  MISS:         57
cpu0_STLB RFO       ACCESS:        103  HIT:        101  MISS:          2
cpu0_STLB PREFETCH  ACCESS:          0  HIT:          0  MISS:          0
cpu0_STLB WRITEBACK ACCESS:          0  HIT:          0  MISS:          0
cpu0_L1D TOTAL     ACCESS:    2431171  HIT:    2427692  MISS:       3479
cpu0_L1D LOAD      ACCESS:    1091811  HIT:    1088460  MISS:       3351
cpu0_L1D RFO       ACCESS:    1339301  HIT:    1339175  MISS:        126
cpu0_L1D PREFETCH  ACCESS:          0  HIT:          0  MISS:          0
cpu0_L1D WRITEBACK ACCESS:          0  HIT:          0  MISS:          0
cpu0_L2C TOTAL     ACCESS:       3603  HIT:        188  MISS:       3415
cpu0_L2C LOAD      ACCESS:       3351  HIT:         62  MISS:       3289
cpu0_L2C RFO       ACCESS:        126  HIT:          0  MISS:        126
cpu0_L2C PREFETCH  ACCESS:          0  HIT:          0  MISS:          0
cpu0_L2C WRITEBACK ACCESS:        124  HIT:        124  MISS:          0
LLC TOTAL     ACCESS:       3550  HIT:        135  MISS:       3415
LLC LOAD      ACCESS:       3289  HIT:          0  MISS:       3289
LLC RFO       ACCESS:        126  HIT:          0  MISS:        126
LLC PREFETCH  ACCESS:          0  HIT:          0  MISS:          0
LLC WRITEBACK ACCESS:        135  HIT:        135  MISS:          0
Heartbeat CPU 0 instructions: 70000004 cycles: 20213133 heartbeat IPC: 2.60005 cumulative IPC: 2.59301 (Simulation time: 0 hr 34 min 5 sec) 

Region of Interest Statistics
cpu0_DTLB TOTAL     ACCESS:    2210839  HIT:    2210277  MISS:        562
cpu0_DTLB LOAD      ACCESS:    1669553  HIT:    1669094  MISS:        459
cpu0_DTLB RFO       ACCESS:     541286  HIT:     541183  MISS:        103
cpu0_DTLB PREFETCH  ACCESS:          0  HIT:          0  MISS:          0
cpu0_DTLB WRITEBACK ACCESS:          0  HIT:          0  MISS:          0
cpu0_ITLB TOTAL     ACCESS:    1495707  HIT:    1495707  MISS:          0
cpu0_ITLB LOAD      ACCESS:    1495707  HIT:    1495707  MISS:          0
cpu0_ITLB RFO       ACCESS:          0  HIT:          0  MISS:          0
cpu0_ITLB PREFETCH  ACCESS:          0  HIT:          0  MISS:          0
cpu0_ITLB WRITEBACK ACCESS:          0  HIT:          0  MISS:          0
cpu0_L1I TOTAL     ACCESS:     397100  HIT:     397100  MISS:          0
cpu0_L1I LOAD      ACCESS:     397100  HIT:     397100  MISS:          0
cpu0_L1I RFO       ACCESS:          0  HIT:          0  MISS:          0
cpu0_L1I PREFETCH  ACCESS:          0  HIT:          0  MISS:          0
cpu0_L1I WRITEBACK ACCESS:          0  HIT:          0  MISS:          0
cpu0_STLB TOTAL     ACCESS:        562  HIT:        496  MISS:         66
cpu0_STLB LOAD      ACCESS:        459  HIT:        395  MISS:         64
cpu0_STLB RFO       ACCESS:        103  HIT:        101  MISS:          2
cpu0_STLB PREFETCH  ACCESS:          0  HIT:          0  MISS:          0
cpu0_STLB WRITEBACK ACCESS:          0  HIT:          0  MISS:          0
cpu0_L1D TOTAL     ACCESS:    2700497  HIT:    2696616  MISS:       3881
cpu0_L1D LOAD      ACCESS:    1212122  HIT:    1208382  MISS:       3740
cpu0_L1D RFO       ACCESS:    1488309  HIT:    1488170  MISS:        139
cpu0_L1D PREFETCH  ACCESS:          0  HIT:          0  MISS:          0
cpu0_L1D WRITEBACK ACCESS:          0  HIT:          0  MISS:          0
cpu0_L2C TOTAL     ACCESS:       4019  HIT:        206  MISS:       3813
cpu0_L2C LOAD      ACCESS:       3740  HIT:         66  MISS:       3674
cpu0_L2C RFO       ACCESS:        139  HIT:          0  MISS:        139
cpu0_L2C PREFETCH  ACCESS:          0  HIT:          0  MISS:          0
cpu0_L2C WRITEBACK ACCESS:        138  HIT:        138  MISS:          0
LLC TOTAL     ACCESS:       3962  HIT:        149  MISS:       3813
LLC LOAD      ACCESS:       3674  HIT:          0  MISS:       3674
LLC RFO       ACCESS:        139  HIT:          0  MISS:        139
LLC PREFETCH  ACCESS:          0  HIT:          0  MISS:          0
LLC WRITEBACK ACCESS:        149  HIT:        149  MISS:          0
Heartbeat CPU 0 instructions: 72000000 cycles: 20983679 heartbeat IPC: 2.59556 cumulative IPC: 2.59324 (Simulation time: 0 hr 34 min 58 sec) 

Region of Interest Statistics
cpu0_DTLB TOTAL     ACCESS:    2431575  HIT:    2431006  MISS:        569
cpu0_DTLB LOAD      ACCESS:    1836250  HIT:    1835784  MISS:        466
cpu0_DTLB RFO       ACCESS:     595325  HIT:     595222  MISS:        103
cpu0_DTLB PREFETCH  ACCESS:          0  HIT:          0  MISS:          0
cpu0_DTLB WRITEBACK ACCESS:          0  HIT:          0  MISS:          0
cpu0_ITLB TOTAL     ACCESS:    1644655  HIT:    1644655  MISS:          0
cpu0_ITLB LOAD      ACCESS:    1644655  HIT:    1644655  MISS:          0
cpu0_ITLB RFO       ACCESS:          0  HIT:          0  MISS:          0
cpu0_ITLB PREFETCH  ACCESS:          0  HIT:          0  MISS:          0
cpu0_ITLB WRITEBACK ACCESS:          0  HIT:          0  MISS:          0
cpu0_L1I TOTAL     ACCESS:     437384  HIT:     437384  MISS:          0
cpu0_L1I LOAD      ACCESS:     437384  HIT:     437384  MISS:          0
cpu0_L1I RFO       ACCESS:          0  HIT:          0  MISS:          0
cpu0_L1I PREFETCH  ACCESS:          0  HIT:          0  MISS:          0
cpu0_L1I WRITEBACK ACCESS:          0  HIT:          0  MISS:          0
cpu0_STLB TOTAL     ACCESS:        569  HIT:        496  MISS:         73
cpu0_STLB LOAD      ACCESS:        466  HIT:        395  MISS:         71
cpu0_STLB RFO       ACCESS:        103  HIT:        101  MISS:          2
cpu0_STLB PREFETCH  ACCESS:          0  HIT:          0  MISS:          0
cpu0_STLB WRITEBACK ACCESS:          0  HIT:          0  MISS:          0
cpu0_L1D TOTAL     ACCESS:    2970376  HIT:    2966094  MISS:       4282
cpu0_L1D LOAD      ACCESS:    1333033  HIT:    1328906  MISS:       4127
cpu0_L1D RFO       ACCESS:    1637270  HIT:    1637117  MISS:        153
cpu0_L1D PREFETCH  ACCESS:          0  HIT:          0  MISS:          0
cpu0_L1D WRITEBACK ACCESS:          0  HIT:          0  MISS:          0
cpu0_L2C TOTAL     ACCESS:       4434  HIT:        221  MISS:       4213
cpu0_L2C LOAD      ACCESS:       4127  HIT:         67  MISS:       4060
cpu0_L2C RFO       ACCESS:        153  HIT:          0  MISS:        153
cpu0_L2C PREFETCH  ACCESS:          0  HIT:          0  MISS:          0
cpu0_L2C WRITEBACK ACCESS:        152  HIT:        152  MISS:          0
LLC TOTAL     ACCESS:       4377  HIT:        164  MISS:       4213
LLC LOAD      ACCESS:       4060  HIT:          0  MISS:       4060
LLC RFO       ACCESS:        153  HIT:          0  MISS:        153
LLC PREFETCH  ACCESS:          0  HIT:          0  MISS:          0
LLC WRITEBACK ACCESS:        164  HIT:        164  MISS:          0
Heartbeat CPU 0 instructions: 74000000 cycles: 21753076 heartbeat IPC: 2.59944 cumulative IPC: 2.59376 (Simulation time: 0 hr 35 min 50 sec) 

Region of Interest Statistics
cpu0_DTLB TOTAL     ACCESS:    2650494  HIT:    2649917  MISS:        577
cpu0_DTLB LOAD      ACCESS:    2002178  HIT:    2001704  MISS:        474
cpu0_DTLB RFO       ACCESS:     648316  HIT:     648213  MISS:        103
cpu0_DTLB PREFETCH  ACCESS:          0  HIT:          0  MISS:          0
cpu0_DTLB WRITEBACK ACCESS:          0  HIT:          0  MISS:          0
cpu0_ITLB TOTAL     ACCESS:    1794045  HIT:    1794045  MISS:          0
cpu0_ITLB LOAD      ACCESS:    1794045  HIT:    1794045  MISS:          0
cpu0_ITLB RFO       ACCESS:          0  HIT:          0  MISS:          0
cpu0_ITLB PREFETCH  ACCESS:          0  HIT:          0  MISS:          0
cpu0_ITLB WRITEBACK ACCESS:          0  HIT:          0  MISS:          0
cpu0_L1I TOTAL     ACCESS:     476978  HIT:     476978  MISS:          0
cpu0_L1I LOAD      ACCESS:     476978  HIT:     476978  MISS:          0
cpu0_L1I RFO       ACCESS:          0  HIT:          0  MISS:          0
cpu0_L1I PREFETCH  ACCESS:          0  HIT:          0  MISS:          0
cpu0_L1I WRITEBACK ACCESS:          0  HIT:          0  MISS:          0
cpu0_STLB TOTAL     ACCESS:        577  HIT:        496  MISS:         81
cpu0_STLB LOAD      ACCESS:        474  HIT:        395  MISS:         79
cpu0_STLB RFO       ACCESS:        103  HIT:        101  MISS:          2
cpu0_STLB PREFETCH  ACCESS:          0  HIT:          0  MISS:          0
cpu0_STLB WRITEBACK ACCESS:          0  HIT:          0  MISS:          0
cpu0_L1D TOTAL     ACCESS:    3236297  HIT:    3231595  MISS:       4702
cpu0_L1D LOAD      ACCESS:    1452931  HIT:    1448399  MISS:       4532
cpu0_L1D RFO       ACCESS:    1783285  HIT:    1783118  MISS:        167
cpu0_L1D PREFETCH  ACCESS:          0  HIT:          0  MISS:          0
cpu0_L1D WRITEBACK ACCESS:          0  HIT:          0  MISS:          0
cpu0_L2C TOTAL     ACCESS:       4872  HIT:        252  MISS:       4620
cpu0_L2C LOAD      ACCESS:       4532  HIT:         80  MISS:       4452
cpu0_L2C RFO       ACCESS:        167  HIT:          0  MISS:        167
cpu0_L2C PREFETCH  ACCESS:          0  HIT:          0  MISS:          0
cpu0_L2C WRITEBACK ACCESS:        170  HIT:        170  MISS:          0
LLC TOTAL     ACCESS:       4805  HIT:        186  MISS:       4619
LLC LOAD      ACCESS:       4452  HIT:          0  MISS:       4452
LLC RFO       ACCESS:        167  HIT:          0  MISS:        167
LLC PREFETCH  ACCESS:          0  HIT:          0  MISS:          0
LLC WRITEBACK ACCESS:        185  HIT:        185  MISS:          0
Heartbeat CPU 0 instructions: 76000002 cycles: 22527715 heartbeat IPC: 2.58185 cumulative IPC: 2.59284 (Simulation time: 0 hr 36 min 43 sec) 

Region of Interest Statistics
cpu0_DTLB TOTAL     ACCESS:    2872078  HIT:    2871496  MISS:        582
cpu0_DTLB LOAD      ACCESS:    2169563  HIT:    2169084  MISS:        479
cpu0_DTLB RFO       ACCESS:     702515  HIT:     702412  MISS:        103
cpu0_DTLB PREFETCH  ACCESS:          0  HIT:          0  MISS:          0
cpu0_DTLB WRITEBACK ACCESS:          0  HIT:          0  MISS:          0
cpu0_ITLB TOTAL     ACCESS:    1944223  HIT:    1944223  MISS:          0
cpu0_ITLB LOAD      ACCESS:    1944223  HIT:    1944223  MISS:          0
cpu0_ITLB RFO       ACCESS:          0  HIT:          0  MISS:          0
cpu0_ITLB PREFETCH  ACCESS:          0  HIT:          0  MISS:          0
cpu0_ITLB WRITEBACK ACCESS:          0  HIT:          0  MISS:          0
cpu0_L1I TOTAL     ACCESS:     516456  HIT:     516456  MISS:          0
cpu0_L1I LOAD      ACCESS:     516456  HIT:     516456  MISS:          0
cpu0_L1I RFO       ACCESS:          0  HIT:          0  MISS:          0
cpu0_L1I PREFETCH  ACCESS:          0  HIT:          0  MISS:          0
cpu0_L1I WRITEBACK ACCESS:          0  HIT:          0  MISS:          0
cpu0_STLB TOTAL     ACCESS:        582  HIT:        496  MISS:         86
cpu0_STLB LOAD      ACCESS:        479  HIT:        395  MISS:         84
cpu0_STLB RFO       ACCESS:        103  HIT:        101  MISS:          2
cpu0_STLB PREFETCH  ACCESS:          0  HIT:          0  MISS:          0
cpu0_STLB WRITEBACK ACCESS:          0  HIT:          0  MISS:          0
cpu0_L1D TOTAL     ACCESS:    3506543  HIT:    3501442  MISS:       5101
cpu0_L1D LOAD      ACCESS:    1574582  HIT:    1569666  MISS:       4916
cpu0_L1D RFO       ACCESS:    1931875  HIT:    1931693  MISS:        182
cpu0_L1D PREFETCH  ACCESS:          0  HIT:          0  MISS:          0
cpu0_L1D WRITEBACK ACCESS:          0  HIT:          0  MISS:          0
cpu0_L2C TOTAL     ACCESS:       5284  HIT:        270  MISS:       5014
cpu0_L2C LOAD      ACCESS:       4916  HIT:         85  MISS:       4831
cpu0_L2C RFO       ACCESS:        182  HIT:          0  MISS:        182
cpu0_L2C PREFETCH  ACCESS:          0  HIT:          0  MISS:          0
cpu0_L2C WRITEBACK ACCESS:        183  HIT:        183  MISS:          0
LLC TOTAL     ACCESS:       5218  HIT:        205  MISS:       5013
LLC LOAD      ACCESS:       4831  HIT:          0  MISS:       4831
LLC RFO       ACCESS:        182  HIT:          0  MISS:        182
LLC PREFETCH  ACCESS:          0  HIT:          0  MISS:          0
LLC WRITEBACK ACCESS:        204  HIT:        204  MISS:          0
Heartbeat CPU 0 instructions: 78000000 cycles: 23298665 heartbeat IPC: 2.5942 cumulative IPC: 2.59293 (Simulation time: 0 hr 37 min 35 sec) 

Region of Interest Statistics
cpu0_DTLB TOTAL     ACCESS:    3092879  HIT:    3092290  MISS:        589
cpu0_DTLB LOAD      ACCESS:    2336500  HIT:    2336014  MISS:        486
cpu0_DTLB RFO       ACCESS:     756379  HIT:     756276  MISS:        103
cpu0_DTLB PREFETCH  ACCESS:          0  HIT:          0  MISS:          0
cpu0_DTLB WRITEBACK ACCESS:          0  HIT:          0  MISS:          0
cpu0_ITLB TOTAL     ACCESS:    2094214  HIT:    2094214  MISS:          0
cpu0_ITLB LOAD      ACCESS:    2094214  HIT:    2094214  MISS:          0
cpu0_ITLB RFO       ACCESS:          0  HIT:          0  MISS:          0
cpu0_ITLB PREFETCH  ACCESS:          0  HIT:          0  MISS:          0
cpu0_ITLB WRITEBACK ACCESS:          0  HIT:          0  MISS:          0
cpu0_L1I TOTAL     ACCESS:     555743  HIT:     555743  MISS:          0
cpu0_L1I LOAD      ACCESS:     555743  HIT:     555743  MISS:          0
cpu0_L1I RFO       ACCESS:          0  HIT:          0  MISS:          0
cpu0_L1I PREFETCH  ACCESS:          0  HIT:          0  MISS:          0
cpu0_L1I WRITEBACK ACCESS:          0  HIT:          0  MISS:          0
cpu0_STLB TOTAL     ACCESS:        589  HIT:        496  MISS:         93
cpu0_STLB LOAD      ACCESS:        486  HIT:        395  MISS:         91
cpu0_STLB RFO       ACCESS:        103  HIT:        101  MISS:          2
cpu0_STLB PREFETCH  ACCESS:          0  HIT:          0  MISS:          0
cpu0_STLB WRITEBACK ACCESS:          0  HIT:          0  MISS:          0
cpu0_L1D TOTAL     ACCESS:    3775350  HIT:    3769855  MISS:       5495
cpu0_L1D LOAD      ACCESS:    1695568  HIT:    1690271  MISS:       5297
cpu0_L1D RFO       ACCESS:    2079689  HIT:    2079494  MISS:        195
cpu0_L1D PREFETCH  ACCESS:          0  HIT:          0  MISS:          0
cpu0_L1D WRITEBACK ACCESS:          0  HIT:          0  MISS:          0
cpu0_L2C TOTAL     ACCESS:       5690  HIT:        287  MISS:       5403
cpu0_L2C LOAD      ACCESS:       5297  HIT:         90  MISS:       5207
cpu0_L2C RFO       ACCESS:        195  HIT:          0  MISS:        195
cpu0_L2C PREFETCH  ACCESS:          0  HIT:          0  MISS:          0
cpu0_L2C WRITEBACK ACCESS:        195  HIT:        195  MISS:          0
LLC TOTAL     ACCESS:       5621  HIT:        219  MISS:       5402
LLC LOAD      ACCESS:       5207  HIT:          0  MISS:       5207
LLC RFO       ACCESS:        195  HIT:          0  MISS:        195
LLC PREFETCH  ACCESS:          0  HIT:          0  MISS:          0
LLC WRITEBACK ACCESS:        218  HIT:        218  MISS:          0
Heartbeat CPU 0 instructions: 80000003 cycles: 24066616 heartbeat IPC: 2.60434 cumulative IPC: 2.59369 (Simulation time: 0 hr 38 min 31 sec) 

Region of Interest Statistics
cpu0_DTLB TOTAL     ACCESS:    3313164  HIT:    3312565  MISS:        599
cpu0_DTLB LOAD      ACCESS:    2502998  HIT:    2502503  MISS:        495
cpu0_DTLB RFO       ACCESS:     810166  HIT:     810062  MISS:        104
cpu0_DTLB PREFETCH  ACCESS:          0  HIT:          0  MISS:          0
cpu0_DTLB WRITEBACK ACCESS:          0  HIT:          0  MISS:          0
cpu0_ITLB TOTAL     ACCESS:    2243200  HIT:    2243200  MISS:          0
cpu0_ITLB LOAD      ACCESS:    2243200  HIT:    2243200  MISS:          0
cpu0_ITLB RFO       ACCESS:          0  HIT:          0  MISS:          0
cpu0_ITLB PREFETCH  ACCESS:          0  HIT:          0  MISS:          0
cpu0_ITLB WRITEBACK ACCESS:          0  HIT:          0  MISS:          0
cpu0_L1I TOTAL     ACCESS:     595790  HIT:     595790  MISS:          0
cpu0_L1I LOAD      ACCESS:     595790  HIT:     595790  MISS:          0
cpu0_L1I RFO       ACCESS:          0  HIT:          0  MISS:          0
cpu0_L1I PREFETCH  ACCESS:          0  HIT:          0  MISS:          0
cpu0_L1I WRITEBACK ACCESS:          0  HIT:          0  MISS:          0
cpu0_STLB TOTAL     ACCESS:        599  HIT:        497  MISS:        102
cpu0_STLB LOAD      ACCESS:        495  HIT:        396  MISS:         99
cpu0_STLB RFO       ACCESS:        104  HIT:        101  MISS:          3
cpu0_STLB PREFETCH  ACCESS:          0  HIT:          0  MISS:          0
cpu0_STLB WRITEBACK ACCESS:          0  HIT:          0  MISS:          0
cpu0_L1D TOTAL     ACCESS:    4044388  HIT:    4038505  MISS:       5883
cpu0_L1D LOAD      ACCESS:    1816232  HIT:    1810562  MISS:       5670
cpu0_L1D RFO       ACCESS:    2228054  HIT:    2227845  MISS:        209
cpu0_L1D PREFETCH  ACCESS:          0  HIT:          0  MISS:          0
cpu0_L1D WRITEBACK ACCESS:          0  HIT:          0  MISS:          0
cpu0_L2C TOTAL     ACCESS:       6093  HIT:        311  MISS:       5782
cpu0_L2C LOAD      ACCESS:       5670  HIT:         98  MISS:       5572
cpu0_L2C RFO       ACCESS:        209  HIT:          0  MISS:        209
cpu0_L2C PREFETCH  ACCESS:          0  HIT:          0  MISS:          0
cpu0_L2C WRITEBACK ACCESS:        210  HIT:        210  MISS:          0
LLC TOTAL     ACCESS:       6016  HIT:        235  MISS:       5781
LLC LOAD      ACCESS:       5572  HIT:          0  MISS:       5572
LLC RFO       ACCESS:        209  HIT:          0  MISS:        209
LLC PREFETCH  ACCESS:          0  HIT:          0  MISS:          0
LLC WRITEBACK ACCESS:        234  HIT:        234  MISS:          0
Heartbeat CPU 0 instructions: 82000001 cycles: 24833379 heartbeat IPC: 2.60837 cumulative IPC: 2.5946 (Simulation time: 0 hr 39 min 20 sec) 

Region of Interest Statistics
cpu0_DTLB TOTAL     ACCESS:    3532148  HIT:    3531472  MISS:        676
cpu0_DTLB LOAD      ACCESS:    2668618  HIT:    2668071  MISS:        547
cpu0_DTLB RFO       ACCESS:     863530  HIT:     863401  MISS:        129
cpu0_DTLB PREFETCH  ACCESS:          0  HIT:          0  MISS:          0
cpu0_DTLB WRITEBACK ACCESS:          0  HIT:          0  MISS:          0
cpu0_ITLB TOTAL     ACCESS:    2391443  HIT:    2391443  MISS:          0
cpu0_ITLB LOAD      ACCESS:    2391443  HIT:    2391443  MISS:          0
cpu0_ITLB RFO       ACCESS:          0  HIT:          0  MISS:          0
cpu0_ITLB PREFETCH  ACCESS:          0  HIT:          0  MISS:          0
cpu0_ITLB WRITEBACK ACCESS:          0  HIT:          0  MISS:          0
cpu0_L1I TOTAL     ACCESS:     636264  HIT:     636264  MISS:          0
cpu0_L1I LOAD      ACCESS:     636264  HIT:     636264  MISS:          0
cpu0_L1I RFO       ACCESS:          0  HIT:          0  MISS:          0
cpu0_L1I PREFETCH  ACCESS:          0  HIT:          0  MISS:          0
cpu0_L1I WRITEBACK ACCESS:          0  HIT:          0  MISS:          0
cpu0_STLB TOTAL     ACCESS:        676  HIT:        569  MISS:        107
cpu0_STLB LOAD      ACCESS:        547  HIT:        444  MISS:        103
cpu0_STLB RFO       ACCESS:        129  HIT:        125  MISS:          4
cpu0_STLB PREFETCH  ACCESS:          0  HIT:          0  MISS:          0
cpu0_STLB WRITEBACK ACCESS:          0  HIT:          0  MISS:          0
cpu0_L1D TOTAL     ACCESS:    4312218  HIT:    4305930  MISS:       6288
cpu0_L1D LOAD      ACCESS:    1936179  HIT:    1930120  MISS:       6059
cpu0_L1D RFO       ACCESS:    2375932  HIT:    2375708  MISS:        224
cpu0_L1D PREFETCH  ACCESS:          0  HIT:          0  MISS:          0
cpu0_L1D WRITEBACK ACCESS:          0  HIT:          0  MISS:          0
cpu0_L2C TOTAL     ACCESS:       6511  HIT:        333  MISS:       6178
cpu0_L2C LOAD      ACCESS:       6059  HIT:        106  MISS:       5953
cpu0_L2C RFO       ACCESS:        224  HIT:          0  MISS:        224
cpu0_L2C PREFETCH  ACCESS:          0  HIT:          0  MISS:          0
cpu0_L2C WRITEBACK ACCESS:        223  HIT:        223  MISS:          0
LLC TOTAL     ACCESS:       6466  HIT:        289  MISS:       6177
LLC LOAD      ACCESS:       5953  HIT:          0  MISS:       5953
LLC RFO       ACCESS:        224  HIT:          0  MISS:        224
LLC PREFETCH  ACCESS:          0  HIT:          0  MISS:          0
LLC WRITEBACK ACCESS:        288  HIT:        288  MISS:          0
Heartbeat CPU 0 instructions: 84000000 cycles: 25607271 heartbeat IPC: 2.58434 cumulative IPC: 2.594 (Simulation time: 0 hr 40 min 12 sec) 

Region of Interest Statistics
cpu0_DTLB TOTAL     ACCESS:    3753878  HIT:    3753196  MISS:        682
cpu0_DTLB LOAD      ACCESS:    2835771  HIT:    2835218  MISS:        553
cpu0_DTLB RFO       ACCESS:     918107  HIT:     917978  MISS:        129
cpu0_DTLB PREFETCH  ACCESS:          0  HIT:          0  MISS:          0
cpu0_DTLB WRITEBACK ACCESS:          0  HIT:          0  MISS:          0
cpu0_ITLB TOTAL     ACCESS:    2540490  HIT:    2540490  MISS:          0
cpu0_ITLB LOAD      ACCESS:    2540490  HIT:    2540490  MISS:          0
cpu0_ITLB RFO       ACCESS:          0  HIT:          0  MISS:          0
cpu0_ITLB PREFETCH  ACCESS:          0  HIT:          0  MISS:          0
cpu0_ITLB WRITEBACK ACCESS:          0  HIT:          0  MISS:          0
cpu0_L1I TOTAL     ACCESS:     676534  HIT:     676534  MISS:          0
cpu0_L1I LOAD      ACCESS:     676534  HIT:     676534  MISS:          0
cpu0_L1I RFO       ACCESS:          0  HIT:          0  MISS:          0
cpu0_L1I PREFETCH  ACCESS:          0  HIT:          0  MISS:          0
cpu0_L1I WRITEBACK ACCESS:          0  HIT:          0  MISS:          0
cpu0_STLB TOTAL     ACCESS:        682  HIT:        569  MISS:        113
cpu0_STLB LOAD      ACCESS:        553  HIT:        444  MISS:        109
cpu0_STLB RFO       ACCESS:        129  HIT:        125  MISS:          4
cpu0_STLB PREFETCH  ACCESS:          0  HIT:          0  MISS:          0
cpu0_STLB WRITEBACK ACCESS:          0  HIT:          0  MISS:          0
cpu0_L1D TOTAL     ACCESS:    4583955  HIT:    4577254  MISS:       6701
cpu0_L1D LOAD      ACCESS:    2057735  HIT:    2051276  MISS:       6459
cpu0_L1D RFO       ACCESS:    2526107  HIT:    2525870  MISS:        237
cpu0_L1D PREFETCH  ACCESS:          0  HIT:          0  MISS:          0
cpu0_L1D WRITEBACK ACCESS:          0  HIT:          0  MISS:          0
cpu0_L2C TOTAL     ACCESS:       6936  HIT:        349  MISS:       6587
cpu0_L2C LOAD      ACCESS:       6459  HIT:        110  MISS:       6349
cpu0_L2C RFO       ACCESS:        237  HIT:          0  MISS:        237
cpu0_L2C PREFETCH  ACCESS:          0  HIT:          0  MISS:          0
cpu0_L2C WRITEBACK ACCESS:        235  HIT:        235  MISS:          0
LLC TOTAL     ACCESS:       6895  HIT:        309  MISS:       6586
LLC LOAD      ACCESS:       6349  HIT:          0  MISS:       6349
LLC RFO       ACCESS:        237  HIT:          0  MISS:        237
LLC PREFETCH  ACCESS:          0  HIT:          0  MISS:          0
LLC WRITEBACK ACCESS:        308  HIT:        308  MISS:          0
Heartbeat CPU 0 instructions: 86000002 cycles: 26376738 heartbeat IPC: 2.5992 cumulative IPC: 2.59429 (Simulation time: 0 hr 41 min 7 sec) 

Region of Interest Statistics
cpu0_DTLB TOTAL     ACCESS:    3976148  HIT:    3975461  MISS:        687
cpu0_DTLB LOAD      ACCESS:    3003285  HIT:    3002727  MISS:        558
cpu0_DTLB RFO       ACCESS:     972863  HIT:     972734  MISS:        129
cpu0_DTLB PREFETCH  ACCESS:          0  HIT:          0  MISS:          0
cpu0_DTLB WRITEBACK ACCESS:          0  HIT:          0  MISS:          0
cpu0_ITLB TOTAL     ACCESS:    2689821  HIT:    2689821  MISS:          0
cpu0_ITLB LOAD      ACCESS:    2689821  HIT:    2689821  MISS:          0
cpu0_ITLB RFO       ACCESS:          0  HIT:          0  MISS:          0
cpu0_ITLB PREFETCH  ACCESS:          0  HIT:          0  MISS:          0
cpu0_ITLB WRITEBACK ACCESS:          0  HIT:          0  MISS:          0
cpu0_L1I TOTAL     ACCESS:     716486  HIT:     716486  MISS:          0
cpu0_L1I LOAD      ACCESS:     716486  HIT:     716486  MISS:          0
cpu0_L1I RFO       ACCESS:          0  HIT:          0  MISS:          0
cpu0_L1I PREFETCH  ACCESS:          0  HIT:          0  MISS:          0
cpu0_L1I WRITEBACK ACCESS:          0  HIT:          0  MISS:          0
cpu0_STLB TOTAL     ACCESS:        687  HIT:        569  MISS:        118
cpu0_STLB LOAD      ACCESS:        558  HIT:        444  MISS:        114
cpu0_STLB RFO       ACCESS:        129  HIT:        125  MISS:          4
cpu0_STLB PREFETCH  ACCESS:          0  HIT:          0  MISS:          0
cpu0_STLB WRITEBACK ACCESS:          0  HIT:          0  MISS:          0
cpu0_L1D TOTAL     ACCESS:    4855786  HIT:    4848713  MISS:       7073
cpu0_L1D LOAD      ACCESS:    2179281  HIT:    2172464  MISS:       6817
cpu0_L1D RFO       ACCESS:    2676388  HIT:    2676137  MISS:        251
cpu0_L1D PREFETCH  ACCESS:          0  HIT:          0  MISS:          0
cpu0_L1D WRITEBACK ACCESS:          0  HIT:          0  MISS:          0
cpu0_L2C TOTAL     ACCESS:       7322  HIT:        370  MISS:       6952
cpu0_L2C LOAD      ACCESS:       6817  HIT:        117  MISS:       6700
cpu0_L2C RFO       ACCESS:        251  HIT:          0  MISS:        251
cpu0_L2C PREFETCH  ACCESS:          0  HIT:          0  MISS:          0
cpu0_L2C WRITEBACK ACCESS:        249  HIT:        249  MISS:          0
LLC TOTAL     ACCESS:       7287  HIT:        336  MISS:       6951
LLC LOAD      ACCESS:       6700  HIT:          0  MISS:       6700
LLC RFO       ACCESS:        251  HIT:          0  MISS:        251
LLC PREFETCH  ACCESS:          0  HIT:          0  MISS:          0
LLC WRITEBACK ACCESS:        335  HIT:        335  MISS:          0
Heartbeat CPU 0 instructions: 88000001 cycles: 27149790 heartbeat IPC: 2.58715 cumulative IPC: 2.59391 (Simulation time: 0 hr 42 min 7 sec) 

Region of Interest Statistics
cpu0_DTLB TOTAL     ACCESS:    4198850  HIT:    4198157  MISS:        693
cpu0_DTLB LOAD      ACCESS:    3171016  HIT:    3170452  MISS:        564
cpu0_DTLB RFO       ACCESS:    1027834  HIT:    1027705  MISS:        129
cpu0_DTLB PREFETCH  ACCESS:          0  HIT:          0  MISS:          0
cpu0_DTLB WRITEBACK ACCESS:          0  HIT:          0  MISS:          0
cpu0_ITLB TOTAL     ACCESS:    2839254  HIT:    2839254  MISS:          0
cpu0_ITLB LOAD      ACCESS:    2839254  HIT:    2839254  MISS:          0
cpu0_ITLB RFO       ACCESS:          0  HIT:          0  MISS:          0
cpu0_ITLB PREFETCH  ACCESS:          0  HIT:          0  MISS:          0
cpu0_ITLB WRITEBACK ACCESS:          0  HIT:          0  MISS:          0
cpu0_L1I TOTAL     ACCESS:     756462  HIT:     756462  MISS:          0
cpu0_L1I LOAD      ACCESS:     756462  HIT:     756462  MISS:          0
cpu0_L1I RFO       ACCESS:          0  HIT:          0  MISS:          0
cpu0_L1I PREFETCH  ACCESS:          0  HIT:          0  MISS:          0
cpu0_L1I WRITEBACK ACCESS:          0  HIT:          0  MISS:          0
cpu0_STLB TOTAL     ACCESS:        693  HIT:        570  MISS:        123
cpu0_STLB LOAD      ACCESS:        564  HIT:        445  MISS:        119
cpu0_STLB RFO       ACCESS:        129  HIT:        125  MISS:          4
cpu0_STLB PREFETCH  ACCESS:          0  HIT:          0  MISS:          0
cpu0_STLB WRITEBACK ACCESS:          0  HIT:          0  MISS:          0
cpu0_L1D TOTAL     ACCESS:    5128600  HIT:    5121134  MISS:       7466
cpu0_L1D LOAD      ACCESS:    2301189  HIT:    2293994  MISS:       7195
cpu0_L1D RFO       ACCESS:    2827289  HIT:    2827023  MISS:        266
cpu0_L1D PREFETCH  ACCESS:          0  HIT:          0  MISS:          0
cpu0_L1D WRITEBACK ACCESS:          0  HIT:          0  MISS:          0
cpu0_L2C TOTAL     ACCESS:       7732  HIT:        388  MISS:       7344
cpu0_L2C LOAD      ACCESS:       7195  HIT:        118  MISS:       7077
cpu0_L2C RFO       ACCESS:        266  HIT:          0  MISS:        266
cpu0_L2C PREFETCH  ACCESS:          0  HIT:          0  MISS:          0
cpu0_L2C WRITEBACK ACCESS:        266  HIT:        266  MISS:          0
LLC TOTAL     ACCESS:       7684  HIT:        341  MISS:       7343
LLC LOAD      ACCESS:       7077  HIT:          0  MISS:       7077
LLC RFO       ACCESS:        266  HIT:          0  MISS:        266
LLC PREFETCH  ACCESS:          0  HIT:          0  MISS:          0
LLC WRITEBACK ACCESS:        340  HIT:        340  MISS:          0
Heartbeat CPU 0 instructions: 90000004 cycles: 27921977 heartbeat IPC: 2.59005 cumulative IPC: 2.59372 (Simulation time: 0 hr 42 min 59 sec) 

Region of Interest Statistics
cpu0_DTLB TOTAL     ACCESS:    4421111  HIT:    4420411  MISS:        700
cpu0_DTLB LOAD      ACCESS:    3338512  HIT:    3337941  MISS:        571
cpu0_DTLB RFO       ACCESS:    1082599  HIT:    1082470  MISS:        129
cpu0_DTLB PREFETCH  ACCESS:          0  HIT:          0  MISS:          0
cpu0_DTLB WRITEBACK ACCESS:          0  HIT:          0  MISS:          0
cpu0_ITLB TOTAL     ACCESS:    2988462  HIT:    2988462  MISS:          0
cpu0_ITLB LOAD      ACCESS:    2988462  HIT:    2988462  MISS:          0
cpu0_ITLB RFO       ACCESS:          0  HIT:          0  MISS:          0
cpu0_ITLB PREFETCH  ACCESS:          0  HIT:          0  MISS:          0
cpu0_ITLB WRITEBACK ACCESS:          0  HIT:          0  MISS:          0
cpu0_L1I TOTAL     ACCESS:     796506  HIT:     796506  MISS:          0
cpu0_L1I LOAD      ACCESS:     796506  HIT:     796506  MISS:          0
cpu0_L1I RFO       ACCESS:          0  HIT:          0  MISS:          0
cpu0_L1I PREFETCH  ACCESS:          0  HIT:          0  MISS:          0
cpu0_L1I WRITEBACK ACCESS:          0  HIT:          0  MISS:          0
cpu0_STLB TOTAL     ACCESS:        700  HIT:        570  MISS:        130
cpu0_STLB LOAD      ACCESS:        571  HIT:        445  MISS:        126
cpu0_STLB RFO       ACCESS:        129  HIT:        125  MISS:          4
cpu0_STLB PREFETCH  ACCESS:          0  HIT:          0  MISS:          0
cpu0_STLB WRITEBACK ACCESS:          0  HIT:          0  MISS:          0
cpu0_L1D TOTAL     ACCESS:    5400443  HIT:    5392565  MISS:       7878
cpu0_L1D LOAD      ACCESS:    2422685  HIT:    2415090  MISS:       7595
cpu0_L1D RFO       ACCESS:    2977629  HIT:    2977351  MISS:        278
cpu0_L1D PREFETCH  ACCESS:          0  HIT:          0  MISS:          0
cpu0_L1D WRITEBACK ACCESS:          0  HIT:          0  MISS:          0
cpu0_L2C TOTAL     ACCESS:       8158  HIT:        404  MISS:       7754
cpu0_L2C LOAD      ACCESS:       7595  HIT:        120  MISS:       7475
cpu0_L2C RFO       ACCESS:        278  HIT:          0  MISS:        278
cpu0_L2C PREFETCH  ACCESS:          0  HIT:          0  MISS:          0
cpu0_L2C WRITEBACK ACCESS:        280  HIT:        280  MISS:          0
LLC TOTAL     ACCESS:       8111  HIT:        358  MISS:       7753
LLC LOAD      ACCESS:       7475  HIT:          0  MISS:       7475
LLC RFO       ACCESS:        278  HIT:          0  MISS:        278
LLC PREFETCH  ACCESS:          0  HIT:          0  MISS:          0
LLC WRITEBACK ACCESS:        357  HIT:        357  MISS:          0
Heartbeat CPU 0 instructions: 92000003 cycles: 28690501 heartbeat IPC: 2.60239 cumulative IPC: 2.59413 (Simulation time: 0 hr 43 min 53 sec) 

Region of Interest Statistics
cpu0_DTLB TOTAL     ACCESS:    4642749  HIT:    4642009  MISS:        740
cpu0_DTLB LOAD      ACCESS:    3505444  HIT:    3504849  MISS:        595
cpu0_DTLB RFO       ACCESS:    1137305  HIT:    1137160  MISS:        145
cpu0_DTLB PREFETCH  ACCESS:          0  HIT:          0  MISS:          0
cpu0_DTLB WRITEBACK ACCESS:          0  HIT:          0  MISS:          0
cpu0_ITLB TOTAL     ACCESS:    3136935  HIT:    3136935  MISS:          0
cpu0_ITLB LOAD      ACCESS:    3136935  HIT:    3136935  MISS:          0
cpu0_ITLB RFO       ACCESS:          0  HIT:          0  MISS:          0
cpu0_ITLB PREFETCH  ACCESS:          0  HIT:          0  MISS:          0
cpu0_ITLB WRITEBACK ACCESS:          0  HIT:          0  MISS:          0
cpu0_L1I TOTAL     ACCESS:     837162  HIT:     837162  MISS:          0
cpu0_L1I LOAD      ACCESS:     837162  HIT:     837162  MISS:          0
cpu0_L1I RFO       ACCESS:          0  HIT:          0  MISS:          0
cpu0_L1I PREFETCH  ACCESS:          0  HIT:          0  MISS:          0
cpu0_L1I WRITEBACK ACCESS:          0  HIT:          0  MISS:          0
cpu0_STLB TOTAL     ACCESS:        740  HIT:        602  MISS:        138
cpu0_STLB LOAD      ACCESS:        595  HIT:        461  MISS:        134
cpu0_STLB RFO       ACCESS:        145  HIT:        141  MISS:          4
cpu0_STLB PREFETCH  ACCESS:          0  HIT:          0  MISS:          0
cpu0_STLB WRITEBACK ACCESS:          0  HIT:          0  MISS:          0
cpu0_L1D TOTAL     ACCESS:    5672414  HIT:    5664152  MISS:       8262
cpu0_L1D LOAD      ACCESS:    2543697  HIT:    2535733  MISS:       7964
cpu0_L1D RFO       ACCESS:    3128581  HIT:    3128288  MISS:        293
cpu0_L1D PREFETCH  ACCESS:          0  HIT:          0  MISS:          0
cpu0_L1D WRITEBACK ACCESS:          0  HIT:          0  MISS:          0
cpu0_L2C TOTAL     ACCESS:       8554  HIT:        416  MISS:       8138
cpu0_L2C LOAD      ACCESS:       7964  HIT:        120  MISS:       7844
cpu0_L2C RFO       ACCESS:        293  HIT:          0  MISS:        293
cpu0_L2C PREFETCH  ACCESS:          0  HIT:          0  MISS:          0
cpu0_L2C WRITEBACK ACCESS:        292  HIT:        292  MISS:          0
LLC TOTAL     ACCESS:       8499  HIT:        362  MISS:       8137
LLC LOAD      ACCESS:       7844  HIT:          0  MISS:       7844
LLC RFO       ACCESS:        293  HIT:          0  MISS:        293
LLC PREFETCH  ACCESS:          0  HIT:          0  MISS:          0
LLC WRITEBACK ACCESS:        361  HIT:        361  MISS:          0
Heartbeat CPU 0 instructions: 94000000 cycles: 29454499 heartbeat IPC: 2.6178 cumulative IPC: 2.59519 (Simulation time: 0 hr 44 min 44 sec) 

Region of Interest Statistics
cpu0_DTLB TOTAL     ACCESS:    4862898  HIT:    4862153  MISS:        745
cpu0_DTLB LOAD      ACCESS:    3671438  HIT:    3670838  MISS:        600
cpu0_DTLB RFO       ACCESS:    1191460  HIT:    1191315  MISS:        145
cpu0_DTLB PREFETCH  ACCESS:          0  HIT:          0  MISS:          0
cpu0_DTLB WRITEBACK ACCESS:          0  HIT:          0  MISS:          0
cpu0_ITLB TOTAL     ACCESS:    3284543  HIT:    3284543  MISS:          0
cpu0_ITLB LOAD      ACCESS:    3284543  HIT:    3284543  MISS:          0
cpu0_ITLB RFO       ACCESS:          0  HIT:          0  MISS:          0
cpu0_ITLB PREFETCH  ACCESS:          0  HIT:          0  MISS:          0
cpu0_ITLB WRITEBACK ACCESS:          0  HIT:          0  MISS:          0
cpu0_L1I TOTAL     ACCESS:     878228  HIT:     878228  MISS:          0
cpu0_L1I LOAD      ACCESS:     878228  HIT:     878228  MISS:          0
cpu0_L1I RFO       ACCESS:          0  HIT:          0  MISS:          0
cpu0_L1I PREFETCH  ACCESS:          0  HIT:          0  MISS:          0
cpu0_L1I WRITEBACK ACCESS:          0  HIT:          0  MISS:          0
cpu0_STLB TOTAL     ACCESS:        745  HIT:        602  MISS:        143
cpu0_STLB LOAD      ACCESS:        600  HIT:        461  MISS:        139
cpu0_STLB RFO       ACCESS:        145  HIT:        141  MISS:          4
cpu0_STLB PREFETCH  ACCESS:          0  HIT:          0  MISS:          0
cpu0_STLB WRITEBACK ACCESS:          0  HIT:          0  MISS:          0
cpu0_L1D TOTAL     ACCESS:    5942579  HIT:    5933928  MISS:       8651
cpu0_L1D LOAD      ACCESS:    2663928  HIT:    2655591  MISS:       8337
cpu0_L1D RFO       ACCESS:    3278510  HIT:    3278201  MISS:        309
cpu0_L1D PREFETCH  ACCESS:          0  HIT:          0  MISS:          0
cpu0_L1D WRITEBACK ACCESS:          0  HIT:          0  MISS:          0
cpu0_L2C TOTAL     ACCESS:       8957  HIT:        430  MISS:       8527
cpu0_L2C LOAD      ACCESS:       8337  HIT:        120  MISS:       8217
cpu0_L2C RFO       ACCESS:        309  HIT:          0  MISS:        309
cpu0_L2C PREFETCH  ACCESS:          0  HIT:          0  MISS:          0
cpu0_L2C WRITEBACK ACCESS:        306  HIT:        306  MISS:          0
LLC TOTAL     ACCESS:       8890  HIT:        364  MISS:       8526
LLC LOAD      ACCESS:       8217  HIT:          0  MISS:       8217
LLC RFO       ACCESS:        309  HIT:          0  MISS:        309
LLC PREFETCH  ACCESS:          0  HIT:          0  MISS:          0
LLC WRITEBACK ACCESS:        363  HIT:        363  MISS:          0
Heartbeat CPU 0 instructions: 96000000 cycles: 30216235 heartbeat IPC: 2.62558 cumulative IPC: 2.5965 (Simulation time: 0 hr 45 min 43 sec) 

Region of Interest Statistics
cpu0_DTLB TOTAL     ACCESS:    5082541  HIT:    5081788  MISS:        753
cpu0_DTLB LOAD      ACCESS:    3837002  HIT:    3836395  MISS:        607
cpu0_DTLB RFO       ACCESS:    1245539  HIT:    1245393  MISS:        146
cpu0_DTLB PREFETCH  ACCESS:          0  HIT:          0  MISS:          0
cpu0_DTLB WRITEBACK ACCESS:          0  HIT:          0  MISS:          0
cpu0_ITLB TOTAL     ACCESS:    3431335  HIT:    3431335  MISS:          0
cpu0_ITLB LOAD      ACCESS:    3431335  HIT:    3431335  MISS:          0
cpu0_ITLB RFO       ACCESS:          0  HIT:          0  MISS:          0
cpu0_ITLB PREFETCH  ACCESS:          0  HIT:          0  MISS:          0
cpu0_ITLB WRITEBACK ACCESS:          0  HIT:          0  MISS:          0
cpu0_L1I TOTAL     ACCESS:     919795  HIT:     919795  MISS:          0
cpu0_L1I LOAD      ACCESS:     919795  HIT:     919795  MISS:          0
cpu0_L1I RFO       ACCESS:          0  HIT:          0  MISS:          0
cpu0_L1I PREFETCH  ACCESS:          0  HIT:          0  MISS:          0
cpu0_L1I WRITEBACK ACCESS:          0  HIT:          0  MISS:          0
cpu0_STLB TOTAL     ACCESS:        753  HIT:        603  MISS:        150
cpu0_STLB LOAD      ACCESS:        607  HIT:        461  MISS:        146
cpu0_STLB RFO       ACCESS:        146  HIT:        142  MISS:          4
cpu0_STLB PREFETCH  ACCESS:          0  HIT:          0  MISS:          0
cpu0_STLB WRITEBACK ACCESS:          0  HIT:          0  MISS:          0
cpu0_L1D TOTAL     ACCESS:    6212353  HIT:    6203332  MISS:       9021
cpu0_L1D LOAD      ACCESS:    2783585  HIT:    2774892  MISS:       8693
cpu0_L1D RFO       ACCESS:    3428620  HIT:    3428297  MISS:        323
cpu0_L1D PREFETCH  ACCESS:          0  HIT:          0  MISS:          0
cpu0_L1D WRITEBACK ACCESS:          0  HIT:          0  MISS:          0
cpu0_L2C TOTAL     ACCESS:       9340  HIT:        445  MISS:       8895
cpu0_L2C LOAD      ACCESS:       8693  HIT:        123  MISS:       8570
cpu0_L2C RFO       ACCESS:        323  HIT:          0  MISS:        323
cpu0_L2C PREFETCH  ACCESS:          0  HIT:          0  MISS:          0
cpu0_L2C WRITEBACK ACCESS:        319  HIT:        318  MISS:          1
LLC TOTAL     ACCESS:       9257  HIT:        364  MISS:       8893
LLC LOAD      ACCESS:       8570  HIT:          0  MISS:       8570
LLC RFO       ACCESS:        323  HIT:          0  MISS:        323
LLC PREFETCH  ACCESS:          0  HIT:          0  MISS:          0
LLC WRITEBACK ACCESS:        363  HIT:        363  MISS:          0
Heartbeat CPU 0 instructions: 98000000 cycles: 30980166 heartbeat IPC: 2.61804 cumulative IPC: 2.59739 (Simulation time: 0 hr 46 min 35 sec) 

Region of Interest Statistics
cpu0_DTLB TOTAL     ACCESS:    5302581  HIT:    5301820  MISS:        761
cpu0_DTLB LOAD      ACCESS:    4002795  HIT:    4002180  MISS:        615
cpu0_DTLB RFO       ACCESS:    1299786  HIT:    1299640  MISS:        146
cpu0_DTLB PREFETCH  ACCESS:          0  HIT:          0  MISS:          0
cpu0_DTLB WRITEBACK ACCESS:          0  HIT:          0  MISS:          0
cpu0_ITLB TOTAL     ACCESS:    3578275  HIT:    3578275  MISS:          0
cpu0_ITLB LOAD      ACCESS:    3578275  HIT:    3578275  MISS:          0
cpu0_ITLB RFO       ACCESS:          0  HIT:          0  MISS:          0
cpu0_ITLB PREFETCH  ACCESS:          0  HIT:          0  MISS:          0
cpu0_ITLB WRITEBACK ACCESS:          0  HIT:          0  MISS:          0
cpu0_L1I TOTAL     ACCESS:     961384  HIT:     961384  MISS:          0
cpu0_L1I LOAD      ACCESS:     961384  HIT:     961384  MISS:          0
cpu0_L1I RFO       ACCESS:          0  HIT:          0  MISS:          0
cpu0_L1I PREFETCH  ACCESS:          0  HIT:          0  MISS:          0
cpu0_L1I WRITEBACK ACCESS:          0  HIT:          0  MISS:          0
cpu0_STLB TOTAL     ACCESS:        761  HIT:        603  MISS:        158
cpu0_STLB LOAD      ACCESS:        615  HIT:        461  MISS:        154
cpu0_STLB RFO       ACCESS:        146  HIT:        142  MISS:          4
cpu0_STLB PREFETCH  ACCESS:          0  HIT:          0  MISS:          0
cpu0_STLB WRITEBACK ACCESS:          0  HIT:          0  MISS:          0
cpu0_L1D TOTAL     ACCESS:    6483167  HIT:    6473751  MISS:       9416
cpu0_L1D LOAD      ACCESS:    2903774  HIT:    2894701  MISS:       9073
cpu0_L1D RFO       ACCESS:    3579237  HIT:    3578899  MISS:        338
cpu0_L1D PREFETCH  ACCESS:          0  HIT:          0  MISS:          0
cpu0_L1D WRITEBACK ACCESS:          0  HIT:          0  MISS:          0
cpu0_L2C TOTAL     ACCESS:       9752  HIT:        464  MISS:       9288
cpu0_L2C LOAD      ACCESS:       9073  HIT:        125  MISS:       8948
cpu0_L2C RFO       ACCESS:        338  HIT:          0  MISS:        338
cpu0_L2C PREFETCH  ACCESS:          0  HIT:          0  MISS:          0
cpu0_L2C WRITEBACK ACCESS:        336  HIT:        335  MISS:          1
LLC TOTAL     ACCESS:       9652  HIT:        366  MISS:       9286
LLC LOAD      ACCESS:       8948  HIT:          0  MISS:       8948
LLC RFO       ACCESS:        338  HIT:          0  MISS:        338
LLC PREFETCH  ACCESS:          0  HIT:          0  MISS:          0
LLC WRITEBACK ACCESS:        365  HIT:        365  MISS:          0
Heartbeat CPU 0 instructions: 100000003 cycles: 31742782 heartbeat IPC: 2.62256 cumulative IPC: 2.59839 (Simulation time: 0 hr 47 min 25 sec) 

Region of Interest Statistics
cpu0_DTLB TOTAL     ACCESS:    5521604  HIT:    5520838  MISS:        766
cpu0_DTLB LOAD      ACCESS:    4168056  HIT:    4167436  MISS:        620
cpu0_DTLB RFO       ACCESS:    1353548  HIT:    1353402  MISS:        146
cpu0_DTLB PREFETCH  ACCESS:          0  HIT:          0  MISS:          0
cpu0_DTLB WRITEBACK ACCESS:          0  HIT:          0  MISS:          0
cpu0_ITLB TOTAL     ACCESS:    3725385  HIT:    3725385  MISS:          0
cpu0_ITLB LOAD      ACCESS:    3725385  HIT:    3725385  MISS:          0
cpu0_ITLB RFO       ACCESS:          0  HIT:          0  MISS:          0
cpu0_ITLB PREFETCH  ACCESS:          0  HIT:          0  MISS:          0
cpu0_ITLB WRITEBACK ACCESS:          0  HIT:          0  MISS:          0
cpu0_L1I TOTAL     ACCESS:    1002691  HIT:    1002691  MISS:          0
cpu0_L1I LOAD      ACCESS:    1002691  HIT:    1002691  MISS:          0
cpu0_L1I RFO       ACCESS:          0  HIT:          0  MISS:          0
cpu0_L1I PREFETCH  ACCESS:          0  HIT:          0  MISS:          0
cpu0_L1I WRITEBACK ACCESS:          0  HIT:          0  MISS:          0
cpu0_STLB TOTAL     ACCESS:        766  HIT:        603  MISS:        163
cpu0_STLB LOAD      ACCESS:        620  HIT:        461  MISS:        159
cpu0_STLB RFO       ACCESS:        146  HIT:        142  MISS:          4
cpu0_STLB PREFETCH  ACCESS:          0  HIT:          0  MISS:          0
cpu0_STLB WRITEBACK ACCESS:          0  HIT:          0  MISS:          0
cpu0_L1D TOTAL     ACCESS:    6752198  HIT:    6742399  MISS:       9799
cpu0_L1D LOAD      ACCESS:    3023524  HIT:    3014081  MISS:       9443
cpu0_L1D RFO       ACCESS:    3728513  HIT:    3728162  MISS:        351
cpu0_L1D PREFETCH  ACCESS:          0  HIT:          0  MISS:          0
cpu0_L1D WRITEBACK ACCESS:          0  HIT:          0  MISS:          0
cpu0_L2C TOTAL     ACCESS:      10152  HIT:        481  MISS:       9671
cpu0_L2C LOAD      ACCESS:       9443  HIT:        125  MISS:       9318
cpu0_L2C RFO       ACCESS:        351  HIT:          0  MISS:        351
cpu0_L2C PREFETCH  ACCESS:          0  HIT:          0  MISS:          0
cpu0_L2C WRITEBACK ACCESS:        353  HIT:        352  MISS:          1
LLC TOTAL     ACCESS:      10035  HIT:        366  MISS:       9669
LLC LOAD      ACCESS:       9318  HIT:          0  MISS:       9318
LLC RFO       ACCESS:        351  HIT:          0  MISS:        351
LLC PREFETCH  ACCESS:          0  HIT:          0  MISS:          0
LLC WRITEBACK ACCESS:        365  HIT:        365  MISS:          0
Heartbeat CPU 0 instructions: 102000001 cycles: 32505831 heartbeat IPC: 2.62106 cumulative IPC: 2.59925 (Simulation time: 0 hr 48 min 22 sec) 

Region of Interest Statistics
cpu0_DTLB TOTAL     ACCESS:    5740530  HIT:    5739755  MISS:        775
cpu0_DTLB LOAD      ACCESS:    4333208  HIT:    4332579  MISS:        629
cpu0_DTLB RFO       ACCESS:    1407322  HIT:    1407176  MISS:        146
cpu0_DTLB PREFETCH  ACCESS:          0  HIT:          0  MISS:          0
cpu0_DTLB WRITEBACK ACCESS:          0  HIT:          0  MISS:          0
cpu0_ITLB TOTAL     ACCESS:    3872439  HIT:    3872439  MISS:          0
cpu0_ITLB LOAD      ACCESS:    3872439  HIT:    3872439  MISS:          0
cpu0_ITLB RFO       ACCESS:          0  HIT:          0  MISS:          0
cpu0_ITLB PREFETCH  ACCESS:          0  HIT:          0  MISS:          0
cpu0_ITLB WRITEBACK ACCESS:          0  HIT:          0  MISS:          0
cpu0_L1I TOTAL     ACCESS:    1044145  HIT:    1044145  MISS:          0
cpu0_L1I LOAD      ACCESS:    1044145  HIT:    1044145  MISS:          0
cpu0_L1I RFO       ACCESS:          0  HIT:          0  MISS:          0
cpu0_L1I PREFETCH  ACCESS:          0  HIT:          0  MISS:          0
cpu0_L1I WRITEBACK ACCESS:          0  HIT:          0  MISS:          0
cpu0_STLB TOTAL     ACCESS:        775  HIT:        603  MISS:        172
cpu0_STLB LOAD      ACCESS:        629  HIT:        461  MISS:        168
cpu0_STLB RFO       ACCESS:        146  HIT:        142  MISS:          4
cpu0_STLB PREFETCH  ACCESS:          0  HIT:          0  MISS:          0
cpu0_STLB WRITEBACK ACCESS:          0  HIT:          0  MISS:          0
cpu0_L1D TOTAL     ACCESS:    7021432  HIT:    7011246  MISS:      10186
cpu0_L1D LOAD      ACCESS:    3143364  HIT:    3133549  MISS:       9815
cpu0_L1D RFO       ACCESS:    3877898  HIT:    3877532  MISS:        366
cpu0_L1D PREFETCH  ACCESS:          0  HIT:          0  MISS:          0
cpu0_L1D WRITEBACK ACCESS:          0  HIT:          0  MISS:          0
cpu0_L2C TOTAL     ACCESS:      10549  HIT:        491  MISS:      10058
cpu0_L2C LOAD      ACCESS:       9815  HIT:        125  MISS:       9690
cpu0_L2C RFO       ACCESS:        366  HIT:          0  MISS:        366
cpu0_L2C PREFETCH  ACCESS:          0  HIT:          0  MISS:          0
cpu0_L2C WRITEBACK ACCESS:        363  HIT:        362  MISS:          1
LLC TOTAL     ACCESS:      10428  HIT:        372  MISS:      10056
LLC LOAD      ACCESS:       9690  HIT:          0  MISS:       9690
LLC RFO       ACCESS:        366  HIT:          0  MISS:        366
LLC PREFETCH  ACCESS:          0  HIT:          0  MISS:          0
LLC WRITEBACK ACCESS:        371  HIT:        371  MISS:          0
Heartbeat CPU 0 instructions: 104000000 cycles: 33267009 heartbeat IPC: 2.62751 cumulative IPC: 2.60029 (Simulation time: 0 hr 49 min 13 sec) 

Region of Interest Statistics
cpu0_DTLB TOTAL     ACCESS:    5958824  HIT:    5958029  MISS:        795
cpu0_DTLB LOAD      ACCESS:    4497856  HIT:    4497214  MISS:        642
cpu0_DTLB RFO       ACCESS:    1460968  HIT:    1460815  MISS:        153
cpu0_DTLB PREFETCH  ACCESS:          0  HIT:          0  MISS:          0
cpu0_DTLB WRITEBACK ACCESS:          0  HIT:          0  MISS:          0
cpu0_ITLB TOTAL     ACCESS:    4018276  HIT:    4018276  MISS:          0
cpu0_ITLB LOAD      ACCESS:    4018276  HIT:    4018276  MISS:          0
cpu0_ITLB RFO       ACCESS:          0  HIT:          0  MISS:          0
cpu0_ITLB PREFETCH  ACCESS:          0  HIT:          0  MISS:          0
cpu0_ITLB WRITEBACK ACCESS:          0  HIT:          0  MISS:          0
cpu0_L1I TOTAL     ACCESS:    1086249  HIT:    1086249  MISS:          0
cpu0_L1I LOAD      ACCESS:    1086249  HIT:    1086249  MISS:          0
cpu0_L1I RFO       ACCESS:          0  HIT:          0  MISS:          0
cpu0_L1I PREFETCH  ACCESS:          0  HIT:          0  MISS:          0
cpu0_L1I WRITEBACK ACCESS:          0  HIT:          0  MISS:          0
cpu0_STLB TOTAL     ACCESS:        795  HIT:        616  MISS:        179
cpu0_STLB LOAD      ACCESS:        642  HIT:        468  MISS:        174
cpu0_STLB RFO       ACCESS:        153  HIT:        148  MISS:          5
cpu0_STLB PREFETCH  ACCESS:          0  HIT:          0  MISS:          0
cpu0_STLB WRITEBACK ACCESS:          0  HIT:          0  MISS:          0
cpu0_L1D TOTAL     ACCESS:    7290276  HIT:    7279684  MISS:      10592
cpu0_L1D LOAD      ACCESS:    3262461  HIT:    3252256  MISS:      10205
cpu0_L1D RFO       ACCESS:    4027638  HIT:    4027257  MISS:        381
cpu0_L1D PREFETCH  ACCESS:          0  HIT:          0  MISS:          0
cpu0_L1D WRITEBACK ACCESS:          0  HIT:          0  MISS:          0
cpu0_L2C TOTAL     ACCESS:      10971  HIT:        508  MISS:      10463
cpu0_L2C LOAD      ACCESS:      10205  HIT:        125  MISS:      10080
cpu0_L2C RFO       ACCESS:        381  HIT:          0  MISS:        381
cpu0_L2C PREFETCH  ACCESS:          0  HIT:          0  MISS:          0
cpu0_L2C WRITEBACK ACCESS:        379  HIT:        378  MISS:          1
LLC TOTAL     ACCESS:      10839  HIT:        379  MISS:      10460
LLC LOAD      ACCESS:      10080  HIT:          1  MISS:      10079
LLC RFO       ACCESS:        381  HIT:          0  MISS:        381
LLC PREFETCH  ACCESS:          0  HIT:          0  MISS:          0
LLC WRITEBACK ACCESS:        377  HIT:        377  MISS:          0
Heartbeat CPU 0 instructions: 106000002 cycles: 34026331 heartbeat IPC: 2.63393 cumulative IPC: 2.60148 (Simulation time: 0 hr 50 min 6 sec) 

Region of Interest Statistics
cpu0_DTLB TOTAL     ACCESS:    6177138  HIT:    6176289  MISS:        849
cpu0_DTLB LOAD      ACCESS:    4662252  HIT:    4661580  MISS:        672
cpu0_DTLB RFO       ACCESS:    1514886  HIT:    1514709  MISS:        177
cpu0_DTLB PREFETCH  ACCESS:          0  HIT:          0  MISS:          0
cpu0_DTLB WRITEBACK ACCESS:          0  HIT:          0  MISS:          0
cpu0_ITLB TOTAL     ACCESS:    4163209  HIT:    4163209  MISS:          0
cpu0_ITLB LOAD      ACCESS:    4163209  HIT:    4163209  MISS:          0
cpu0_ITLB RFO       ACCESS:          0  HIT:          0  MISS:          0
cpu0_ITLB PREFETCH  ACCESS:          0  HIT:          0  MISS:          0
cpu0_ITLB WRITEBACK ACCESS:          0  HIT:          0  MISS:          0
cpu0_L1I TOTAL     ACCESS:    1129137  HIT:    1129137  MISS:          0
cpu0_L1I LOAD      ACCESS:    1129137  HIT:    1129137  MISS:          0
cpu0_L1I RFO       ACCESS:          0  HIT:          0  MISS:          0
cpu0_L1I PREFETCH  ACCESS:          0  HIT:          0  MISS:          0
cpu0_L1I WRITEBACK ACCESS:          0  HIT:          0  MISS:          0
cpu0_STLB TOTAL     ACCESS:        849  HIT:        664  MISS:        185
cpu0_STLB LOAD      ACCESS:        672  HIT:        492  MISS:        180
cpu0_STLB RFO       ACCESS:        177  HIT:        172  MISS:          5
cpu0_STLB PREFETCH  ACCESS:          0  HIT:          0  MISS:          0
cpu0_STLB WRITEBACK ACCESS:          0  HIT:          0  MISS:          0
cpu0_L1D TOTAL     ACCESS:    7560112  HIT:    7549128  MISS:      10984
cpu0_L1D LOAD      ACCESS:    3381257  HIT:    3370675  MISS:      10582
cpu0_L1D RFO       ACCESS:    4178672  HIT:    4178276  MISS:        396
cpu0_L1D PREFETCH  ACCESS:          0  HIT:          0  MISS:          0
cpu0_L1D WRITEBACK ACCESS:          0  HIT:          0  MISS:          0
cpu0_L2C TOTAL     ACCESS:      11378  HIT:        524  MISS:      10854
cpu0_L2C LOAD      ACCESS:      10582  HIT:        126  MISS:      10456
cpu0_L2C RFO       ACCESS:        396  HIT:          0  MISS:        396
cpu0_L2C PREFETCH  ACCESS:          0  HIT:          0  MISS:          0
cpu0_L2C WRITEBACK ACCESS:        394  HIT:        393  MISS:          1
LLC TOTAL     ACCESS:      11233  HIT:        382  MISS:      10851
LLC LOAD      ACCESS:      10456  HIT:          1  MISS:      10455
[...]
LLC RFO       ACCESS:     421339  HIT:       3378  MISS:     417961
LLC PREFETCH  ACCESS:          0  HIT:          0  MISS:          0
LLC WRITEBACK ACCESS:     508393  HIT:     490800  MISS:      17593
Finished CPU 0 instructions: 1500000000 cycles: 614787760 cumulative IPC: 2.43987 (Simulation time: 12 hr 25 min 3 sec) 

ChampSim completed all CPUs

Region of Interest Statistics

CPU 0 cumulative IPC: 2.43987 instructions: 1500000000 cycles: 614787760
cpu0_DTLB TOTAL     ACCESS:  182789778  HIT:  181606689  MISS:    1183089
cpu0_DTLB LOAD      ACCESS:  132653393  HIT:  131879344  MISS:     774049
cpu0_DTLB RFO       ACCESS:   50136385  HIT:   49727345  MISS:     409040
cpu0_DTLB PREFETCH  ACCESS:          0  HIT:          0  MISS:          0
cpu0_DTLB WRITEBACK ACCESS:          0  HIT:          0  MISS:          0
cpu0_DTLB TRANSLATION ACCESS:          0  HIT:          0  MISS:          0
cpu0_DTLB PREFETCH  REQUESTED:          0  ISSUED:          0  USEFUL:          0  USELESS:          0
cpu0_DTLB AVERAGE MISS LATENCY: 11.7204 cycles
cpu0_ITLB TOTAL     ACCESS:   97341701  HIT:   97340265  MISS:       1436
cpu0_ITLB LOAD      ACCESS:   97341701  HIT:   97340265  MISS:       1436
cpu0_ITLB RFO       ACCESS:          0  HIT:          0  MISS:          0
cpu0_ITLB PREFETCH  ACCESS:          0  HIT:          0  MISS:          0
cpu0_ITLB WRITEBACK ACCESS:          0  HIT:          0  MISS:          0
cpu0_ITLB TRANSLATION ACCESS:          0  HIT:          0  MISS:          0
cpu0_ITLB PREFETCH  REQUESTED:          0  ISSUED:          0  USEFUL:          0  USELESS:          0
cpu0_ITLB AVERAGE MISS LATENCY: 28.3865 cycles
cpu0_L1I TOTAL     ACCESS:   39971027  HIT:   38669384  MISS:    1301643
cpu0_L1I LOAD      ACCESS:   39971027  HIT:   38669384  MISS:    1301643
cpu0_L1I RFO       ACCESS:          0  HIT:          0  MISS:          0
cpu0_L1I PREFETCH  ACCESS:          0  HIT:          0  MISS:          0
cpu0_L1I WRITEBACK ACCESS:          0  HIT:          0  MISS:          0
cpu0_L1I TRANSLATION ACCESS:          0  HIT:          0  MISS:          0
cpu0_L1I PREFETCH  REQUESTED:          0  ISSUED:          0  USEFUL:          0  USELESS:          0
cpu0_L1I AVERAGE MISS LATENCY: 13.1183 cycles
cpu0_STLB TOTAL     ACCESS:    1184525  HIT:    1165546  MISS:      18979
cpu0_STLB LOAD      ACCESS:     775485  HIT:     762870  MISS:      12615
cpu0_STLB RFO       ACCESS:     409040  HIT:     402676  MISS:       6364
cpu0_STLB PREFETCH  ACCESS:          0  HIT:          0  MISS:          0
cpu0_STLB WRITEBACK ACCESS:          0  HIT:          0  MISS:          0
cpu0_STLB TRANSLATION ACCESS:          0  HIT:          0  MISS:          0
cpu0_STLB PREFETCH  REQUESTED:          0  ISSUED:          0  USEFUL:          0  USELESS:          0
cpu0_STLB AVERAGE MISS LATENCY: 167.928 cycles
cpu0_L1D TOTAL     ACCESS:  219193719  HIT:  217101219  MISS:    2092500
cpu0_L1D LOAD      ACCESS:  111758631  HIT:  110240543  MISS:    1518088
cpu0_L1D RFO       ACCESS:  107417724  HIT:  106845157  MISS:     572567
cpu0_L1D PREFETCH  ACCESS:          0  HIT:          0  MISS:          0
cpu0_L1D WRITEBACK ACCESS:          0  HIT:          0  MISS:          0
cpu0_L1D TRANSLATION ACCESS:      17364  HIT:      15519  MISS:       1845
cpu0_L1D PREFETCH  REQUESTED:          0  ISSUED:          0  USEFUL:          0  USELESS:          0
cpu0_L1D AVERAGE MISS LATENCY: 223.239 cycles
cpu0_L2C TOTAL     ACCESS:    4079834  HIT:    2616322  MISS:    1463512
cpu0_L2C LOAD      ACCESS:    2819707  HIT:    1778778  MISS:    1040929
cpu0_L2C RFO       ACCESS:     568333  HIT:     146993  MISS:     421340
cpu0_L2C PREFETCH  ACCESS:          0  HIT:          0  MISS:          0
cpu0_L2C WRITEBACK ACCESS:     689949  HIT:     688895  MISS:       1054
cpu0_L2C TRANSLATION ACCESS:       1845  HIT:       1656  MISS:        189
cpu0_L2C PREFETCH  REQUESTED:          0  ISSUED:          0  USEFUL:          0  USELESS:          0
cpu0_L2C AVERAGE MISS LATENCY: 305.251 cycles
LLC TOTAL     ACCESS:    1970847  HIT:     907166  MISS:    1063681
LLC LOAD      ACCESS:    1040926  HIT:     412849  MISS:     628077
LLC RFO       ACCESS:     421339  HIT:       3378  MISS:     417961
LLC PREFETCH  ACCESS:          0  HIT:          0  MISS:          0
LLC WRITEBACK ACCESS:     508393  HIT:     490800  MISS:      17593
LLC TRANSLATION ACCESS:        189  HIT:        139  MISS:         50
LLC PREFETCH  REQUESTED:          0  ISSUED:          0  USEFUL:          0  USELESS:          0
LLC AVERAGE MISS LATENCY: 391.119 cycles
~~~~~~~~~~Reuse Distance Profiler output~~~~~~~~~~
0	71022400	10169456
1	27088448	16917232
2	11794048	6992624
3	13676832	8587200
4	9348064	4888208
5	6379632	4610784
6	5672912	4120320
7	6508624	4294176
8	3400720	2012800
9	2887696	1641328
10	1714480	1004320
11	1294768	714624
12	1277200	722448
13	1505536	946928
14	3214608	2652304
15	2095520	1318416
16	938128	616848
17	1325136	859216
18	1481952	1166304
19	1192112	822320
20	1324768	1084576
21	1121552	881360
22	1340800	1007424
23	681632	527216
24	1241616	874912
25	938592	645200
26	539024	431472
27	589888	429728
28	514864	288352
29	298480	205248
30	373744	292416
31	329888	227920
32	232992	109984
33	354272	231808
34	554704	288848
35	589552	466000
36	475600	395520
37	289632	245872
38	373536	319824
39	378656	292768
40	294944	242256
41	312352	233904
42	278800	197504
43	263328	208464
44	339600	199696
45	223920	126016
46	352496	225520
47	277040	172160
48	261296	218880
49	346704	288176
50	206528	147680
51	182912	147776
52	181776	142640
53	160112	130336
54	161104	87536
55	129728	94096
56	189072	136496
57	127488	91056
58	210528	171264
59	119216	89328
60	114656	69360
61	139456	98544
62	140752	104544
63	132208	111328
64	286592	204176
66	283968	214864
68	289280	189424
70	283968	146032
72	487008	375120
74	401616	307424
76	205392	118064
78	196304	144592
80	156112	118512
82	330608	281920
84	136816	81824
86	126608	77888
88	101360	63168
90	356784	317536
92	208544	166624
94	203376	167136
96	296304	229472
98	298640	280640
100	226480	186912
102	177056	151424
104	258880	222144
106	222480	189744
108	258064	109152
110	214976	168064
112	252896	115744
114	178032	135472
116	331984	182512
118	229520	170256
120	131888	103824
122	383344	356784
124	313808	291360
126	247040	194496
128	385344	337680
132	218400	192096
136	348064	271424
140	251664	193760
144	420992	373264
148	243328	210176
152	244592	202288
156	362352	329696
160	283488	232688
164	331328	257024
168	318352	161856
172	193088	153744
176	265760	232944
180	143584	105152
184	190704	156864
188	165856	142576
192	200416	184448
196	203888	169440
200	183408	147280
204	108976	93056
208	112544	102864
212	109824	96384
216	104496	93440
220	245328	235200
224	101888	93536
228	108352	100272
232	440464	431840
236	279616	267904
240	289488	283216
244	277472	272400
248	1190784	1186976
252	460224	456704
256	886672	878560
264	360192	349392
272	283648	270880
280	268416	225360
288	152752	134032
296	261632	251280
304	224304	219376
312	174576	154000
320	139488	121328
328	82832	67344
336	121312	109984
344	82272	72560
352	80576	72624
360	85072	75712
368	102688	78240
376	95104	89360
384	97200	92112
392	109728	96720
400	82240	61728
408	81248	69632
416	80000	68304
424	98928	74864
432	71968	59248
440	63360	51728
448	63904	48736
456	83232	64432
464	88624	69600
472	83408	66864
480	80576	73808
488	53232	43520
496	49264	42624
504	78864	62976
512	185648	132784
528	252048	198240
544	115472	84704
560	78448	59440
576	88352	73440
592	132368	111696
608	91392	72864
624	49408	43536
640	46112	39616
656	48912	38624
672	58416	43744
688	68144	50240
704	88848	75408
720	96640	78544
736	136208	117104
752	121776	106704
768	93216	79168
784	104464	89424
800	89168	80304
816	63936	39312
832	47568	35264
848	55568	35424
864	58720	43840
880	38400	26464
896	40608	21744
912	37680	27360
928	33568	23408
944	50464	43536
960	33424	25712
976	31136	23280
992	31216	22576
1008	26032	22608
1024	56768	51184
1056	78608	66144
1088	72912	54048
1120	61840	55712
1152	91616	57456
1184	55152	43072
1216	43696	36912
1248	25888	16112
1280	37264	25968
1312	72224	62352
1344	99808	89680
1376	50864	38928
1408	129776	88496
1440	194560	182656
1472	94016	56864
1504	231632	156144
1536	154480	86416
1568	63152	35728
1600	125552	84864
1632	175200	133488
1664	105456	75648
1696	117808	102880
1728	174016	134832
1760	372992	307120
1792	132368	91984
1824	116320	77744
1856	94416	55072
1888	87632	61488
1920	63600	45008
1952	73328	53664
1984	72880	52496
2016	161712	125904
2048	132208	98896
2112	127712	97296
2176	94800	68352
2240	104976	62000
2304	167056	101712
2368	185072	123712
2432	173888	122672
2496	127072	88832
2560	156272	118272
2624	115296	81504
2688	113888	67184
2752	142352	85968
2816	123840	93664
2880	132960	102416
2944	155216	89120
3008	115616	82688
3072	145504	117920
3136	308992	234992
3200	170656	95600
3264	144320	70352
3328	142656	90112
3392	144032	99136
3456	115408	83072
3520	115760	81872
3584	172016	121024
3648	376144	284640
3712	517920	387904
3776	510480	343168
3840	122240	86608
3904	90448	66032
3968	163360	123040
4032	256608	200176
4096	328976	228832
4224	70224	54192
4352	49312	40768
4480	70384	64432
4608	37600	32112
4736	36096	30384
4864	26512	21728
4992	87872	76608
5120	32864	27952
5248	29040	24512
5376	24032	20752
5504	18544	14912
5632	16976	14064
5760	18096	14384
5888	16016	12880
6016	16448	13280
6144	18544	14912
6272	17120	14016
6400	15216	12144
6528	15808	12192
6656	15088	12192
6784	13072	9936
6912	10880	7664
7040	9744	6432
7168	9600	6336
7296	10000	7024
7424	9184	5712
7552	7856	4720
7680	8752	5760
7808	8272	5216
7936	8352	5616
8064	9312	6592
8192	18576	12096
8448	18032	12240
8704	20784	14048
8960	29408	21344
9216	27600	18912
9472	29664	19744
9728	66480	55744
9984	99776	91040
10240	34720	25440
10496	25360	17920
10752	20736	14880
11008	18160	12864
11264	13520	9408
11520	12624	8624
11776	10400	7056
12032	8864	6096
12288	7376	4880
12544	7840	5152
12800	5728	3568
13056	6208	4192
13312	4496	2848
13568	5504	3456
13824	5648	3888
14080	6864	4432
14336	7632	5344
14592	7136	4816
14848	6432	4576
15104	4224	2944
15360	4032	2976
15616	2784	1968
15872	2624	1696
16128	1600	960
16384	2960	1888
16896	2784	1616
17408	3360	2384
17920	3296	2160
18432	3056	2112
18944	3072	2224
19456	2480	1776
19968	1856	1232
20480	1616	960
20992	1552	1088
21504	1936	1360
22016	1728	1168
22528	1664	1008
23040	1248	896
23552	1616	1136
24064	1040	608
24576	896	512
25088	1296	848
25600	880	624
26112	912	720
26624	624	448
27136	640	384
27648	720	320
28160	512	304
28672	928	576
29184	1072	736
29696	896	704
30208	784	608
30720	736	512
31232	576	352
31744	672	544
32256	528	336
32768	1456	1040
33792	1136	608
34816	1040	576
35840	1088	704
36864	880	528
37888	912	592
38912	784	592
39936	896	784
40960	832	512
41984	672	560
43008	560	384
44032	688	448
45056	640	352
46080	672	544
47104	608	368
48128	704	544
49152	576	400
50176	592	448
51200	592	544
52224	528	416
53248	496	416
54272	368	272
55296	240	128
56320	448	432
57344	352	224
58368	304	240
59392	768	672
60416	688	624
61440	496	400
62464	784	624
63488	608	480
64512	448	352
65536	1056	816
67584	1088	976
69632	1280	960
71680	1056	976
73728	1280	1136
75776	1024	880
77824	848	752
79872	1024	944
81920	1216	1024
83968	1456	1360
86016	1088	992
88064	688	592
90112	800	704
92160	1088	912
94208	784	624
96256	848	816
98304	928	816
100352	720	592
102400	848	752
104448	784	608
106496	656	544
108544	768	704
110592	848	784
112640	928	832
114688	944	816
116736	784	688
118784	528	400
120832	656	576
122880	608	480
124928	560	464
126976	2208	2096
129024	1744	1568
131072	2384	2144
135168	2416	2160
139264	2288	2224
143360	20512	20336
147456	29920	29792
151552	11200	10976
155648	4064	3968
159744	3168	3072
163840	4480	4128
167936	4416	4032
172032	4192	3824
176128	12096	10576
180224	23856	22112
184320	4464	3936
188416	4128	3584
192512	4672	4032
196608	4480	3952
200704	4624	3808
204800	5040	4416
208896	4336	3952
212992	11008	10512
217088	13504	13040
221184	11392	11072
225280	10912	10752
229376	10768	10480
233472	10784	10656
237568	3408	3200
241664	1936	1472
245760	1968	1776
249856	2032	1840
253952	2576	2336
258048	3040	2880
262144	5920	5376
270336	6416	5904
278528	10400	9968
286720	7376	6128
294912	3936	3504
303104	3184	2832
311296	2944	2512
319488	2976	2560
327680	3024	2720
335872	3856	3280
344064	3280	2800
352256	2848	2432
360448	2736	2240
368640	3200	2720
376832	3376	2768
385024	2640	2288
393216	3296	2560
401408	2832	2560
409600	2640	2352
417792	3024	2608
425984	2560	2112
434176	1936	1616
442368	2656	2256
450560	2752	2192
458752	2128	1808
466944	2352	1984
475136	2560	2192
483328	2608	2304
491520	2560	2208
499712	2880	2496
507904	2640	2432
516096	2256	2032
524288	4464	4128
540672	4656	4384
557056	4608	4208
573440	4096	3888
589824	3344	3216
606208	3296	3136
622592	2976	2880
638976	2688	2592
655360	3488	3408
671744	3120	3088
688128	2896	2832
704512	1888	1840
720896	2000	1904
737280	2016	1952
753664	2080	1936
770048	1808	1744
786432	1648	1584
802816	1856	1792
819200	1552	1440
835584	1872	1728
851968	1680	1552
868352	1744	1552
884736	1520	1488
901120	2096	2000
917504	1552	1472
933888	1648	1600
950272	1344	1280
966656	1920	1840
983040	1360	1280
999424	1888	1664
1015808	1456	1408
1032192	1504	1424
1048576	3024	2848
1081344	3392	3216
1114112	2976	2864
1146880	2864	2704
1179648	3072	2944
1212416	2800	2720
1245184	3008	2864
1277952	3024	2848
1310720	2976	2816
1343488	3152	2960
1376256	2672	2512
1409024	3024	2848
1441792	2576	2496
1474560	2704	2528
1507328	3088	2944
1540096	2816	2656
1572864	3120	2944
1605632	2624	2528
1638400	3008	2912
1671168	2880	2800
1703936	2768	2656
1736704	704	528
1769472	208	80
1802240	240	16
1835008	272	96
1867776	1536	1392
1900544	3232	3024
1933312	3488	3360
1966080	3392	3200
1998848	3520	3360
2031616	3184	3024
2064384	3456	3248
2097152	5984	5776
2162688	5728	5408
2228224	256	64
2293760	416	128
2359296	480	128
2424832	512	160
2490368	416	80
2555904	720	304
2621440	272	64
2686976	336	112
2752512	400	96
2818048	496	80
2883584	464	144
2949120	816	256
3014656	400	64
3080192	336	64
3145728	416	112
3211264	464	144
3276800	320	112
3342336	320	64
3407872	544	128
3473408	352	80
3538944	336	64
3604480	496	112
3670016	368	80
3735552	288	48
3801088	272	48
3866624	336	80
3932160	416	32
3997696	416	128
4063232	400	64
4128768	288	32
4194304	672	176
4325376	624	224
4456448	784	96
4587520	704	128
4718592	704	128
4849664	656	192
4980736	832	176
5111808	704	192
5242880	688	192
5373952	704	304
5505024	1344	768
5636096	1648	944
5767168	1360	784
5898240	1312	800
6029312	1120	704
6160384	1392	752
6291456	1168	608
6422528	720	176
6553600	704	144
6684672	640	64
6815744	608	32
6946816	512	48
7077888	576	48
7208960	848	32
7340032	752	64
7471104	496	32
7602176	720	32
7733248	768	48
7864320	672	32
7995392	496	32
8126464	736	64
8257536	656	64
8388608	1040	144
8650752	1200	96
8912896	1040	144
9175040	1072	64
9437184	1200	112
9699328	1328	320
9961472	2032	944
10223616	2176	1072
10485760	1952	880
10747904	1520	672
11010048	2096	848
11272192	1888	960
11534336	1968	976
11796480	1840	848
12058624	2384	1456
12320768	4928	3632
12582912	3968	2992
12845056	2480	1520
13107200	2768	1520
13369344	2560	1408
13631488	2640	1520
13893632	2656	1696
14155776	1824	1392
14417920	1584	1296
14680064	1472	1328
14942208	1808	1520
15204352	1344	1184
15466496	1408	1184
15728640	1792	1296
15990784	29664	22704
16252928	78960	55184
16515072	27040	21840
16777216	5200	4560
17301504	7584	6880
17825792	10800	10032
18350080	10448	9792
18874368	7808	7184
19398656	6384	5600
19922944	4832	4288
20447232	3840	3312
20971520	2832	2224
21495808	3792	3056
22020096	3104	2464
22544384	3184	2368
23068672	3264	2576
23592960	3824	3088
24117248	3168	2512
24641536	3744	3424
25165824	3728	3520
25690112	4400	3984
26214400	6384	5936
26738688	46048	45088
27262976	5600	5392
27787264	5472	5216
28311552	7328	6880
28835840	9424	8880
29360128	9968	9536
29884416	8896	8048
30408704	8144	8128
30932992	1792	1792
31457280	1040	1024
31981568	368	368
32505856	272	272
33030144	1168	1168
33554432	2688	2688
34603008	2608	2608
35651584	2448	2448
36700160	2432	2432
37748736	3040	3024
38797312	2848	2848
39845888	2320	2320
40894464	2256	2256
41943040	2800	2800
42991616	2160	2160
44040192	688	688
45088768	304	304
46137344	336	336
47185920	384	384
48234496	288	288
49283072	480	480
50331648	496	496
51380224	416	416
52428800	336	336
53477376	528	528
54525952	560	560
55574528	448	448
56623104	656	656
57671680	928	928
58720256	1024	1024
59768832	1136	1136
60817408	944	944
61865984	1184	1184
62914560	896	896
63963136	880	880
65011712	720	720
66060288	864	864
67108864	1664	1664
69206016	1440	1424
71303168	1456	1456
73400320	3056	3056
75497472	6736	6736
77594624	1648	1648
79691776	1648	1648
81788928	1680	1664
83886080	3200	3184
85983232	2624	2608
88080384	2224	2224
90177536	1920	1920
92274688	64	0
94371840	0	0
96468992	0	0
98566144	0	0
100663296	0	0
102760448	0	0
104857600	1968	1968
106954752	8576	8576
109051904	3120	3120
111149056	0	0
113246208	0	0
115343360	0	0
117440512	2704	192
119537664	3424	32
121634816	3104	0
123731968	3184	64
125829120	624	32
127926272	16	16
130023424	80	80
132120576	16	16
134217728	0	0
138412032	32	32
142606336	16	16
146800640	0	0
150994944	0	0
155189248	0	0
159383552	480	480
163577856	144	144
167772160	160	0
171966464	0	0
176160768	0	0
180355072	16	16
184549376	16	0
188743680	32	0
192937984	32	0
197132288	0	0
201326592	0	0
205520896	0	0
209715200	0	0
213909504	0	0
218103808	0	0
222298112	0	0
226492416	80	80
230686720	0	0
234881024	0	0
239075328	0	0
243269632	0	0
247463936	0	0
251658240	0	0
255852544	0	0
260046848	0	0
264241152	0	0
268435456	0	0
276824064	0	0
285212672	0	0
293601280	0	0
301989888	0	0
310378496	0	0
318767104	0	0
327155712	0	0
335544320	0	0
343932928	0	0
352321536	0	0
360710144	0	0
369098752	0	0
377487360	0	0
385875968	0	0
394264576	0	0
402653184	0	0
411041792	0	0
419430400	0	0
427819008	0	0
436207616	0	0
444596224	0	0
452984832	0	0
461373440	0	0
469762048	0	0
478150656	0	0
486539264	0	0
494927872	0	0
503316480	0	0
511705088	0	0
520093696	0	0
528482304	0	0
536870912	0	0
553648128	0	0
570425344	0	0
587202560	0	0
603979776	0	0
620756992	0	0
637534208	0	0
654311424	0	0
671088640	0	0
687865856	0	0
704643072	0	0
721420288	0	0
738197504	0	0
754974720	0	0
771751936	0	0
788529152	0	0
805306368	0	0
822083584	0	0
838860800	0	0
855638016	0	0
872415232	0	0
889192448	0	0
905969664	0	0
922746880	0	0
939524096	0	0
956301312	0	0
973078528	0	0
989855744	0	0
1006632960	0	0
1023410176	0	0
1040187392	0	0
1056964608	0	0
1073741824	0	0
1107296256	0	0
1140850688	0	0
1174405120	0	0
1207959552	0	0
1241513984	0	0
1275068416	0	0
1308622848	0	0
1342177280	0	0
1375731712	0	0
1409286144	0	0
1442840576	0	0
1476395008	0	0
1509949440	0	0
1543503872	0	0
1577058304	0	0
1610612736	0	0
1644167168	0	0
1677721600	0	0
1711276032	0	0
1744830464	0	0
1778384896	0	0
1811939328	0	0
1845493760	0	0
1879048192	0	0
1912602624	0	0
1946157056	0	0
1979711488	0	0
2013265920	0	0
2046820352	0	0
2080374784	0	0
2113929216	0	0
2147483648	0	0
2214592512	0	0
2281701376	0	0
2348810240	0	0
2415919104	0	0
2483027968	0	0
2550136832	0	0
2617245696	0	0
2684354560	0	0
2751463424	0	0
2818572288	0	0
2885681152	0	0
2952790016	0	0
3019898880	0	0
3087007744	0	0
3154116608	0	0
3221225472	0	0
3288334336	0	0
3355443200	0	0
3422552064	0	0
3489660928	0	0
3556769792	0	0
3623878656	0	0
3690987520	0	0
3758096384	0	0
3825205248	0	0
3892314112	0	0
3959422976	0	0
4026531840	0	0
4093640704	0	0
4160749568	0	0
4227858432	0	0
~~~~~~~~~~Reuse Distance Profiler output end~~~~~~~~~~

Sampler size:36476

DRAM Statistics
 CHANNEL 0
 RQ ROW_BUFFER_HIT:      91166  ROW_BUFFER_MISS:     954897
 DBUS AVG_CONGESTED_CYCLE:    3.96245
 WQ ROW_BUFFER_HIT:      52843  ROW_BUFFER_MISS:     438892  FULL:          0


CPU 0 Branch Prediction Accuracy: 83.1517% MPKI: 6.62 Average ROB Occupancy at Mispredict: 91.9405
Branch type MPKI
BRANCH_DIRECT_JUMP: 0.000186
BRANCH_INDIRECT: 0.000356
BRANCH_CONDITIONAL: 6.54481
BRANCH_DIRECT_CALL: 0.000315333
BRANCH_INDIRECT_CALL: 0.009688
BRANCH_RETURN: 0.064636

