
*** ChampSim Multicore Out-of-Order Simulator ***

Warmup Instructions: 50000000
Simulation Instructions: 1500000000
Number of CPUs: 1
Off-chip DRAM Size: 4 GiB Channels: 1 Width: 64-bit Data Rate: 3200 MT/s

VirtualMemory physical capacity: 8588881920 num_ppages: 2096895
VirtualMemory page size: 4096 log2_page_size: 12

CPU 0 runs /s/traces/champsim_traces/625.x264_s-18B.champsimtrace.xz
CPU 0 Bimodal branch predictor
Basic BTB sets: 1024 ways: 8 indirect buffer size: 4096 RAS size: 64
Initializing LRU.
Initializing LRU.
Initializing LRU.
Initializing LRU.
Initializing rdLRU.
Initializing LRU.
Heartbeat CPU 0 instructions: 2000003 cycles: 500090 heartbeat IPC: 3.99929 cumulative IPC: 3.99929 (Simulation time: 0 hr 0 min 57 sec) 
Heartbeat CPU 0 instructions: 4000003 cycles: 1000090 heartbeat IPC: 4 cumulative IPC: 3.99964 (Simulation time: 0 hr 1 min 57 sec) 
Heartbeat CPU 0 instructions: 6000003 cycles: 1500090 heartbeat IPC: 4 cumulative IPC: 3.99976 (Simulation time: 0 hr 2 min 45 sec) 
Heartbeat CPU 0 instructions: 8000003 cycles: 2000090 heartbeat IPC: 4 cumulative IPC: 3.99982 (Simulation time: 0 hr 3 min 49 sec) 
Heartbeat CPU 0 instructions: 10000003 cycles: 2500090 heartbeat IPC: 4 cumulative IPC: 3.99986 (Simulation time: 0 hr 4 min 50 sec) 
Heartbeat CPU 0 instructions: 12000003 cycles: 3000090 heartbeat IPC: 4 cumulative IPC: 3.99988 (Simulation time: 0 hr 5 min 52 sec) 
Heartbeat CPU 0 instructions: 14000003 cycles: 3500090 heartbeat IPC: 4 cumulative IPC: 3.9999 (Simulation time: 0 hr 6 min 57 sec) 
Heartbeat CPU 0 instructions: 16000003 cycles: 4000090 heartbeat IPC: 4 cumulative IPC: 3.99991 (Simulation time: 0 hr 7 min 58 sec) 
Heartbeat CPU 0 instructions: 18000003 cycles: 4500090 heartbeat IPC: 4 cumulative IPC: 3.99992 (Simulation time: 0 hr 9 min 0 sec) 
Heartbeat CPU 0 instructions: 20000003 cycles: 5000090 heartbeat IPC: 4 cumulative IPC: 3.99993 (Simulation time: 0 hr 10 min 0 sec) 
Heartbeat CPU 0 instructions: 22000001 cycles: 5500262 heartbeat IPC: 3.99862 cumulative IPC: 3.99981 (Simulation time: 0 hr 10 min 59 sec) 
Heartbeat CPU 0 instructions: 24000001 cycles: 6000262 heartbeat IPC: 4 cumulative IPC: 3.99983 (Simulation time: 0 hr 11 min 58 sec) 
Heartbeat CPU 0 instructions: 26000001 cycles: 6500262 heartbeat IPC: 4 cumulative IPC: 3.99984 (Simulation time: 0 hr 12 min 55 sec) 
Heartbeat CPU 0 instructions: 28000001 cycles: 7000262 heartbeat IPC: 4 cumulative IPC: 3.99985 (Simulation time: 0 hr 13 min 52 sec) 
Heartbeat CPU 0 instructions: 30000001 cycles: 7500262 heartbeat IPC: 4 cumulative IPC: 3.99986 (Simulation time: 0 hr 14 min 51 sec) 
Heartbeat CPU 0 instructions: 32000001 cycles: 8000262 heartbeat IPC: 4 cumulative IPC: 3.99987 (Simulation time: 0 hr 15 min 50 sec) 
Heartbeat CPU 0 instructions: 34000001 cycles: 8500262 heartbeat IPC: 4 cumulative IPC: 3.99988 (Simulation time: 0 hr 16 min 47 sec) 
Heartbeat CPU 0 instructions: 36000001 cycles: 9000262 heartbeat IPC: 4 cumulative IPC: 3.99988 (Simulation time: 0 hr 17 min 45 sec) 
Heartbeat CPU 0 instructions: 38000001 cycles: 9500262 heartbeat IPC: 4 cumulative IPC: 3.99989 (Simulation time: 0 hr 18 min 43 sec) 
Heartbeat CPU 0 instructions: 40000001 cycles: 10000262 heartbeat IPC: 4 cumulative IPC: 3.9999 (Simulation time: 0 hr 19 min 41 sec) 
Heartbeat CPU 0 instructions: 42000001 cycles: 10500262 heartbeat IPC: 4 cumulative IPC: 3.9999 (Simulation time: 0 hr 20 min 39 sec) 
Heartbeat CPU 0 instructions: 44000001 cycles: 11000262 heartbeat IPC: 4 cumulative IPC: 3.9999 (Simulation time: 0 hr 21 min 38 sec) 
Heartbeat CPU 0 instructions: 46000001 cycles: 11500262 heartbeat IPC: 4 cumulative IPC: 3.99991 (Simulation time: 0 hr 22 min 34 sec) 
Heartbeat CPU 0 instructions: 48000001 cycles: 12000262 heartbeat IPC: 4 cumulative IPC: 3.99991 (Simulation time: 0 hr 23 min 32 sec) 
Heartbeat CPU 0 instructions: 50000001 cycles: 12500262 heartbeat IPC: 4 cumulative IPC: 3.99992 (Simulation time: 0 hr 24 min 28 sec) 

Warmup complete CPU 0 instructions: 50000001 cycles: 12500262 (Simulation time: 0 hr 24 min 28 sec) 

Heartbeat CPU 0 instructions: 52000003 cycles: 13325794 heartbeat IPC: 2.42268 cumulative IPC: 2.42268 (Simulation time: 0 hr 25 min 21 sec) 

Region of Interest Statistics
cpu0_DTLB TOTAL     ACCESS:     236431  HIT:     235899  MISS:        532
cpu0_DTLB LOAD      ACCESS:     181612  HIT:     181332  MISS:        280
cpu0_DTLB RFO       ACCESS:      54819  HIT:      54567  MISS:        252
cpu0_DTLB PREFETCH  ACCESS:          0  HIT:          0  MISS:          0
cpu0_DTLB WRITEBACK ACCESS:          0  HIT:          0  MISS:          0
cpu0_ITLB TOTAL     ACCESS:     184373  HIT:     184373  MISS:          0
cpu0_ITLB LOAD      ACCESS:     184373  HIT:     184373  MISS:          0
cpu0_ITLB RFO       ACCESS:          0  HIT:          0  MISS:          0
cpu0_ITLB PREFETCH  ACCESS:          0  HIT:          0  MISS:          0
cpu0_ITLB WRITEBACK ACCESS:          0  HIT:          0  MISS:          0
cpu0_L1I TOTAL     ACCESS:      14445  HIT:      14445  MISS:          0
cpu0_L1I LOAD      ACCESS:      14445  HIT:      14445  MISS:          0
cpu0_L1I RFO       ACCESS:          0  HIT:          0  MISS:          0
cpu0_L1I PREFETCH  ACCESS:          0  HIT:          0  MISS:          0
cpu0_L1I WRITEBACK ACCESS:          0  HIT:          0  MISS:          0
cpu0_STLB TOTAL     ACCESS:        532  HIT:        528  MISS:          4
cpu0_STLB LOAD      ACCESS:        280  HIT:        276  MISS:          4
cpu0_STLB RFO       ACCESS:        252  HIT:        252  MISS:          0
cpu0_STLB PREFETCH  ACCESS:          0  HIT:          0  MISS:          0
cpu0_STLB WRITEBACK ACCESS:          0  HIT:          0  MISS:          0
cpu0_L1D TOTAL     ACCESS:     263279  HIT:     262654  MISS:        625
cpu0_L1D LOAD      ACCESS:     130315  HIT:     129709  MISS:        606
cpu0_L1D RFO       ACCESS:     132960  HIT:     132941  MISS:         19
cpu0_L1D PREFETCH  ACCESS:          0  HIT:          0  MISS:          0
cpu0_L1D WRITEBACK ACCESS:          0  HIT:          0  MISS:          0
cpu0_L2C TOTAL     ACCESS:        647  HIT:         74  MISS:        573
cpu0_L2C LOAD      ACCESS:        606  HIT:         51  MISS:        555
cpu0_L2C RFO       ACCESS:         19  HIT:          1  MISS:         18
cpu0_L2C PREFETCH  ACCESS:          0  HIT:          0  MISS:          0
cpu0_L2C WRITEBACK ACCESS:         22  HIT:         22  MISS:          0
LLC TOTAL     ACCESS:        580  HIT:          7  MISS:        573
LLC LOAD      ACCESS:        555  HIT:          0  MISS:        555
LLC RFO       ACCESS:         18  HIT:          0  MISS:         18
LLC PREFETCH  ACCESS:          0  HIT:          0  MISS:          0
LLC WRITEBACK ACCESS:          7  HIT:          7  MISS:          0
Heartbeat CPU 0 instructions: 54000003 cycles: 14146000 heartbeat IPC: 2.43841 cumulative IPC: 2.43052 (Simulation time: 0 hr 26 min 13 sec) 

Region of Interest Statistics
cpu0_DTLB TOTAL     ACCESS:     470457  HIT:     469303  MISS:       1154
cpu0_DTLB LOAD      ACCESS:     361791  HIT:     361155  MISS:        636
cpu0_DTLB RFO       ACCESS:     108666  HIT:     108148  MISS:        518
cpu0_DTLB PREFETCH  ACCESS:          0  HIT:          0  MISS:          0
cpu0_DTLB WRITEBACK ACCESS:          0  HIT:          0  MISS:          0
cpu0_ITLB TOTAL     ACCESS:     368020  HIT:     368020  MISS:          0
cpu0_ITLB LOAD      ACCESS:     368020  HIT:     368020  MISS:          0
cpu0_ITLB RFO       ACCESS:          0  HIT:          0  MISS:          0
cpu0_ITLB PREFETCH  ACCESS:          0  HIT:          0  MISS:          0
cpu0_ITLB WRITEBACK ACCESS:          0  HIT:          0  MISS:          0
cpu0_L1I TOTAL     ACCESS:      29229  HIT:      29229  MISS:          0
cpu0_L1I LOAD      ACCESS:      29229  HIT:      29229  MISS:          0
cpu0_L1I RFO       ACCESS:          0  HIT:          0  MISS:          0
cpu0_L1I PREFETCH  ACCESS:          0  HIT:          0  MISS:          0
cpu0_L1I WRITEBACK ACCESS:          0  HIT:          0  MISS:          0
cpu0_STLB TOTAL     ACCESS:       1154  HIT:       1136  MISS:         18
cpu0_STLB LOAD      ACCESS:        636  HIT:        619  MISS:         17
cpu0_STLB RFO       ACCESS:        518  HIT:        517  MISS:          1
cpu0_STLB PREFETCH  ACCESS:          0  HIT:          0  MISS:          0
cpu0_STLB WRITEBACK ACCESS:          0  HIT:          0  MISS:          0
cpu0_L1D TOTAL     ACCESS:     523838  HIT:     522587  MISS:       1251
cpu0_L1D LOAD      ACCESS:     259511  HIT:     258300  MISS:       1211
cpu0_L1D RFO       ACCESS:     264310  HIT:     264271  MISS:         39
cpu0_L1D PREFETCH  ACCESS:          0  HIT:          0  MISS:          0
cpu0_L1D WRITEBACK ACCESS:          0  HIT:          0  MISS:          0
cpu0_L2C TOTAL     ACCESS:       1290  HIT:        157  MISS:       1133
cpu0_L2C LOAD      ACCESS:       1211  HIT:        116  MISS:       1095
cpu0_L2C RFO       ACCESS:         39  HIT:          1  MISS:         38
cpu0_L2C PREFETCH  ACCESS:          0  HIT:          0  MISS:          0
cpu0_L2C WRITEBACK ACCESS:         39  HIT:         39  MISS:          0
LLC TOTAL     ACCESS:       1158  HIT:         23  MISS:       1135
LLC LOAD      ACCESS:       1095  HIT:          0  MISS:       1095
LLC RFO       ACCESS:         38  HIT:          0  MISS:         38
LLC PREFETCH  ACCESS:          0  HIT:          0  MISS:          0
LLC WRITEBACK ACCESS:         25  HIT:         23  MISS:          2
Heartbeat CPU 0 instructions: 56000000 cycles: 14969602 heartbeat IPC: 2.42835 cumulative IPC: 2.4298 (Simulation time: 0 hr 27 min 6 sec) 

Region of Interest Statistics
cpu0_DTLB TOTAL     ACCESS:     703987  HIT:     701916  MISS:       2071
cpu0_DTLB LOAD      ACCESS:     541774  HIT:     540502  MISS:       1272
cpu0_DTLB RFO       ACCESS:     162213  HIT:     161414  MISS:        799
cpu0_DTLB PREFETCH  ACCESS:          0  HIT:          0  MISS:          0
cpu0_DTLB WRITEBACK ACCESS:          0  HIT:          0  MISS:          0
cpu0_ITLB TOTAL     ACCESS:     551145  HIT:     551145  MISS:          0
cpu0_ITLB LOAD      ACCESS:     551145  HIT:     551145  MISS:          0
cpu0_ITLB RFO       ACCESS:          0  HIT:          0  MISS:          0
cpu0_ITLB PREFETCH  ACCESS:          0  HIT:          0  MISS:          0
cpu0_ITLB WRITEBACK ACCESS:          0  HIT:          0  MISS:          0
cpu0_L1I TOTAL     ACCESS:      44054  HIT:      44054  MISS:          0
cpu0_L1I LOAD      ACCESS:      44054  HIT:      44054  MISS:          0
cpu0_L1I RFO       ACCESS:          0  HIT:          0  MISS:          0
cpu0_L1I PREFETCH  ACCESS:          0  HIT:          0  MISS:          0
cpu0_L1I WRITEBACK ACCESS:          0  HIT:          0  MISS:          0
cpu0_STLB TOTAL     ACCESS:       2071  HIT:       2040  MISS:         31
cpu0_STLB LOAD      ACCESS:       1272  HIT:       1242  MISS:         30
cpu0_STLB RFO       ACCESS:        799  HIT:        798  MISS:          1
cpu0_STLB PREFETCH  ACCESS:          0  HIT:          0  MISS:          0
cpu0_STLB WRITEBACK ACCESS:          0  HIT:          0  MISS:          0
cpu0_L1D TOTAL     ACCESS:     783733  HIT:     781829  MISS:       1904
cpu0_L1D LOAD      ACCESS:     388702  HIT:     386857  MISS:       1845
cpu0_L1D RFO       ACCESS:     395003  HIT:     394946  MISS:         57
cpu0_L1D PREFETCH  ACCESS:          0  HIT:          0  MISS:          0
cpu0_L1D WRITEBACK ACCESS:          0  HIT:          0  MISS:          0
cpu0_L2C TOTAL     ACCESS:       1962  HIT:        241  MISS:       1721
cpu0_L2C LOAD      ACCESS:       1845  HIT:        180  MISS:       1665
cpu0_L2C RFO       ACCESS:         57  HIT:          1  MISS:         56
cpu0_L2C PREFETCH  ACCESS:          0  HIT:          0  MISS:          0
cpu0_L2C WRITEBACK ACCESS:         58  HIT:         58  MISS:          0
LLC TOTAL     ACCESS:       1759  HIT:         34  MISS:       1725
LLC LOAD      ACCESS:       1665  HIT:          0  MISS:       1665
LLC RFO       ACCESS:         56  HIT:          0  MISS:         56
LLC PREFETCH  ACCESS:          0  HIT:          0  MISS:          0
LLC WRITEBACK ACCESS:         38  HIT:         34  MISS:          4
Heartbeat CPU 0 instructions: 58000001 cycles: 15795460 heartbeat IPC: 2.42173 cumulative IPC: 2.42778 (Simulation time: 0 hr 27 min 59 sec) 

Region of Interest Statistics
cpu0_DTLB TOTAL     ACCESS:     939138  HIT:     936301  MISS:       2837
cpu0_DTLB LOAD      ACCESS:     722678  HIT:     720829  MISS:       1849
cpu0_DTLB RFO       ACCESS:     216460  HIT:     215472  MISS:        988
cpu0_DTLB PREFETCH  ACCESS:          0  HIT:          0  MISS:          0
cpu0_DTLB WRITEBACK ACCESS:          0  HIT:          0  MISS:          0
cpu0_ITLB TOTAL     ACCESS:     735266  HIT:     735266  MISS:          0
cpu0_ITLB LOAD      ACCESS:     735266  HIT:     735266  MISS:          0
cpu0_ITLB RFO       ACCESS:          0  HIT:          0  MISS:          0
cpu0_ITLB PREFETCH  ACCESS:          0  HIT:          0  MISS:          0
cpu0_ITLB WRITEBACK ACCESS:          0  HIT:          0  MISS:          0
cpu0_L1I TOTAL     ACCESS:      58612  HIT:      58612  MISS:          0
cpu0_L1I LOAD      ACCESS:      58612  HIT:      58612  MISS:          0
cpu0_L1I RFO       ACCESS:          0  HIT:          0  MISS:          0
cpu0_L1I PREFETCH  ACCESS:          0  HIT:          0  MISS:          0
cpu0_L1I WRITEBACK ACCESS:          0  HIT:          0  MISS:          0
cpu0_STLB TOTAL     ACCESS:       2837  HIT:       2799  MISS:         38
cpu0_STLB LOAD      ACCESS:       1849  HIT:       1812  MISS:         37
cpu0_STLB RFO       ACCESS:        988  HIT:        987  MISS:          1
cpu0_STLB PREFETCH  ACCESS:          0  HIT:          0  MISS:          0
cpu0_STLB WRITEBACK ACCESS:          0  HIT:          0  MISS:          0
cpu0_L1D TOTAL     ACCESS:    1045599  HIT:    1043045  MISS:       2554
cpu0_L1D LOAD      ACCESS:     518554  HIT:     516078  MISS:       2476
cpu0_L1D RFO       ACCESS:     527011  HIT:     526936  MISS:         75
cpu0_L1D PREFETCH  ACCESS:          0  HIT:          0  MISS:          0
cpu0_L1D WRITEBACK ACCESS:          0  HIT:          0  MISS:          0
cpu0_L2C TOTAL     ACCESS:       2629  HIT:        330  MISS:       2299
cpu0_L2C LOAD      ACCESS:       2476  HIT:        251  MISS:       2225
cpu0_L2C RFO       ACCESS:         75  HIT:          1  MISS:         74
cpu0_L2C PREFETCH  ACCESS:          0  HIT:          0  MISS:          0
cpu0_L2C WRITEBACK ACCESS:         75  HIT:         75  MISS:          0
LLC TOTAL     ACCESS:       2349  HIT:         46  MISS:       2303
LLC LOAD      ACCESS:       2225  HIT:          0  MISS:       2225
LLC RFO       ACCESS:         74  HIT:          0  MISS:         74
LLC PREFETCH  ACCESS:          0  HIT:          0  MISS:          0
LLC WRITEBACK ACCESS:         50  HIT:         46  MISS:          4
Heartbeat CPU 0 instructions: 60000004 cycles: 16626119 heartbeat IPC: 2.40773 cumulative IPC: 2.42374 (Simulation time: 0 hr 28 min 53 sec) 

Region of Interest Statistics
cpu0_DTLB TOTAL     ACCESS:    1177496  HIT:    1174203  MISS:       3293
cpu0_DTLB LOAD      ACCESS:     905431  HIT:     903197  MISS:       2234
cpu0_DTLB RFO       ACCESS:     272065  HIT:     271006  MISS:       1059
cpu0_DTLB PREFETCH  ACCESS:          0  HIT:          0  MISS:          0
cpu0_DTLB WRITEBACK ACCESS:          0  HIT:          0  MISS:          0
cpu0_ITLB TOTAL     ACCESS:     920289  HIT:     920289  MISS:          0
cpu0_ITLB LOAD      ACCESS:     920289  HIT:     920289  MISS:          0
cpu0_ITLB RFO       ACCESS:          0  HIT:          0  MISS:          0
cpu0_ITLB PREFETCH  ACCESS:          0  HIT:          0  MISS:          0
cpu0_ITLB WRITEBACK ACCESS:          0  HIT:          0  MISS:          0
cpu0_L1I TOTAL     ACCESS:      72896  HIT:      72896  MISS:          0
cpu0_L1I LOAD      ACCESS:      72896  HIT:      72896  MISS:          0
cpu0_L1I RFO       ACCESS:          0  HIT:          0  MISS:          0
cpu0_L1I PREFETCH  ACCESS:          0  HIT:          0  MISS:          0
cpu0_L1I WRITEBACK ACCESS:          0  HIT:          0  MISS:          0
cpu0_STLB TOTAL     ACCESS:       3293  HIT:       3239  MISS:         54
cpu0_STLB LOAD      ACCESS:       2234  HIT:       2182  MISS:         52
cpu0_STLB RFO       ACCESS:       1059  HIT:       1057  MISS:          2
cpu0_STLB PREFETCH  ACCESS:          0  HIT:          0  MISS:          0
cpu0_STLB WRITEBACK ACCESS:          0  HIT:          0  MISS:          0
cpu0_L1D TOTAL     ACCESS:    1311423  HIT:    1308250  MISS:       3173
cpu0_L1D LOAD      ACCESS:     649935  HIT:     646860  MISS:       3075
cpu0_L1D RFO       ACCESS:     661439  HIT:     661346  MISS:         93
cpu0_L1D PREFETCH  ACCESS:          0  HIT:          0  MISS:          0
cpu0_L1D WRITEBACK ACCESS:          0  HIT:          0  MISS:          0
cpu0_L2C TOTAL     ACCESS:       3269  HIT:        416  MISS:       2853
cpu0_L2C LOAD      ACCESS:       3075  HIT:        314  MISS:       2761
cpu0_L2C RFO       ACCESS:         93  HIT:          1  MISS:         92
cpu0_L2C PREFETCH  ACCESS:          0  HIT:          0  MISS:          0
cpu0_L2C WRITEBACK ACCESS:         96  HIT:         96  MISS:          0
LLC TOTAL     ACCESS:       2919  HIT:         62  MISS:       2857
LLC LOAD      ACCESS:       2761  HIT:          0  MISS:       2761
LLC RFO       ACCESS:         92  HIT:          0  MISS:         92
LLC PREFETCH  ACCESS:          0  HIT:          0  MISS:          0
LLC WRITEBACK ACCESS:         66  HIT:         62  MISS:          4
Heartbeat CPU 0 instructions: 62000000 cycles: 17454198 heartbeat IPC: 2.41522 cumulative IPC: 2.42232 (Simulation time: 0 hr 29 min 46 sec) 

Region of Interest Statistics
cpu0_DTLB TOTAL     ACCESS:    1415410  HIT:    1411600  MISS:       3810
cpu0_DTLB LOAD      ACCESS:    1087972  HIT:    1085347  MISS:       2625
cpu0_DTLB RFO       ACCESS:     327438  HIT:     326253  MISS:       1185
cpu0_DTLB PREFETCH  ACCESS:          0  HIT:          0  MISS:          0
cpu0_DTLB WRITEBACK ACCESS:          0  HIT:          0  MISS:          0
cpu0_ITLB TOTAL     ACCESS:    1105063  HIT:    1105063  MISS:          0
cpu0_ITLB LOAD      ACCESS:    1105063  HIT:    1105063  MISS:          0
cpu0_ITLB RFO       ACCESS:          0  HIT:          0  MISS:          0
cpu0_ITLB PREFETCH  ACCESS:          0  HIT:          0  MISS:          0
cpu0_ITLB WRITEBACK ACCESS:          0  HIT:          0  MISS:          0
cpu0_L1I TOTAL     ACCESS:      87101  HIT:      87101  MISS:          0
cpu0_L1I LOAD      ACCESS:      87101  HIT:      87101  MISS:          0
cpu0_L1I RFO       ACCESS:          0  HIT:          0  MISS:          0
cpu0_L1I PREFETCH  ACCESS:          0  HIT:          0  MISS:          0
cpu0_L1I WRITEBACK ACCESS:          0  HIT:          0  MISS:          0
cpu0_STLB TOTAL     ACCESS:       3810  HIT:       3752  MISS:         58
cpu0_STLB LOAD      ACCESS:       2625  HIT:       2569  MISS:         56
cpu0_STLB RFO       ACCESS:       1185  HIT:       1183  MISS:          2
cpu0_STLB PREFETCH  ACCESS:          0  HIT:          0  MISS:          0
cpu0_STLB WRITEBACK ACCESS:          0  HIT:          0  MISS:          0
cpu0_L1D TOTAL     ACCESS:    1576399  HIT:    1572620  MISS:       3779
cpu0_L1D LOAD      ACCESS:     781013  HIT:     777351  MISS:       3662
cpu0_L1D RFO       ACCESS:     795333  HIT:     795221  MISS:        112
cpu0_L1D PREFETCH  ACCESS:          0  HIT:          0  MISS:          0
cpu0_L1D WRITEBACK ACCESS:          0  HIT:          0  MISS:          0
cpu0_L2C TOTAL     ACCESS:       3891  HIT:        488  MISS:       3403
cpu0_L2C LOAD      ACCESS:       3662  HIT:        369  MISS:       3293
cpu0_L2C RFO       ACCESS:        112  HIT:          2  MISS:        110
cpu0_L2C PREFETCH  ACCESS:          0  HIT:          0  MISS:          0
cpu0_L2C WRITEBACK ACCESS:        112  HIT:        112  MISS:          0
LLC TOTAL     ACCESS:       3490  HIT:         83  MISS:       3407
LLC LOAD      ACCESS:       3293  HIT:          0  MISS:       3293
LLC RFO       ACCESS:        110  HIT:          0  MISS:        110
LLC PREFETCH  ACCESS:          0  HIT:          0  MISS:          0
LLC WRITEBACK ACCESS:         87  HIT:         83  MISS:          4
Heartbeat CPU 0 instructions: 64000001 cycles: 18281504 heartbeat IPC: 2.41749 cumulative IPC: 2.42162 (Simulation time: 0 hr 30 min 39 sec) 

Region of Interest Statistics
cpu0_DTLB TOTAL     ACCESS:    1650444  HIT:    1645863  MISS:       4581
cpu0_DTLB LOAD      ACCESS:    1268770  HIT:    1265504  MISS:       3266
cpu0_DTLB RFO       ACCESS:     381674  HIT:     380359  MISS:       1315
cpu0_DTLB PREFETCH  ACCESS:          0  HIT:          0  MISS:          0
cpu0_DTLB WRITEBACK ACCESS:          0  HIT:          0  MISS:          0
cpu0_ITLB TOTAL     ACCESS:    1289112  HIT:    1289112  MISS:          0
cpu0_ITLB LOAD      ACCESS:    1289112  HIT:    1289112  MISS:          0
cpu0_ITLB RFO       ACCESS:          0  HIT:          0  MISS:          0
cpu0_ITLB PREFETCH  ACCESS:          0  HIT:          0  MISS:          0
cpu0_ITLB WRITEBACK ACCESS:          0  HIT:          0  MISS:          0
cpu0_L1I TOTAL     ACCESS:     101680  HIT:     101680  MISS:          0
cpu0_L1I LOAD      ACCESS:     101680  HIT:     101680  MISS:          0
cpu0_L1I RFO       ACCESS:          0  HIT:          0  MISS:          0
cpu0_L1I PREFETCH  ACCESS:          0  HIT:          0  MISS:          0
cpu0_L1I WRITEBACK ACCESS:          0  HIT:          0  MISS:          0
cpu0_STLB TOTAL     ACCESS:       4581  HIT:       4512  MISS:         69
cpu0_STLB LOAD      ACCESS:       3266  HIT:       3199  MISS:         67
cpu0_STLB RFO       ACCESS:       1315  HIT:       1313  MISS:          2
cpu0_STLB PREFETCH  ACCESS:          0  HIT:          0  MISS:          0
cpu0_STLB WRITEBACK ACCESS:          0  HIT:          0  MISS:          0
cpu0_L1D TOTAL     ACCESS:    1838299  HIT:    1833867  MISS:       4432
cpu0_L1D LOAD      ACCESS:     911043  HIT:     906750  MISS:       4293
cpu0_L1D RFO       ACCESS:     927194  HIT:     927062  MISS:        132
cpu0_L1D PREFETCH  ACCESS:          0  HIT:          0  MISS:          0
cpu0_L1D WRITEBACK ACCESS:          0  HIT:          0  MISS:          0
cpu0_L2C TOTAL     ACCESS:       4563  HIT:        580  MISS:       3983
cpu0_L2C LOAD      ACCESS:       4293  HIT:        439  MISS:       3854
cpu0_L2C RFO       ACCESS:        132  HIT:          4  MISS:        128
cpu0_L2C PREFETCH  ACCESS:          0  HIT:          0  MISS:          0
cpu0_L2C WRITEBACK ACCESS:        131  HIT:        130  MISS:          1
LLC TOTAL     ACCESS:       4102  HIT:        116  MISS:       3986
LLC LOAD      ACCESS:       3854  HIT:          0  MISS:       3854
LLC RFO       ACCESS:        128  HIT:          0  MISS:        128
LLC PREFETCH  ACCESS:          0  HIT:          0  MISS:          0
LLC WRITEBACK ACCESS:        120  HIT:        116  MISS:          4
Heartbeat CPU 0 instructions: 66000002 cycles: 19104625 heartbeat IPC: 2.42978 cumulative IPC: 2.42264 (Simulation time: 0 hr 31 min 30 sec) 

Region of Interest Statistics
cpu0_DTLB TOTAL     ACCESS:    1883811  HIT:    1878702  MISS:       5109
cpu0_DTLB LOAD      ACCESS:    1448720  HIT:    1445026  MISS:       3694
cpu0_DTLB RFO       ACCESS:     435091  HIT:     433676  MISS:       1415
cpu0_DTLB PREFETCH  ACCESS:          0  HIT:          0  MISS:          0
cpu0_DTLB WRITEBACK ACCESS:          0  HIT:          0  MISS:          0
cpu0_ITLB TOTAL     ACCESS:    1472207  HIT:    1472207  MISS:          0
cpu0_ITLB LOAD      ACCESS:    1472207  HIT:    1472207  MISS:          0
cpu0_ITLB RFO       ACCESS:          0  HIT:          0  MISS:          0
cpu0_ITLB PREFETCH  ACCESS:          0  HIT:          0  MISS:          0
cpu0_ITLB WRITEBACK ACCESS:          0  HIT:          0  MISS:          0
cpu0_L1I TOTAL     ACCESS:     116579  HIT:     116579  MISS:          0
cpu0_L1I LOAD      ACCESS:     116579  HIT:     116579  MISS:          0
cpu0_L1I RFO       ACCESS:          0  HIT:          0  MISS:          0
cpu0_L1I PREFETCH  ACCESS:          0  HIT:          0  MISS:          0
cpu0_L1I WRITEBACK ACCESS:          0  HIT:          0  MISS:          0
cpu0_STLB TOTAL     ACCESS:       5109  HIT:       5028  MISS:         81
cpu0_STLB LOAD      ACCESS:       3694  HIT:       3615  MISS:         79
cpu0_STLB RFO       ACCESS:       1415  HIT:       1413  MISS:          2
cpu0_STLB PREFETCH  ACCESS:          0  HIT:          0  MISS:          0
cpu0_STLB WRITEBACK ACCESS:          0  HIT:          0  MISS:          0
cpu0_L1D TOTAL     ACCESS:    2097874  HIT:    2092734  MISS:       5140
cpu0_L1D LOAD      ACCESS:    1040187  HIT:    1035205  MISS:       4982
cpu0_L1D RFO       ACCESS:    1057614  HIT:    1057464  MISS:        150
cpu0_L1D PREFETCH  ACCESS:          0  HIT:          0  MISS:          0
cpu0_L1D WRITEBACK ACCESS:          0  HIT:          0  MISS:          0
cpu0_L2C TOTAL     ACCESS:       5294  HIT:        687  MISS:       4607
cpu0_L2C LOAD      ACCESS:       4982  HIT:        522  MISS:       4460
cpu0_L2C RFO       ACCESS:        150  HIT:          4  MISS:        146
cpu0_L2C PREFETCH  ACCESS:          0  HIT:          0  MISS:          0
cpu0_L2C WRITEBACK ACCESS:        154  HIT:        153  MISS:          1
LLC TOTAL     ACCESS:       4771  HIT:        161  MISS:       4610
LLC LOAD      ACCESS:       4460  HIT:          0  MISS:       4460
LLC RFO       ACCESS:        146  HIT:          0  MISS:        146
LLC PREFETCH  ACCESS:          0  HIT:          0  MISS:          0
LLC WRITEBACK ACCESS:        165  HIT:        161  MISS:          4
Heartbeat CPU 0 instructions: 68000002 cycles: 19921319 heartbeat IPC: 2.4489 cumulative IPC: 2.42553 (Simulation time: 0 hr 32 min 22 sec) 

Region of Interest Statistics
cpu0_DTLB TOTAL     ACCESS:    2116239  HIT:    2110767  MISS:       5472
cpu0_DTLB LOAD      ACCESS:    1628155  HIT:    1624181  MISS:       3974
cpu0_DTLB RFO       ACCESS:     488084  HIT:     486586  MISS:       1498
cpu0_DTLB PREFETCH  ACCESS:          0  HIT:          0  MISS:          0
cpu0_DTLB WRITEBACK ACCESS:          0  HIT:          0  MISS:          0
cpu0_ITLB TOTAL     ACCESS:    1655011  HIT:    1655011  MISS:          0
cpu0_ITLB LOAD      ACCESS:    1655011  HIT:    1655011  MISS:          0
cpu0_ITLB RFO       ACCESS:          0  HIT:          0  MISS:          0
cpu0_ITLB PREFETCH  ACCESS:          0  HIT:          0  MISS:          0
cpu0_ITLB WRITEBACK ACCESS:          0  HIT:          0  MISS:          0
cpu0_L1I TOTAL     ACCESS:     131677  HIT:     131677  MISS:          0
cpu0_L1I LOAD      ACCESS:     131677  HIT:     131677  MISS:          0
cpu0_L1I RFO       ACCESS:          0  HIT:          0  MISS:          0
cpu0_L1I PREFETCH  ACCESS:          0  HIT:          0  MISS:          0
cpu0_L1I WRITEBACK ACCESS:          0  HIT:          0  MISS:          0
cpu0_STLB TOTAL     ACCESS:       5472  HIT:       5379  MISS:         93
cpu0_STLB LOAD      ACCESS:       3974  HIT:       3883  MISS:         91
cpu0_STLB RFO       ACCESS:       1498  HIT:       1496  MISS:          2
cpu0_STLB PREFETCH  ACCESS:          0  HIT:          0  MISS:          0
cpu0_STLB WRITEBACK ACCESS:          0  HIT:          0  MISS:          0
cpu0_L1D TOTAL     ACCESS:    2355969  HIT:    2350241  MISS:       5728
cpu0_L1D LOAD      ACCESS:    1168657  HIT:    1163106  MISS:       5551
cpu0_L1D RFO       ACCESS:    1187228  HIT:    1187060  MISS:        168
cpu0_L1D PREFETCH  ACCESS:          0  HIT:          0  MISS:          0
cpu0_L1D WRITEBACK ACCESS:          0  HIT:          0  MISS:          0
cpu0_L2C TOTAL     ACCESS:       5893  HIT:        750  MISS:       5143
cpu0_L2C LOAD      ACCESS:       5551  HIT:        573  MISS:       4978
cpu0_L2C RFO       ACCESS:        168  HIT:          4  MISS:        164
cpu0_L2C PREFETCH  ACCESS:          0  HIT:          0  MISS:          0
cpu0_L2C WRITEBACK ACCESS:        165  HIT:        164  MISS:          1
LLC TOTAL     ACCESS:       5332  HIT:        186  MISS:       5146
LLC LOAD      ACCESS:       4978  HIT:          0  MISS:       4978
LLC RFO       ACCESS:        164  HIT:          0  MISS:        164
LLC PREFETCH  ACCESS:          0  HIT:          0  MISS:          0
LLC WRITEBACK ACCESS:        190  HIT:        186  MISS:          4
Heartbeat CPU 0 instructions: 70000000 cycles: 20744570 heartbeat IPC: 2.42939 cumulative IPC: 2.42592 (Simulation time: 0 hr 33 min 13 sec) 

Region of Interest Statistics
cpu0_DTLB TOTAL     ACCESS:    2349887  HIT:    2343784  MISS:       6103
cpu0_DTLB LOAD      ACCESS:    1808098  HIT:    1803576  MISS:       4522
cpu0_DTLB RFO       ACCESS:     541789  HIT:     540208  MISS:       1581
cpu0_DTLB PREFETCH  ACCESS:          0  HIT:          0  MISS:          0
cpu0_DTLB WRITEBACK ACCESS:          0  HIT:          0  MISS:          0
cpu0_ITLB TOTAL     ACCESS:    1838434  HIT:    1838434  MISS:          0
cpu0_ITLB LOAD      ACCESS:    1838434  HIT:    1838434  MISS:          0
cpu0_ITLB RFO       ACCESS:          0  HIT:          0  MISS:          0
cpu0_ITLB PREFETCH  ACCESS:          0  HIT:          0  MISS:          0
cpu0_ITLB WRITEBACK ACCESS:          0  HIT:          0  MISS:          0
cpu0_L1I TOTAL     ACCESS:     146672  HIT:     146672  MISS:          0
cpu0_L1I LOAD      ACCESS:     146672  HIT:     146672  MISS:          0
cpu0_L1I RFO       ACCESS:          0  HIT:          0  MISS:          0
cpu0_L1I PREFETCH  ACCESS:          0  HIT:          0  MISS:          0
cpu0_L1I WRITEBACK ACCESS:          0  HIT:          0  MISS:          0
cpu0_STLB TOTAL     ACCESS:       6103  HIT:       5999  MISS:        104
cpu0_STLB LOAD      ACCESS:       4522  HIT:       4421  MISS:        101
cpu0_STLB RFO       ACCESS:       1581  HIT:       1578  MISS:          3
cpu0_STLB PREFETCH  ACCESS:          0  HIT:          0  MISS:          0
cpu0_STLB WRITEBACK ACCESS:          0  HIT:          0  MISS:          0
cpu0_L1D TOTAL     ACCESS:    2616317  HIT:    2609959  MISS:       6358
cpu0_L1D LOAD      ACCESS:    1298022  HIT:    1291862  MISS:       6160
cpu0_L1D RFO       ACCESS:    1318201  HIT:    1318015  MISS:        186
cpu0_L1D PREFETCH  ACCESS:          0  HIT:          0  MISS:          0
cpu0_L1D WRITEBACK ACCESS:          0  HIT:          0  MISS:          0
cpu0_L2C TOTAL     ACCESS:       6541  HIT:        832  MISS:       5709
cpu0_L2C LOAD      ACCESS:       6160  HIT:        634  MISS:       5526
cpu0_L2C RFO       ACCESS:        186  HIT:          4  MISS:        182
cpu0_L2C PREFETCH  ACCESS:          0  HIT:          0  MISS:          0
cpu0_L2C WRITEBACK ACCESS:        183  HIT:        182  MISS:          1
LLC TOTAL     ACCESS:       5910  HIT:        197  MISS:       5713
LLC LOAD      ACCESS:       5526  HIT:          0  MISS:       5526
LLC RFO       ACCESS:        182  HIT:          0  MISS:        182
LLC PREFETCH  ACCESS:          0  HIT:          0  MISS:          0
LLC WRITEBACK ACCESS:        202  HIT:        197  MISS:          5
Heartbeat CPU 0 instructions: 72000004 cycles: 21565596 heartbeat IPC: 2.43598 cumulative IPC: 2.42683 (Simulation time: 0 hr 34 min 4 sec) 

Region of Interest Statistics
cpu0_DTLB TOTAL     ACCESS:    2584121  HIT:    2577472  MISS:       6649
cpu0_DTLB LOAD      ACCESS:    1988607  HIT:    1983613  MISS:       4994
cpu0_DTLB RFO       ACCESS:     595514  HIT:     593859  MISS:       1655
cpu0_DTLB PREFETCH  ACCESS:          0  HIT:          0  MISS:          0
cpu0_DTLB WRITEBACK ACCESS:          0  HIT:          0  MISS:          0
cpu0_ITLB TOTAL     ACCESS:    2022205  HIT:    2022205  MISS:          0
cpu0_ITLB LOAD      ACCESS:    2022205  HIT:    2022205  MISS:          0
cpu0_ITLB RFO       ACCESS:          0  HIT:          0  MISS:          0
cpu0_ITLB PREFETCH  ACCESS:          0  HIT:          0  MISS:          0
cpu0_ITLB WRITEBACK ACCESS:          0  HIT:          0  MISS:          0
cpu0_L1I TOTAL     ACCESS:     161324  HIT:     161324  MISS:          0
cpu0_L1I LOAD      ACCESS:     161324  HIT:     161324  MISS:          0
cpu0_L1I RFO       ACCESS:          0  HIT:          0  MISS:          0
cpu0_L1I PREFETCH  ACCESS:          0  HIT:          0  MISS:          0
cpu0_L1I WRITEBACK ACCESS:          0  HIT:          0  MISS:          0
cpu0_STLB TOTAL     ACCESS:       6649  HIT:       6542  MISS:        107
cpu0_STLB LOAD      ACCESS:       4994  HIT:       4890  MISS:        104
cpu0_STLB RFO       ACCESS:       1655  HIT:       1652  MISS:          3
cpu0_STLB PREFETCH  ACCESS:          0  HIT:          0  MISS:          0
cpu0_STLB WRITEBACK ACCESS:          0  HIT:          0  MISS:          0
cpu0_L1D TOTAL     ACCESS:    2876880  HIT:    2869936  MISS:       6944
cpu0_L1D LOAD      ACCESS:    1427853  HIT:    1421126  MISS:       6727
cpu0_L1D RFO       ACCESS:    1448930  HIT:    1448725  MISS:        205
cpu0_L1D PREFETCH  ACCESS:          0  HIT:          0  MISS:          0
cpu0_L1D WRITEBACK ACCESS:          0  HIT:          0  MISS:          0
cpu0_L2C TOTAL     ACCESS:       7148  HIT:        901  MISS:       6247
cpu0_L2C LOAD      ACCESS:       6727  HIT:        682  MISS:       6045
cpu0_L2C RFO       ACCESS:        205  HIT:          5  MISS:        200
cpu0_L2C PREFETCH  ACCESS:          0  HIT:          0  MISS:          0
cpu0_L2C WRITEBACK ACCESS:        204  HIT:        202  MISS:          2
LLC TOTAL     ACCESS:       6451  HIT:        201  MISS:       6250
LLC LOAD      ACCESS:       6045  HIT:          0  MISS:       6045
LLC RFO       ACCESS:        200  HIT:          0  MISS:        200
LLC PREFETCH  ACCESS:          0  HIT:          0  MISS:          0
LLC WRITEBACK ACCESS:        206  HIT:        201  MISS:          5
Heartbeat CPU 0 instructions: 74000003 cycles: 22390451 heartbeat IPC: 2.42467 cumulative IPC: 2.42665 (Simulation time: 0 hr 34 min 56 sec) 

Region of Interest Statistics
cpu0_DTLB TOTAL     ACCESS:    2818340  HIT:    2811412  MISS:       6928
cpu0_DTLB LOAD      ACCESS:    2169056  HIT:    2163849  MISS:       5207
cpu0_DTLB RFO       ACCESS:     649284  HIT:     647563  MISS:       1721
cpu0_DTLB PREFETCH  ACCESS:          0  HIT:          0  MISS:          0
cpu0_DTLB WRITEBACK ACCESS:          0  HIT:          0  MISS:          0
cpu0_ITLB TOTAL     ACCESS:    2205808  HIT:    2205808  MISS:          0
cpu0_ITLB LOAD      ACCESS:    2205808  HIT:    2205808  MISS:          0
cpu0_ITLB RFO       ACCESS:          0  HIT:          0  MISS:          0
cpu0_ITLB PREFETCH  ACCESS:          0  HIT:          0  MISS:          0
cpu0_ITLB WRITEBACK ACCESS:          0  HIT:          0  MISS:          0
cpu0_L1I TOTAL     ACCESS:     176148  HIT:     176148  MISS:          0
cpu0_L1I LOAD      ACCESS:     176148  HIT:     176148  MISS:          0
cpu0_L1I RFO       ACCESS:          0  HIT:          0  MISS:          0
cpu0_L1I PREFETCH  ACCESS:          0  HIT:          0  MISS:          0
cpu0_L1I WRITEBACK ACCESS:          0  HIT:          0  MISS:          0
cpu0_STLB TOTAL     ACCESS:       6928  HIT:       6808  MISS:        120
cpu0_STLB LOAD      ACCESS:       5207  HIT:       5090  MISS:        117
cpu0_STLB RFO       ACCESS:       1721  HIT:       1718  MISS:          3
cpu0_STLB PREFETCH  ACCESS:          0  HIT:          0  MISS:          0
cpu0_STLB WRITEBACK ACCESS:          0  HIT:          0  MISS:          0
cpu0_L1D TOTAL     ACCESS:    3137381  HIT:    3129753  MISS:       7628
cpu0_L1D LOAD      ACCESS:    1557425  HIT:    1550032  MISS:       7393
cpu0_L1D RFO       ACCESS:    1579847  HIT:    1579624  MISS:        223
cpu0_L1D PREFETCH  ACCESS:          0  HIT:          0  MISS:          0
cpu0_L1D WRITEBACK ACCESS:          0  HIT:          0  MISS:          0
cpu0_L2C TOTAL     ACCESS:       7854  HIT:        990  MISS:       6864
cpu0_L2C LOAD      ACCESS:       7393  HIT:        749  MISS:       6644
cpu0_L2C RFO       ACCESS:        223  HIT:          5  MISS:        218
cpu0_L2C PREFETCH  ACCESS:          0  HIT:          0  MISS:          0
cpu0_L2C WRITEBACK ACCESS:        226  HIT:        224  MISS:          2
LLC TOTAL     ACCESS:       7079  HIT:        212  MISS:       6867
LLC LOAD      ACCESS:       6644  HIT:          0  MISS:       6644
LLC RFO       ACCESS:        218  HIT:          0  MISS:        218
LLC PREFETCH  ACCESS:          0  HIT:          0  MISS:          0
LLC WRITEBACK ACCESS:        217  HIT:        212  MISS:          5
Heartbeat CPU 0 instructions: 76000002 cycles: 23211110 heartbeat IPC: 2.43706 cumulative IPC: 2.42745 (Simulation time: 0 hr 35 min 48 sec) 

Region of Interest Statistics
cpu0_DTLB TOTAL     ACCESS:    3051592  HIT:    3044407  MISS:       7185
cpu0_DTLB LOAD      ACCESS:    2349006  HIT:    2343608  MISS:       5398
cpu0_DTLB RFO       ACCESS:     702586  HIT:     700799  MISS:       1787
cpu0_DTLB PREFETCH  ACCESS:          0  HIT:          0  MISS:          0
cpu0_DTLB WRITEBACK ACCESS:          0  HIT:          0  MISS:          0
cpu0_ITLB TOTAL     ACCESS:    2389044  HIT:    2389044  MISS:          0
cpu0_ITLB LOAD      ACCESS:    2389044  HIT:    2389044  MISS:          0
cpu0_ITLB RFO       ACCESS:          0  HIT:          0  MISS:          0
cpu0_ITLB PREFETCH  ACCESS:          0  HIT:          0  MISS:          0
cpu0_ITLB WRITEBACK ACCESS:          0  HIT:          0  MISS:          0
cpu0_L1I TOTAL     ACCESS:     191041  HIT:     191041  MISS:          0
cpu0_L1I LOAD      ACCESS:     191041  HIT:     191041  MISS:          0
cpu0_L1I RFO       ACCESS:          0  HIT:          0  MISS:          0
cpu0_L1I PREFETCH  ACCESS:          0  HIT:          0  MISS:          0
cpu0_L1I WRITEBACK ACCESS:          0  HIT:          0  MISS:          0
cpu0_STLB TOTAL     ACCESS:       7185  HIT:       7052  MISS:        133
cpu0_STLB LOAD      ACCESS:       5398  HIT:       5268  MISS:        130
cpu0_STLB RFO       ACCESS:       1787  HIT:       1784  MISS:          3
cpu0_STLB PREFETCH  ACCESS:          0  HIT:          0  MISS:          0
cpu0_STLB WRITEBACK ACCESS:          0  HIT:          0  MISS:          0
cpu0_L1D TOTAL     ACCESS:    3396453  HIT:    3388185  MISS:       8268
cpu0_L1D LOAD      ACCESS:    1686364  HIT:    1678353  MISS:       8011
cpu0_L1D RFO       ACCESS:    1709969  HIT:    1709725  MISS:        244
cpu0_L1D PREFETCH  ACCESS:          0  HIT:          0  MISS:          0
cpu0_L1D WRITEBACK ACCESS:          0  HIT:          0  MISS:          0
cpu0_L2C TOTAL     ACCESS:       8511  HIT:       1075  MISS:       7436
cpu0_L2C LOAD      ACCESS:       8011  HIT:        816  MISS:       7195
cpu0_L2C RFO       ACCESS:        244  HIT:          5  MISS:        239
cpu0_L2C PREFETCH  ACCESS:          0  HIT:          0  MISS:          0
cpu0_L2C WRITEBACK ACCESS:        243  HIT:        241  MISS:          2
LLC TOTAL     ACCESS:       7670  HIT:        230  MISS:       7440
LLC LOAD      ACCESS:       7195  HIT:          0  MISS:       7195
LLC RFO       ACCESS:        239  HIT:          0  MISS:        239
LLC PREFETCH  ACCESS:          0  HIT:          0  MISS:          0
LLC WRITEBACK ACCESS:        236  HIT:        230  MISS:          6
Heartbeat CPU 0 instructions: 78000002 cycles: 24029531 heartbeat IPC: 2.44373 cumulative IPC: 2.4286 (Simulation time: 0 hr 36 min 41 sec) 

Region of Interest Statistics
cpu0_DTLB TOTAL     ACCESS:    3284569  HIT:    3277310  MISS:       7259
cpu0_DTLB LOAD      ACCESS:    2528819  HIT:    2523367  MISS:       5452
cpu0_DTLB RFO       ACCESS:     755750  HIT:     753943  MISS:       1807
cpu0_DTLB PREFETCH  ACCESS:          0  HIT:          0  MISS:          0
cpu0_DTLB WRITEBACK ACCESS:          0  HIT:          0  MISS:          0
cpu0_ITLB TOTAL     ACCESS:    2571830  HIT:    2571830  MISS:          0
cpu0_ITLB LOAD      ACCESS:    2571830  HIT:    2571830  MISS:          0
cpu0_ITLB RFO       ACCESS:          0  HIT:          0  MISS:          0
cpu0_ITLB PREFETCH  ACCESS:          0  HIT:          0  MISS:          0
cpu0_ITLB WRITEBACK ACCESS:          0  HIT:          0  MISS:          0
cpu0_L1I TOTAL     ACCESS:     206145  HIT:     206145  MISS:          0
cpu0_L1I LOAD      ACCESS:     206145  HIT:     206145  MISS:          0
cpu0_L1I RFO       ACCESS:          0  HIT:          0  MISS:          0
cpu0_L1I PREFETCH  ACCESS:          0  HIT:          0  MISS:          0
cpu0_L1I WRITEBACK ACCESS:          0  HIT:          0  MISS:          0
cpu0_STLB TOTAL     ACCESS:       7259  HIT:       7114  MISS:        145
cpu0_STLB LOAD      ACCESS:       5452  HIT:       5311  MISS:        141
cpu0_STLB RFO       ACCESS:       1807  HIT:       1803  MISS:          4
cpu0_STLB PREFETCH  ACCESS:          0  HIT:          0  MISS:          0
cpu0_STLB WRITEBACK ACCESS:          0  HIT:          0  MISS:          0
cpu0_L1D TOTAL     ACCESS:    3655225  HIT:    3646342  MISS:       8883
cpu0_L1D LOAD      ACCESS:    1815113  HIT:    1806509  MISS:       8604
cpu0_L1D RFO       ACCESS:    1839981  HIT:    1839717  MISS:        264
cpu0_L1D PREFETCH  ACCESS:          0  HIT:          0  MISS:          0
cpu0_L1D WRITEBACK ACCESS:          0  HIT:          0  MISS:          0
cpu0_L2C TOTAL     ACCESS:       9143  HIT:       1161  MISS:       7982
cpu0_L2C LOAD      ACCESS:       8604  HIT:        883  MISS:       7721
cpu0_L2C RFO       ACCESS:        264  HIT:          5  MISS:        259
cpu0_L2C PREFETCH  ACCESS:          0  HIT:          0  MISS:          0
cpu0_L2C WRITEBACK ACCESS:        260  HIT:        258  MISS:          2
LLC TOTAL     ACCESS:       8232  HIT:        246  MISS:       7986
LLC LOAD      ACCESS:       7721  HIT:          0  MISS:       7721
LLC RFO       ACCESS:        259  HIT:          0  MISS:        259
LLC PREFETCH  ACCESS:          0  HIT:          0  MISS:          0
LLC WRITEBACK ACCESS:        252  HIT:        246  MISS:          6
Heartbeat CPU 0 instructions: 80000003 cycles: 24853822 heartbeat IPC: 2.42633 cumulative IPC: 2.42845 (Simulation time: 0 hr 37 min 33 sec) 

Region of Interest Statistics
cpu0_DTLB TOTAL     ACCESS:    3518717  HIT:    3511264  MISS:       7453
cpu0_DTLB LOAD      ACCESS:    2709263  HIT:    2703666  MISS:       5597
cpu0_DTLB RFO       ACCESS:     809454  HIT:     807598  MISS:       1856
cpu0_DTLB PREFETCH  ACCESS:          0  HIT:          0  MISS:          0
cpu0_DTLB WRITEBACK ACCESS:          0  HIT:          0  MISS:          0
cpu0_ITLB TOTAL     ACCESS:    2755236  HIT:    2755236  MISS:          0
cpu0_ITLB LOAD      ACCESS:    2755236  HIT:    2755236  MISS:          0
cpu0_ITLB RFO       ACCESS:          0  HIT:          0  MISS:          0
cpu0_ITLB PREFETCH  ACCESS:          0  HIT:          0  MISS:          0
cpu0_ITLB WRITEBACK ACCESS:          0  HIT:          0  MISS:          0
cpu0_L1I TOTAL     ACCESS:     221010  HIT:     221010  MISS:          0
cpu0_L1I LOAD      ACCESS:     221010  HIT:     221010  MISS:          0
cpu0_L1I RFO       ACCESS:          0  HIT:          0  MISS:          0
cpu0_L1I PREFETCH  ACCESS:          0  HIT:          0  MISS:          0
cpu0_L1I WRITEBACK ACCESS:          0  HIT:          0  MISS:          0
cpu0_STLB TOTAL     ACCESS:       7453  HIT:       7295  MISS:        158
cpu0_STLB LOAD      ACCESS:       5597  HIT:       5443  MISS:        154
cpu0_STLB RFO       ACCESS:       1856  HIT:       1852  MISS:          4
cpu0_STLB PREFETCH  ACCESS:          0  HIT:          0  MISS:          0
cpu0_STLB WRITEBACK ACCESS:          0  HIT:          0  MISS:          0
cpu0_L1D TOTAL     ACCESS:    3915612  HIT:    3906068  MISS:       9544
cpu0_L1D LOAD      ACCESS:    1944494  HIT:    1935248  MISS:       9246
cpu0_L1D RFO       ACCESS:    1970975  HIT:    1970693  MISS:        282
cpu0_L1D PREFETCH  ACCESS:          0  HIT:          0  MISS:          0
cpu0_L1D WRITEBACK ACCESS:          0  HIT:          0  MISS:          0
cpu0_L2C TOTAL     ACCESS:       9826  HIT:       1245  MISS:       8581
cpu0_L2C LOAD      ACCESS:       9246  HIT:        944  MISS:       8302
cpu0_L2C RFO       ACCESS:        282  HIT:          5  MISS:        277
cpu0_L2C PREFETCH  ACCESS:          0  HIT:          0  MISS:          0
cpu0_L2C WRITEBACK ACCESS:        282  HIT:        280  MISS:          2
LLC TOTAL     ACCESS:       8843  HIT:        258  MISS:       8585
LLC LOAD      ACCESS:       8302  HIT:          0  MISS:       8302
LLC RFO       ACCESS:        277  HIT:          0  MISS:        277
LLC PREFETCH  ACCESS:          0  HIT:          0  MISS:          0
LLC WRITEBACK ACCESS:        264  HIT:        258  MISS:          6
Heartbeat CPU 0 instructions: 82000003 cycles: 25679772 heartbeat IPC: 2.42145 cumulative IPC: 2.42801 (Simulation time: 0 hr 38 min 27 sec) 

Region of Interest Statistics
cpu0_DTLB TOTAL     ACCESS:    3752584  HIT:    3744572  MISS:       8012
cpu0_DTLB LOAD      ACCESS:    2889545  HIT:    2883479  MISS:       6066
cpu0_DTLB RFO       ACCESS:     863039  HIT:     861093  MISS:       1946
cpu0_DTLB PREFETCH  ACCESS:          0  HIT:          0  MISS:          0
cpu0_DTLB WRITEBACK ACCESS:          0  HIT:          0  MISS:          0
cpu0_ITLB TOTAL     ACCESS:    2938695  HIT:    2938695  MISS:          0
cpu0_ITLB LOAD      ACCESS:    2938695  HIT:    2938695  MISS:          0
cpu0_ITLB RFO       ACCESS:          0  HIT:          0  MISS:          0
cpu0_ITLB PREFETCH  ACCESS:          0  HIT:          0  MISS:          0
cpu0_ITLB WRITEBACK ACCESS:          0  HIT:          0  MISS:          0
cpu0_L1I TOTAL     ACCESS:     235888  HIT:     235888  MISS:          0
cpu0_L1I LOAD      ACCESS:     235888  HIT:     235888  MISS:          0
cpu0_L1I RFO       ACCESS:          0  HIT:          0  MISS:          0
cpu0_L1I PREFETCH  ACCESS:          0  HIT:          0  MISS:          0
cpu0_L1I WRITEBACK ACCESS:          0  HIT:          0  MISS:          0
cpu0_STLB TOTAL     ACCESS:       8012  HIT:       7844  MISS:        168
cpu0_STLB LOAD      ACCESS:       6066  HIT:       5902  MISS:        164
cpu0_STLB RFO       ACCESS:       1946  HIT:       1942  MISS:          4
cpu0_STLB PREFETCH  ACCESS:          0  HIT:          0  MISS:          0
cpu0_STLB WRITEBACK ACCESS:          0  HIT:          0  MISS:          0
cpu0_L1D TOTAL     ACCESS:    4175625  HIT:    4165423  MISS:      10202
cpu0_L1D LOAD      ACCESS:    2073984  HIT:    2064102  MISS:       9882
cpu0_L1D RFO       ACCESS:    2101490  HIT:    2101188  MISS:        302
cpu0_L1D PREFETCH  ACCESS:          0  HIT:          0  MISS:          0
cpu0_L1D WRITEBACK ACCESS:          0  HIT:          0  MISS:          0
cpu0_L2C TOTAL     ACCESS:      10508  HIT:       1341  MISS:       9167
cpu0_L2C LOAD      ACCESS:       9882  HIT:       1013  MISS:       8869
cpu0_L2C RFO       ACCESS:        302  HIT:          6  MISS:        296
cpu0_L2C PREFETCH  ACCESS:          0  HIT:          0  MISS:          0
cpu0_L2C WRITEBACK ACCESS:        306  HIT:        304  MISS:          2
LLC TOTAL     ACCESS:       9433  HIT:        262  MISS:       9171
LLC LOAD      ACCESS:       8869  HIT:          0  MISS:       8869
LLC RFO       ACCESS:        296  HIT:          0  MISS:        296
LLC PREFETCH  ACCESS:          0  HIT:          0  MISS:          0
LLC WRITEBACK ACCESS:        268  HIT:        262  MISS:          6
Heartbeat CPU 0 instructions: 84000000 cycles: 26502126 heartbeat IPC: 2.43204 cumulative IPC: 2.42825 (Simulation time: 0 hr 39 min 22 sec) 

Region of Interest Statistics
cpu0_DTLB TOTAL     ACCESS:    3986952  HIT:    3978435  MISS:       8517
cpu0_DTLB LOAD      ACCESS:    3070092  HIT:    3063710  MISS:       6382
cpu0_DTLB RFO       ACCESS:     916860  HIT:     914725  MISS:       2135
cpu0_DTLB PREFETCH  ACCESS:          0  HIT:          0  MISS:          0
cpu0_DTLB WRITEBACK ACCESS:          0  HIT:          0  MISS:          0
cpu0_ITLB TOTAL     ACCESS:    3122395  HIT:    3122395  MISS:          0
cpu0_ITLB LOAD      ACCESS:    3122395  HIT:    3122395  MISS:          0
cpu0_ITLB RFO       ACCESS:          0  HIT:          0  MISS:          0
cpu0_ITLB PREFETCH  ACCESS:          0  HIT:          0  MISS:          0
cpu0_ITLB WRITEBACK ACCESS:          0  HIT:          0  MISS:          0
cpu0_L1I TOTAL     ACCESS:     250630  HIT:     250630  MISS:          0
cpu0_L1I LOAD      ACCESS:     250630  HIT:     250630  MISS:          0
cpu0_L1I RFO       ACCESS:          0  HIT:          0  MISS:          0
cpu0_L1I PREFETCH  ACCESS:          0  HIT:          0  MISS:          0
cpu0_L1I WRITEBACK ACCESS:          0  HIT:          0  MISS:          0
cpu0_STLB TOTAL     ACCESS:       8517  HIT:       8346  MISS:        171
cpu0_STLB LOAD      ACCESS:       6382  HIT:       6215  MISS:        167
cpu0_STLB RFO       ACCESS:       2135  HIT:       2131  MISS:          4
cpu0_STLB PREFETCH  ACCESS:          0  HIT:          0  MISS:          0
cpu0_STLB WRITEBACK ACCESS:          0  HIT:          0  MISS:          0
cpu0_L1D TOTAL     ACCESS:    4435994  HIT:    4425175  MISS:      10819
cpu0_L1D LOAD      ACCESS:    2203535  HIT:    2193059  MISS:      10476
cpu0_L1D RFO       ACCESS:    2232305  HIT:    2231981  MISS:        324
cpu0_L1D PREFETCH  ACCESS:          0  HIT:          0  MISS:          0
cpu0_L1D WRITEBACK ACCESS:          0  HIT:          0  MISS:          0
cpu0_L2C TOTAL     ACCESS:      11144  HIT:       1424  MISS:       9720
cpu0_L2C LOAD      ACCESS:      10476  HIT:       1074  MISS:       9402
cpu0_L2C RFO       ACCESS:        324  HIT:         10  MISS:        314
cpu0_L2C PREFETCH  ACCESS:          0  HIT:          0  MISS:          0
cpu0_L2C WRITEBACK ACCESS:        325  HIT:        321  MISS:          4
LLC TOTAL     ACCESS:       9994  HIT:        272  MISS:       9722
LLC LOAD      ACCESS:       9402  HIT:          0  MISS:       9402
LLC RFO       ACCESS:        314  HIT:          0  MISS:        314
LLC PREFETCH  ACCESS:          0  HIT:          0  MISS:          0
LLC WRITEBACK ACCESS:        278  HIT:        272  MISS:          6
Heartbeat CPU 0 instructions: 86000002 cycles: 27322748 heartbeat IPC: 2.43718 cumulative IPC: 2.42874 (Simulation time: 0 hr 40 min 18 sec) 

Region of Interest Statistics
cpu0_DTLB TOTAL     ACCESS:    4219930  HIT:    4210864  MISS:       9066
cpu0_DTLB LOAD      ACCESS:    3249931  HIT:    3243197  MISS:       6734
cpu0_DTLB RFO       ACCESS:     969999  HIT:     967667  MISS:       2332
cpu0_DTLB PREFETCH  ACCESS:          0  HIT:          0  MISS:          0
cpu0_DTLB WRITEBACK ACCESS:          0  HIT:          0  MISS:          0
cpu0_ITLB TOTAL     ACCESS:    3305247  HIT:    3305247  MISS:          0
cpu0_ITLB LOAD      ACCESS:    3305247  HIT:    3305247  MISS:          0
cpu0_ITLB RFO       ACCESS:          0  HIT:          0  MISS:          0
cpu0_ITLB PREFETCH  ACCESS:          0  HIT:          0  MISS:          0
cpu0_ITLB WRITEBACK ACCESS:          0  HIT:          0  MISS:          0
cpu0_L1I TOTAL     ACCESS:     265760  HIT:     265760  MISS:          0
cpu0_L1I LOAD      ACCESS:     265760  HIT:     265760  MISS:          0
cpu0_L1I RFO       ACCESS:          0  HIT:          0  MISS:          0
cpu0_L1I PREFETCH  ACCESS:          0  HIT:          0  MISS:          0
cpu0_L1I WRITEBACK ACCESS:          0  HIT:          0  MISS:          0
cpu0_STLB TOTAL     ACCESS:       9066  HIT:       8881  MISS:        185
cpu0_STLB LOAD      ACCESS:       6734  HIT:       6554  MISS:        180
cpu0_STLB RFO       ACCESS:       2332  HIT:       2327  MISS:          5
cpu0_STLB PREFETCH  ACCESS:          0  HIT:          0  MISS:          0
cpu0_STLB WRITEBACK ACCESS:          0  HIT:          0  MISS:          0
cpu0_L1D TOTAL     ACCESS:    4694872  HIT:    4683364  MISS:      11508
cpu0_L1D LOAD      ACCESS:    2332550  HIT:    2321405  MISS:      11145
cpu0_L1D RFO       ACCESS:    2362155  HIT:    2361812  MISS:        343
cpu0_L1D PREFETCH  ACCESS:          0  HIT:          0  MISS:          0
cpu0_L1D WRITEBACK ACCESS:          0  HIT:          0  MISS:          0
cpu0_L2C TOTAL     ACCESS:      11852  HIT:       1529  MISS:      10323
cpu0_L2C LOAD      ACCESS:      11145  HIT:       1159  MISS:       9986
cpu0_L2C RFO       ACCESS:        343  HIT:         11  MISS:        332
cpu0_L2C PREFETCH  ACCESS:          0  HIT:          0  MISS:          0
cpu0_L2C WRITEBACK ACCESS:        344  HIT:        339  MISS:          5
LLC TOTAL     ACCESS:      10615  HIT:        291  MISS:      10324
LLC LOAD      ACCESS:       9986  HIT:          0  MISS:       9986
LLC RFO       ACCESS:        332  HIT:          0  MISS:        332
LLC PREFETCH  ACCESS:          0  HIT:          0  MISS:          0
LLC WRITEBACK ACCESS:        297  HIT:        291  MISS:          6
Heartbeat CPU 0 instructions: 88000002 cycles: 28146202 heartbeat IPC: 2.42879 cumulative IPC: 2.42875 (Simulation time: 0 hr 41 min 12 sec) 

Region of Interest Statistics
cpu0_DTLB TOTAL     ACCESS:    4452833  HIT:    4443122  MISS:       9711
cpu0_DTLB LOAD      ACCESS:    3429709  HIT:    3422491  MISS:       7218
cpu0_DTLB RFO       ACCESS:    1023124  HIT:    1020631  MISS:       2493
cpu0_DTLB PREFETCH  ACCESS:          0  HIT:          0  MISS:          0
cpu0_DTLB WRITEBACK ACCESS:          0  HIT:          0  MISS:          0
cpu0_ITLB TOTAL     ACCESS:    3488387  HIT:    3488387  MISS:          0
cpu0_ITLB LOAD      ACCESS:    3488387  HIT:    3488387  MISS:          0
cpu0_ITLB RFO       ACCESS:          0  HIT:          0  MISS:          0
cpu0_ITLB PREFETCH  ACCESS:          0  HIT:          0  MISS:          0
cpu0_ITLB WRITEBACK ACCESS:          0  HIT:          0  MISS:          0
cpu0_L1I TOTAL     ACCESS:     280636  HIT:     280636  MISS:          0
cpu0_L1I LOAD      ACCESS:     280636  HIT:     280636  MISS:          0
cpu0_L1I RFO       ACCESS:          0  HIT:          0  MISS:          0
cpu0_L1I PREFETCH  ACCESS:          0  HIT:          0  MISS:          0
cpu0_L1I WRITEBACK ACCESS:          0  HIT:          0  MISS:          0
cpu0_STLB TOTAL     ACCESS:       9711  HIT:       9512  MISS:        199
cpu0_STLB LOAD      ACCESS:       7218  HIT:       7024  MISS:        194
cpu0_STLB RFO       ACCESS:       2493  HIT:       2488  MISS:          5
cpu0_STLB PREFETCH  ACCESS:          0  HIT:          0  MISS:          0
cpu0_STLB WRITEBACK ACCESS:          0  HIT:          0  MISS:          0
cpu0_L1D TOTAL     ACCESS:    4953228  HIT:    4941043  MISS:      12185
cpu0_L1D LOAD      ACCESS:    2461533  HIT:    2449731  MISS:      11802
cpu0_L1D RFO       ACCESS:    2491515  HIT:    2491154  MISS:        361
cpu0_L1D PREFETCH  ACCESS:          0  HIT:          0  MISS:          0
cpu0_L1D WRITEBACK ACCESS:          0  HIT:          0  MISS:          0
cpu0_L2C TOTAL     ACCESS:      12551  HIT:       1633  MISS:      10918
cpu0_L2C LOAD      ACCESS:      11802  HIT:       1239  MISS:      10563
cpu0_L2C RFO       ACCESS:        361  HIT:         11  MISS:        350
cpu0_L2C PREFETCH  ACCESS:          0  HIT:          0  MISS:          0
cpu0_L2C WRITEBACK ACCESS:        366  HIT:        361  MISS:          5
LLC TOTAL     ACCESS:      11226  HIT:        307  MISS:      10919
LLC LOAD      ACCESS:      10563  HIT:          0  MISS:      10563
LLC RFO       ACCESS:        350  HIT:          0  MISS:        350
LLC PREFETCH  ACCESS:          0  HIT:          0  MISS:          0
LLC WRITEBACK ACCESS:        313  HIT:        307  MISS:          6
Heartbeat CPU 0 instructions: 90000004 cycles: 28969872 heartbeat IPC: 2.42816 cumulative IPC: 2.42872 (Simulation time: 0 hr 42 min 6 sec) 

Region of Interest Statistics
cpu0_DTLB TOTAL     ACCESS:    4685793  HIT:    4675444  MISS:      10349
cpu0_DTLB LOAD      ACCESS:    3609559  HIT:    3601831  MISS:       7728
cpu0_DTLB RFO       ACCESS:    1076234  HIT:    1073613  MISS:       2621
cpu0_DTLB PREFETCH  ACCESS:          0  HIT:          0  MISS:          0
cpu0_DTLB WRITEBACK ACCESS:          0  HIT:          0  MISS:          0
cpu0_ITLB TOTAL     ACCESS:    3671982  HIT:    3671982  MISS:          0
cpu0_ITLB LOAD      ACCESS:    3671982  HIT:    3671982  MISS:          0
cpu0_ITLB RFO       ACCESS:          0  HIT:          0  MISS:          0
cpu0_ITLB PREFETCH  ACCESS:          0  HIT:          0  MISS:          0
cpu0_ITLB WRITEBACK ACCESS:          0  HIT:          0  MISS:          0
cpu0_L1I TOTAL     ACCESS:     295317  HIT:     295317  MISS:          0
cpu0_L1I LOAD      ACCESS:     295317  HIT:     295317  MISS:          0
cpu0_L1I RFO       ACCESS:          0  HIT:          0  MISS:          0
cpu0_L1I PREFETCH  ACCESS:          0  HIT:          0  MISS:          0
cpu0_L1I WRITEBACK ACCESS:          0  HIT:          0  MISS:          0
cpu0_STLB TOTAL     ACCESS:      10349  HIT:      10141  MISS:        208
cpu0_STLB LOAD      ACCESS:       7728  HIT:       7526  MISS:        202
cpu0_STLB RFO       ACCESS:       2621  HIT:       2615  MISS:          6
cpu0_STLB PREFETCH  ACCESS:          0  HIT:          0  MISS:          0
cpu0_STLB WRITEBACK ACCESS:          0  HIT:          0  MISS:          0
cpu0_L1D TOTAL     ACCESS:    5211715  HIT:    5198877  MISS:      12838
cpu0_L1D LOAD      ACCESS:    2590900  HIT:    2578466  MISS:      12434
cpu0_L1D RFO       ACCESS:    2620627  HIT:    2620248  MISS:        379
cpu0_L1D PREFETCH  ACCESS:          0  HIT:          0  MISS:          0
cpu0_L1D WRITEBACK ACCESS:          0  HIT:          0  MISS:          0
cpu0_L2C TOTAL     ACCESS:      13221  HIT:       1730  MISS:      11491
cpu0_L2C LOAD      ACCESS:      12434  HIT:       1316  MISS:      11118
cpu0_L2C RFO       ACCESS:        379  HIT:         11  MISS:        368
cpu0_L2C PREFETCH  ACCESS:          0  HIT:          0  MISS:          0
cpu0_L2C WRITEBACK ACCESS:        383  HIT:        378  MISS:          5
LLC TOTAL     ACCESS:      11822  HIT:        330  MISS:      11492
LLC LOAD      ACCESS:      11118  HIT:          0  MISS:      11118
LLC RFO       ACCESS:        368  HIT:          0  MISS:        368
LLC PREFETCH  ACCESS:          0  HIT:          0  MISS:          0
LLC WRITEBACK ACCESS:        336  HIT:        330  MISS:          6
Heartbeat CPU 0 instructions: 92000001 cycles: 29795283 heartbeat IPC: 2.42303 cumulative IPC: 2.42844 (Simulation time: 0 hr 42 min 59 sec) 

Region of Interest Statistics
cpu0_DTLB TOTAL     ACCESS:    4919173  HIT:    4908365  MISS:      10808
cpu0_DTLB LOAD      ACCESS:    3789714  HIT:    3781665  MISS:       8049
cpu0_DTLB RFO       ACCESS:    1129459  HIT:    1126700  MISS:       2759
cpu0_DTLB PREFETCH  ACCESS:          0  HIT:          0  MISS:          0
cpu0_DTLB WRITEBACK ACCESS:          0  HIT:          0  MISS:          0
cpu0_ITLB TOTAL     ACCESS:    3855417  HIT:    3855417  MISS:          0
cpu0_ITLB LOAD      ACCESS:    3855417  HIT:    3855417  MISS:          0
cpu0_ITLB RFO       ACCESS:          0  HIT:          0  MISS:          0
cpu0_ITLB PREFETCH  ACCESS:          0  HIT:          0  MISS:          0
cpu0_ITLB WRITEBACK ACCESS:          0  HIT:          0  MISS:          0
cpu0_L1I TOTAL     ACCESS:     310082  HIT:     310082  MISS:          0
cpu0_L1I LOAD      ACCESS:     310082  HIT:     310082  MISS:          0
cpu0_L1I RFO       ACCESS:          0  HIT:          0  MISS:          0
cpu0_L1I PREFETCH  ACCESS:          0  HIT:          0  MISS:          0
cpu0_L1I WRITEBACK ACCESS:          0  HIT:          0  MISS:          0
cpu0_STLB TOTAL     ACCESS:      10808  HIT:      10592  MISS:        216
cpu0_STLB LOAD      ACCESS:       8049  HIT:       7840  MISS:        209
cpu0_STLB RFO       ACCESS:       2759  HIT:       2752  MISS:          7
cpu0_STLB PREFETCH  ACCESS:          0  HIT:          0  MISS:          0
cpu0_STLB WRITEBACK ACCESS:          0  HIT:          0  MISS:          0
cpu0_L1D TOTAL     ACCESS:    5470941  HIT:    5457459  MISS:      13482
cpu0_L1D LOAD      ACCESS:    2720462  HIT:    2707403  MISS:      13059
cpu0_L1D RFO       ACCESS:    2750283  HIT:    2749886  MISS:        397
cpu0_L1D PREFETCH  ACCESS:          0  HIT:          0  MISS:          0
cpu0_L1D WRITEBACK ACCESS:          0  HIT:          0  MISS:          0
cpu0_L2C TOTAL     ACCESS:      13878  HIT:       1814  MISS:      12064
cpu0_L2C LOAD      ACCESS:      13059  HIT:       1386  MISS:      11673
cpu0_L2C RFO       ACCESS:        397  HIT:         11  MISS:        386
cpu0_L2C PREFETCH  ACCESS:          0  HIT:          0  MISS:          0
cpu0_L2C WRITEBACK ACCESS:        396  HIT:        391  MISS:          5
LLC TOTAL     ACCESS:      12425  HIT:        360  MISS:      12065
LLC LOAD      ACCESS:      11673  HIT:          0  MISS:      11673
LLC RFO       ACCESS:        386  HIT:          0  MISS:        386
LLC PREFETCH  ACCESS:          0  HIT:          0  MISS:          0
LLC WRITEBACK ACCESS:        366  HIT:        360  MISS:          6
Heartbeat CPU 0 instructions: 94000003 cycles: 30622983 heartbeat IPC: 2.41634 cumulative IPC: 2.42789 (Simulation time: 0 hr 43 min 53 sec) 

Region of Interest Statistics
cpu0_DTLB TOTAL     ACCESS:    5153253  HIT:    5141589  MISS:      11664
cpu0_DTLB LOAD      ACCESS:    3970287  HIT:    3961565  MISS:       8722
cpu0_DTLB RFO       ACCESS:    1182966  HIT:    1180024  MISS:       2942
cpu0_DTLB PREFETCH  ACCESS:          0  HIT:          0  MISS:          0
cpu0_DTLB WRITEBACK ACCESS:          0  HIT:          0  MISS:          0
cpu0_ITLB TOTAL     ACCESS:    4039633  HIT:    4039633  MISS:          0
cpu0_ITLB LOAD      ACCESS:    4039633  HIT:    4039633  MISS:          0
cpu0_ITLB RFO       ACCESS:          0  HIT:          0  MISS:          0
cpu0_ITLB PREFETCH  ACCESS:          0  HIT:          0  MISS:          0
cpu0_ITLB WRITEBACK ACCESS:          0  HIT:          0  MISS:          0
cpu0_L1I TOTAL     ACCESS:     324407  HIT:     324407  MISS:          0
cpu0_L1I LOAD      ACCESS:     324407  HIT:     324407  MISS:          0
cpu0_L1I RFO       ACCESS:          0  HIT:          0  MISS:          0
cpu0_L1I PREFETCH  ACCESS:          0  HIT:          0  MISS:          0
cpu0_L1I WRITEBACK ACCESS:          0  HIT:          0  MISS:          0
cpu0_STLB TOTAL     ACCESS:      11664  HIT:      11446  MISS:        218
cpu0_STLB LOAD      ACCESS:       8722  HIT:       8511  MISS:        211
cpu0_STLB RFO       ACCESS:       2942  HIT:       2935  MISS:          7
cpu0_STLB PREFETCH  ACCESS:          0  HIT:          0  MISS:          0
cpu0_STLB WRITEBACK ACCESS:          0  HIT:          0  MISS:          0
cpu0_L1D TOTAL     ACCESS:    5730679  HIT:    5716585  MISS:      14094
cpu0_L1D LOAD      ACCESS:    2850578  HIT:    2836926  MISS:      13652
cpu0_L1D RFO       ACCESS:    2879903  HIT:    2879488  MISS:        415
cpu0_L1D PREFETCH  ACCESS:          0  HIT:          0  MISS:          0
cpu0_L1D WRITEBACK ACCESS:          0  HIT:          0  MISS:          0
cpu0_L2C TOTAL     ACCESS:      14506  HIT:       1899  MISS:      12607
cpu0_L2C LOAD      ACCESS:      13652  HIT:       1454  MISS:      12198
cpu0_L2C RFO       ACCESS:        415  HIT:         11  MISS:        404
cpu0_L2C PREFETCH  ACCESS:          0  HIT:          0  MISS:          0
cpu0_L2C WRITEBACK ACCESS:        412  HIT:        407  MISS:          5
LLC TOTAL     ACCESS:      12987  HIT:        379  MISS:      12608
LLC LOAD      ACCESS:      12198  HIT:          0  MISS:      12198
LLC RFO       ACCESS:        404  HIT:          0  MISS:        404
LLC PREFETCH  ACCESS:          0  HIT:          0  MISS:          0
LLC WRITEBACK ACCESS:        385  HIT:        379  MISS:          6
Heartbeat CPU 0 instructions: 96000000 cycles: 31449437 heartbeat IPC: 2.41997 cumulative IPC: 2.42755 (Simulation time: 0 hr 44 min 47 sec) 

Region of Interest Statistics
cpu0_DTLB TOTAL     ACCESS:    5386219  HIT:    5373529  MISS:      12690
cpu0_DTLB LOAD      ACCESS:    4150145  HIT:    4140683  MISS:       9462
cpu0_DTLB RFO       ACCESS:    1236074  HIT:    1232846  MISS:       3228
cpu0_DTLB PREFETCH  ACCESS:          0  HIT:          0  MISS:          0
cpu0_DTLB WRITEBACK ACCESS:          0  HIT:          0  MISS:          0
cpu0_ITLB TOTAL     ACCESS:    4223227  HIT:    4223227  MISS:          0
cpu0_ITLB LOAD      ACCESS:    4223227  HIT:    4223227  MISS:          0
cpu0_ITLB RFO       ACCESS:          0  HIT:          0  MISS:          0
cpu0_ITLB PREFETCH  ACCESS:          0  HIT:          0  MISS:          0
cpu0_ITLB WRITEBACK ACCESS:          0  HIT:          0  MISS:          0
cpu0_L1I TOTAL     ACCESS:     338827  HIT:     338827  MISS:          0
cpu0_L1I LOAD      ACCESS:     338827  HIT:     338827  MISS:          0
cpu0_L1I RFO       ACCESS:          0  HIT:          0  MISS:          0
cpu0_L1I PREFETCH  ACCESS:          0  HIT:          0  MISS:          0
cpu0_L1I WRITEBACK ACCESS:          0  HIT:          0  MISS:          0
cpu0_STLB TOTAL     ACCESS:      12690  HIT:      12466  MISS:        224
cpu0_STLB LOAD      ACCESS:       9462  HIT:       9245  MISS:        217
cpu0_STLB RFO       ACCESS:       3228  HIT:       3221  MISS:          7
cpu0_STLB PREFETCH  ACCESS:          0  HIT:          0  MISS:          0
cpu0_STLB WRITEBACK ACCESS:          0  HIT:          0  MISS:          0
cpu0_L1D TOTAL     ACCESS:    5989128  HIT:    5974353  MISS:      14775
cpu0_L1D LOAD      ACCESS:    2980230  HIT:    2965914  MISS:      14316
cpu0_L1D RFO       ACCESS:    3008695  HIT:    3008264  MISS:        431
cpu0_L1D PREFETCH  ACCESS:          0  HIT:          0  MISS:          0
cpu0_L1D WRITEBACK ACCESS:          0  HIT:          0  MISS:          0
cpu0_L2C TOTAL     ACCESS:      15211  HIT:       2015  MISS:      13196
cpu0_L2C LOAD      ACCESS:      14316  HIT:       1545  MISS:      12771
cpu0_L2C RFO       ACCESS:        431  HIT:         11  MISS:        420
cpu0_L2C PREFETCH  ACCESS:          0  HIT:          0  MISS:          0
cpu0_L2C WRITEBACK ACCESS:        436  HIT:        431  MISS:          5
LLC TOTAL     ACCESS:      13592  HIT:        395  MISS:      13197
LLC LOAD      ACCESS:      12771  HIT:          0  MISS:      12771
LLC RFO       ACCESS:        420  HIT:          0  MISS:        420
LLC PREFETCH  ACCESS:          0  HIT:          0  MISS:          0
LLC WRITEBACK ACCESS:        401  HIT:        395  MISS:          6
Heartbeat CPU 0 instructions: 98000000 cycles: 32274204 heartbeat IPC: 2.42493 cumulative IPC: 2.42744 (Simulation time: 0 hr 45 min 41 sec) 

Region of Interest Statistics
cpu0_DTLB TOTAL     ACCESS:    5619431  HIT:    5605806  MISS:      13625
cpu0_DTLB LOAD      ACCESS:    4330242  HIT:    4320167  MISS:      10075
cpu0_DTLB RFO       ACCESS:    1289189  HIT:    1285639  MISS:       3550
cpu0_DTLB PREFETCH  ACCESS:          0  HIT:          0  MISS:          0
cpu0_DTLB WRITEBACK ACCESS:          0  HIT:          0  MISS:          0
cpu0_ITLB TOTAL     ACCESS:    4406654  HIT:    4406654  MISS:          0
cpu0_ITLB LOAD      ACCESS:    4406654  HIT:    4406654  MISS:          0
cpu0_ITLB RFO       ACCESS:          0  HIT:          0  MISS:          0
cpu0_ITLB PREFETCH  ACCESS:          0  HIT:          0  MISS:          0
cpu0_ITLB WRITEBACK ACCESS:          0  HIT:          0  MISS:          0
cpu0_L1I TOTAL     ACCESS:     353470  HIT:     353470  MISS:          0
cpu0_L1I LOAD      ACCESS:     353470  HIT:     353470  MISS:          0
cpu0_L1I RFO       ACCESS:          0  HIT:          0  MISS:          0
cpu0_L1I PREFETCH  ACCESS:          0  HIT:          0  MISS:          0
cpu0_L1I WRITEBACK ACCESS:          0  HIT:          0  MISS:          0
cpu0_STLB TOTAL     ACCESS:      13625  HIT:      13397  MISS:        228
cpu0_STLB LOAD      ACCESS:      10075  HIT:       9854  MISS:        221
cpu0_STLB RFO       ACCESS:       3550  HIT:       3543  MISS:          7
cpu0_STLB PREFETCH  ACCESS:          0  HIT:          0  MISS:          0
cpu0_STLB WRITEBACK ACCESS:          0  HIT:          0  MISS:          0
cpu0_L1D TOTAL     ACCESS:    6248119  HIT:    6232691  MISS:      15428
cpu0_L1D LOAD      ACCESS:    3109684  HIT:    3094735  MISS:      14949
cpu0_L1D RFO       ACCESS:    3138228  HIT:    3137778  MISS:        450
cpu0_L1D PREFETCH  ACCESS:          0  HIT:          0  MISS:          0
cpu0_L1D WRITEBACK ACCESS:          0  HIT:          0  MISS:          0
cpu0_L2C TOTAL     ACCESS:      15882  HIT:       2125  MISS:      13757
cpu0_L2C LOAD      ACCESS:      14949  HIT:       1635  MISS:      13314
cpu0_L2C RFO       ACCESS:        450  HIT:         12  MISS:        438
cpu0_L2C PREFETCH  ACCESS:          0  HIT:          0  MISS:          0
cpu0_L2C WRITEBACK ACCESS:        454  HIT:        449  MISS:          5
LLC TOTAL     ACCESS:      14169  HIT:        411  MISS:      13758
LLC LOAD      ACCESS:      13314  HIT:          0  MISS:      13314
LLC RFO       ACCESS:        438  HIT:          0  MISS:        438
LLC PREFETCH  ACCESS:          0  HIT:          0  MISS:          0
LLC WRITEBACK ACCESS:        417  HIT:        411  MISS:          6
Heartbeat CPU 0 instructions: 100000002 cycles: 33092984 heartbeat IPC: 2.44266 cumulative IPC: 2.42804 (Simulation time: 0 hr 46 min 34 sec) 

Region of Interest Statistics
cpu0_DTLB TOTAL     ACCESS:    5851526  HIT:    5837086  MISS:      14440
cpu0_DTLB LOAD      ACCESS:    4509675  HIT:    4499094  MISS:      10581
cpu0_DTLB RFO       ACCESS:    1341851  HIT:    1337992  MISS:       3859
cpu0_DTLB PREFETCH  ACCESS:          0  HIT:          0  MISS:          0
cpu0_DTLB WRITEBACK ACCESS:          0  HIT:          0  MISS:          0
cpu0_ITLB TOTAL     ACCESS:    4589599  HIT:    4589599  MISS:          0
cpu0_ITLB LOAD      ACCESS:    4589599  HIT:    4589599  MISS:          0
cpu0_ITLB RFO       ACCESS:          0  HIT:          0  MISS:          0
cpu0_ITLB PREFETCH  ACCESS:          0  HIT:          0  MISS:          0
cpu0_ITLB WRITEBACK ACCESS:          0  HIT:          0  MISS:          0
cpu0_L1I TOTAL     ACCESS:     368358  HIT:     368358  MISS:          0
cpu0_L1I LOAD      ACCESS:     368358  HIT:     368358  MISS:          0
cpu0_L1I RFO       ACCESS:          0  HIT:          0  MISS:          0
cpu0_L1I PREFETCH  ACCESS:          0  HIT:          0  MISS:          0
cpu0_L1I WRITEBACK ACCESS:          0  HIT:          0  MISS:          0
cpu0_STLB TOTAL     ACCESS:      14440  HIT:      14208  MISS:        232
cpu0_STLB LOAD      ACCESS:      10581  HIT:      10356  MISS:        225
cpu0_STLB RFO       ACCESS:       3859  HIT:       3852  MISS:          7
cpu0_STLB PREFETCH  ACCESS:          0  HIT:          0  MISS:          0
cpu0_STLB WRITEBACK ACCESS:          0  HIT:          0  MISS:          0
cpu0_L1D TOTAL     ACCESS:    6505801  HIT:    6489750  MISS:      16051
cpu0_L1D LOAD      ACCESS:    3238625  HIT:    3223075  MISS:      15550
cpu0_L1D RFO       ACCESS:    3266965  HIT:    3266494  MISS:        471
cpu0_L1D PREFETCH  ACCESS:          0  HIT:          0  MISS:          0
cpu0_L1D WRITEBACK ACCESS:          0  HIT:          0  MISS:          0
cpu0_L2C TOTAL     ACCESS:      16519  HIT:       2221  MISS:      14298
cpu0_L2C LOAD      ACCESS:      15550  HIT:       1716  MISS:      13834
cpu0_L2C RFO       ACCESS:        471  HIT:         13  MISS:        458
cpu0_L2C PREFETCH  ACCESS:          0  HIT:          0  MISS:          0
cpu0_L2C WRITEBACK ACCESS:        468  HIT:        462  MISS:          6
LLC TOTAL     ACCESS:      14742  HIT:        444  MISS:      14298
LLC LOAD      ACCESS:      13834  HIT:          0  MISS:      13834
LLC RFO       ACCESS:        458  HIT:          0  MISS:        458
LLC PREFETCH  ACCESS:          0  HIT:          0  MISS:          0
LLC WRITEBACK ACCESS:        450  HIT:        444  MISS:          6
Heartbeat CPU 0 instructions: 102000004 cycles: 33918552 heartbeat IPC: 2.42258 cumulative IPC: 2.42783 (Simulation time: 0 hr 47 min 28 sec) 

Region of Interest Statistics
cpu0_DTLB TOTAL     ACCESS:    6084841  HIT:    6069750  MISS:      15091
cpu0_DTLB LOAD      ACCESS:    4689899  HIT:    4678879  MISS:      11020
cpu0_DTLB RFO       ACCESS:    1394942  HIT:    1390871  MISS:       4071
cpu0_DTLB PREFETCH  ACCESS:          0  HIT:          0  MISS:          0
cpu0_DTLB WRITEBACK ACCESS:          0  HIT:          0  MISS:          0
cpu0_ITLB TOTAL     ACCESS:    4773152  HIT:    4773152  MISS:          0
cpu0_ITLB LOAD      ACCESS:    4773152  HIT:    4773152  MISS:          0
cpu0_ITLB RFO       ACCESS:          0  HIT:          0  MISS:          0
cpu0_ITLB PREFETCH  ACCESS:          0  HIT:          0  MISS:          0
cpu0_ITLB WRITEBACK ACCESS:          0  HIT:          0  MISS:          0
cpu0_L1I TOTAL     ACCESS:     382776  HIT:     382776  MISS:          0
cpu0_L1I LOAD      ACCESS:     382776  HIT:     382776  MISS:          0
cpu0_L1I RFO       ACCESS:          0  HIT:          0  MISS:          0
cpu0_L1I PREFETCH  ACCESS:          0  HIT:          0  MISS:          0
cpu0_L1I WRITEBACK ACCESS:          0  HIT:          0  MISS:          0
cpu0_STLB TOTAL     ACCESS:      15091  HIT:      14853  MISS:        238
cpu0_STLB LOAD      ACCESS:      11020  HIT:      10789  MISS:        231
cpu0_STLB RFO       ACCESS:       4071  HIT:       4064  MISS:          7
cpu0_STLB PREFETCH  ACCESS:          0  HIT:          0  MISS:          0
cpu0_STLB WRITEBACK ACCESS:          0  HIT:          0  MISS:          0
cpu0_L1D TOTAL     ACCESS:    6764636  HIT:    6747902  MISS:      16734
cpu0_L1D LOAD      ACCESS:    3368499  HIT:    3352284  MISS:      16215
cpu0_L1D RFO       ACCESS:    3395921  HIT:    3395434  MISS:        487
cpu0_L1D PREFETCH  ACCESS:          0  HIT:          0  MISS:          0
cpu0_L1D WRITEBACK ACCESS:          0  HIT:          0  MISS:          0
cpu0_L2C TOTAL     ACCESS:      17222  HIT:       2343  MISS:      14879
cpu0_L2C LOAD      ACCESS:      16215  HIT:       1816  MISS:      14399
cpu0_L2C RFO       ACCESS:        487  HIT:         13  MISS:        474
cpu0_L2C PREFETCH  ACCESS:          0  HIT:          0  MISS:          0
cpu0_L2C WRITEBACK ACCESS:        488  HIT:        482  MISS:          6
LLC TOTAL     ACCESS:      15350  HIT:        471  MISS:      14879
LLC LOAD      ACCESS:      14399  HIT:          0  MISS:      14399
LLC RFO       ACCESS:        474  HIT:          0  MISS:        474
LLC PREFETCH  ACCESS:          0  HIT:          0  MISS:          0
LLC WRITEBACK ACCESS:        477  HIT:        471  MISS:          6
Heartbeat CPU 0 instructions: 104000002 cycles: 34737381 heartbeat IPC: 2.44251 cumulative IPC: 2.42837 (Simulation time: 0 hr 48 min 22 sec) 

Region of Interest Statistics
cpu0_DTLB TOTAL     ACCESS:    6317013  HIT:    6301608  MISS:      15405
cpu0_DTLB LOAD      ACCESS:    4869568  HIT:    4858358  MISS:      11210
cpu0_DTLB RFO       ACCESS:    1447445  HIT:    1443250  MISS:       4195
cpu0_DTLB PREFETCH  ACCESS:          0  HIT:          0  MISS:          0
cpu0_DTLB WRITEBACK ACCESS:          0  HIT:          0  MISS:          0
cpu0_ITLB TOTAL     ACCESS:    4956642  HIT:    4956642  MISS:          0
cpu0_ITLB LOAD      ACCESS:    4956642  HIT:    4956642  MISS:          0
cpu0_ITLB RFO       ACCESS:          0  HIT:          0  MISS:          0
cpu0_ITLB PREFETCH  ACCESS:          0  HIT:          0  MISS:          0
cpu0_ITLB WRITEBACK ACCESS:          0  HIT:          0  MISS:          0
cpu0_L1I TOTAL     ACCESS:     397149  HIT:     397149  MISS:          0
cpu0_L1I LOAD      ACCESS:     397149  HIT:     397149  MISS:          0
cpu0_L1I RFO       ACCESS:          0  HIT:          0  MISS:          0
cpu0_L1I PREFETCH  ACCESS:          0  HIT:          0  MISS:          0
cpu0_L1I WRITEBACK ACCESS:          0  HIT:          0  MISS:          0
cpu0_STLB TOTAL     ACCESS:      15405  HIT:      15166  MISS:        239
cpu0_STLB LOAD      ACCESS:      11210  HIT:      10978  MISS:        232
cpu0_STLB RFO       ACCESS:       4195  HIT:       4188  MISS:          7
cpu0_STLB PREFETCH  ACCESS:          0  HIT:          0  MISS:          0
cpu0_STLB WRITEBACK ACCESS:          0  HIT:          0  MISS:          0
cpu0_L1D TOTAL     ACCESS:    7021448  HIT:    7004094  MISS:      17354
cpu0_L1D LOAD      ACCESS:    3497923  HIT:    3481111  MISS:      16812
cpu0_L1D RFO       ACCESS:    3523308  HIT:    3522798  MISS:        510
cpu0_L1D PREFETCH  ACCESS:          0  HIT:          0  MISS:          0
cpu0_L1D WRITEBACK ACCESS:          0  HIT:          0  MISS:          0
cpu0_L2C TOTAL     ACCESS:      17864  HIT:       2461  MISS:      15403
cpu0_L2C LOAD      ACCESS:      16812  HIT:       1907  MISS:      14905
cpu0_L2C RFO       ACCESS:        510  HIT:         18  MISS:        492
cpu0_L2C PREFETCH  ACCESS:          0  HIT:          0  MISS:          0
cpu0_L2C WRITEBACK ACCESS:        510  HIT:        504  MISS:          6
LLC TOTAL     ACCESS:      15897  HIT:        494  MISS:      15403
LLC LOAD      ACCESS:      14905  HIT:          0  MISS:      14905
LLC RFO       ACCESS:        492  HIT:          0  MISS:        492
LLC PREFETCH  ACCESS:          0  HIT:          0  MISS:          0
LLC WRITEBACK ACCESS:        500  HIT:        494  MISS:          6
Heartbeat CPU 0 instructions: 106000002 cycles: 35555076 heartbeat IPC: 2.4459 cumulative IPC: 2.42899 (Simulation time: 0 hr 49 min 13 sec) 

Region of Interest Statistics
cpu0_DTLB TOTAL     ACCESS:    6546682  HIT:    6530941  MISS:      15741
cpu0_DTLB LOAD      ACCESS:    5047936  HIT:    5036513  MISS:      11423
cpu0_DTLB RFO       ACCESS:    1498746  HIT:    1494428  MISS:       4318
cpu0_DTLB PREFETCH  ACCESS:          0  HIT:          0  MISS:          0
cpu0_DTLB WRITEBACK ACCESS:          0  HIT:          0  MISS:          0
cpu0_ITLB TOTAL     ACCESS:    5139697  HIT:    5139697  MISS:          0
cpu0_ITLB LOAD      ACCESS:    5139697  HIT:    5139697  MISS:          0
cpu0_ITLB RFO       ACCESS:          0  HIT:          0  MISS:          0
cpu0_ITLB PREFETCH  ACCESS:          0  HIT:          0  MISS:          0
cpu0_ITLB WRITEBACK ACCESS:          0  HIT:          0  MISS:          0
cpu0_L1I TOTAL     ACCESS:     411397  HIT:     411397  MISS:          0
cpu0_L1I LOAD      ACCESS:     411397  HIT:     411397  MISS:          0
cpu0_L1I RFO       ACCESS:          0  HIT:          0  MISS:          0
cpu0_L1I PREFETCH  ACCESS:          0  HIT:          0  MISS:          0
cpu0_L1I WRITEBACK ACCESS:          0  HIT:          0  MISS:          0
cpu0_STLB TOTAL     ACCESS:      15741  HIT:      15496  MISS:        245
cpu0_STLB LOAD      ACCESS:      11423  HIT:      11185  MISS:        238
cpu0_STLB RFO       ACCESS:       4318  HIT:       4311  MISS:          7
cpu0_STLB PREFETCH  ACCESS:          0  HIT:          0  MISS:          0
cpu0_STLB WRITEBACK ACCESS:          0  HIT:          0  MISS:          0
cpu0_L1D TOTAL     ACCESS:    7274427  HIT:    7256453  MISS:      17974
cpu0_L1D LOAD      ACCESS:    3626267  HIT:    3608854  MISS:      17413
cpu0_L1D RFO       ACCESS:    3647937  HIT:    3647409  MISS:        528
cpu0_L1D PREFETCH  ACCESS:          0  HIT:          0  MISS:          0
cpu0_L1D WRITEBACK ACCESS:          0  HIT:          0  MISS:          0
cpu0_L2C TOTAL     ACCESS:      18506  HIT:       2579  MISS:      15927
cpu0_L2C LOAD      ACCESS:      17413  HIT:       2000  MISS:      15413
cpu0_L2C RFO       ACCESS:        528  HIT:         21  MISS:        507
cpu0_L2C PREFETCH  ACCESS:          0  HIT:          0  MISS:          0
cpu0_L2C WRITEBACK ACCESS:        532  HIT:        525  MISS:          7
LLC TOTAL     ACCESS:      16435  HIT:        508  MISS:      15927
LLC LOAD      ACCESS:      15413  HIT:          0  MISS:      15413
[...]
LLC PREFETCH  ACCESS:          0  HIT:          0  MISS:          0
LLC WRITEBACK ACCESS:     525693  HIT:     305080  MISS:     220613
Finished CPU 0 instructions: 1500000001 cycles: 650263801 cumulative IPC: 2.30676 (Simulation time: 12 hr 57 min 52 sec) 

ChampSim completed all CPUs

Region of Interest Statistics

CPU 0 cumulative IPC: 2.30676 instructions: 1500000001 cycles: 650263801
cpu0_DTLB TOTAL     ACCESS:  182808724  HIT:  181545696  MISS:    1263028
cpu0_DTLB LOAD      ACCESS:  132106746  HIT:  131283225  MISS:     823521
cpu0_DTLB RFO       ACCESS:   50701978  HIT:   50262471  MISS:     439507
cpu0_DTLB PREFETCH  ACCESS:          0  HIT:          0  MISS:          0
cpu0_DTLB WRITEBACK ACCESS:          0  HIT:          0  MISS:          0
cpu0_DTLB TRANSLATION ACCESS:          0  HIT:          0  MISS:          0
cpu0_DTLB PREFETCH  REQUESTED:          0  ISSUED:          0  USEFUL:          0  USELESS:          0
cpu0_DTLB AVERAGE MISS LATENCY: 11.6535 cycles
cpu0_ITLB TOTAL     ACCESS:  105212601  HIT:  105210010  MISS:       2591
cpu0_ITLB LOAD      ACCESS:  105212601  HIT:  105210010  MISS:       2591
cpu0_ITLB RFO       ACCESS:          0  HIT:          0  MISS:          0
cpu0_ITLB PREFETCH  ACCESS:          0  HIT:          0  MISS:          0
cpu0_ITLB WRITEBACK ACCESS:          0  HIT:          0  MISS:          0
cpu0_ITLB TRANSLATION ACCESS:          0  HIT:          0  MISS:          0
cpu0_ITLB PREFETCH  REQUESTED:          0  ISSUED:          0  USEFUL:          0  USELESS:          0
cpu0_ITLB AVERAGE MISS LATENCY: 23.8418 cycles
cpu0_L1I TOTAL     ACCESS:   33905930  HIT:   31740989  MISS:    2164941
cpu0_L1I LOAD      ACCESS:   33905930  HIT:   31740989  MISS:    2164941
cpu0_L1I RFO       ACCESS:          0  HIT:          0  MISS:          0
cpu0_L1I PREFETCH  ACCESS:          0  HIT:          0  MISS:          0
cpu0_L1I WRITEBACK ACCESS:          0  HIT:          0  MISS:          0
cpu0_L1I TRANSLATION ACCESS:          0  HIT:          0  MISS:          0
cpu0_L1I PREFETCH  REQUESTED:          0  ISSUED:          0  USEFUL:          0  USELESS:          0
cpu0_L1I AVERAGE MISS LATENCY: 12.9298 cycles
cpu0_STLB TOTAL     ACCESS:    1265619  HIT:    1245893  MISS:      19726
cpu0_STLB LOAD      ACCESS:     826112  HIT:     813158  MISS:      12954
cpu0_STLB RFO       ACCESS:     439507  HIT:     432735  MISS:       6772
cpu0_STLB PREFETCH  ACCESS:          0  HIT:          0  MISS:          0
cpu0_STLB WRITEBACK ACCESS:          0  HIT:          0  MISS:          0
cpu0_STLB TRANSLATION ACCESS:          0  HIT:          0  MISS:          0
cpu0_STLB PREFETCH  REQUESTED:          0  ISSUED:          0  USEFUL:          0  USELESS:          0
cpu0_STLB AVERAGE MISS LATENCY: 168.769 cycles
cpu0_L1D TOTAL     ACCESS:  217324933  HIT:  215136039  MISS:    2188894
cpu0_L1D LOAD      ACCESS:  110411857  HIT:  108831601  MISS:    1580256
cpu0_L1D RFO       ACCESS:  106894936  HIT:  106288080  MISS:     606856
cpu0_L1D PREFETCH  ACCESS:          0  HIT:          0  MISS:          0
cpu0_L1D WRITEBACK ACCESS:          0  HIT:          0  MISS:          0
cpu0_L1D TRANSLATION ACCESS:      18140  HIT:      16358  MISS:       1782
cpu0_L1D PREFETCH  REQUESTED:          0  ISSUED:          0  USEFUL:          0  USELESS:          0
cpu0_L1D AVERAGE MISS LATENCY: 262.857 cycles
cpu0_L2C TOTAL     ACCESS:    5084912  HIT:    3579880  MISS:    1505032
cpu0_L2C LOAD      ACCESS:    3745174  HIT:    2684765  MISS:    1060409
cpu0_L2C RFO       ACCESS:     602200  HIT:     159549  MISS:     442651
cpu0_L2C PREFETCH  ACCESS:          0  HIT:          0  MISS:          0
cpu0_L2C WRITEBACK ACCESS:     735756  HIT:     734006  MISS:       1750
cpu0_L2C TRANSLATION ACCESS:       1782  HIT:       1560  MISS:        222
cpu0_L2C PREFETCH  REQUESTED:          0  ISSUED:          0  USEFUL:          0  USELESS:          0
cpu0_L2C AVERAGE MISS LATENCY: 368.987 cycles
LLC TOTAL     ACCESS:    2028970  HIT:     363491  MISS:    1665479
LLC LOAD      ACCESS:    1060405  HIT:      55648  MISS:    1004757
LLC RFO       ACCESS:     442650  HIT:       2736  MISS:     439914
LLC PREFETCH  ACCESS:          0  HIT:          0  MISS:          0
LLC WRITEBACK ACCESS:     525693  HIT:     305080  MISS:     220613
LLC TRANSLATION ACCESS:        222  HIT:         27  MISS:        195
LLC PREFETCH  REQUESTED:          0  ISSUED:          0  USEFUL:          0  USELESS:          0
LLC AVERAGE MISS LATENCY: 314.485 cycles
~~~~~~~~~~Reuse Distance Profiler output~~~~~~~~~~
0	69145376	9547728
1	25820432	15837936
2	12796128	6898128
3	13408064	8337920
4	9173312	5142496
5	6601696	4868432
6	5899552	4503952
7	7055520	4663216
8	3805120	2108272
9	2770192	1661152
10	1948352	1097936
11	1583632	921728
12	1439296	978512
13	1154704	660864
14	3078560	2650176
15	1275264	955184
16	1841248	1227200
17	1282336	703136
18	1732224	1308752
19	1053744	778336
20	1471376	970416
21	1022592	667616
22	1536960	994208
23	784672	616528
24	944224	786144
25	748672	564368
26	627104	430832
27	503856	363120
28	434784	271280
29	645280	504640
30	499456	375280
31	516880	447552
32	339968	185008
33	495152	309216
34	387856	226544
35	386624	256784
36	350112	261904
37	424864	360736
38	388720	265776
39	291488	229568
40	455312	321568
41	295840	243040
42	297984	263680
43	332192	234032
44	263536	176192
45	248752	152832
46	233776	152944
47	168400	111792
48	273760	230144
49	356560	319024
50	243840	161648
51	161712	113056
52	158432	120256
53	132272	101984
54	126672	86448
55	121024	87904
56	192080	163952
57	118480	66048
58	321184	275376
59	163776	122368
60	144016	121424
61	339680	294048
62	212752	160704
63	188800	142672
64	333008	267760
66	340752	283520
68	359232	295008
70	299264	181408
72	361824	201024
74	348016	291824
76	176992	136752
78	208208	139712
80	235888	203968
82	288864	266896
84	149536	129760
86	102032	65504
88	101888	85840
90	192976	164176
92	195040	162224
94	171120	121696
96	363200	325488
98	182896	154704
100	305808	237248
102	321840	196864
104	257216	220320
106	240176	184400
108	260288	167984
110	132992	114128
112	162064	113728
114	205264	190464
116	219968	177280
118	194288	166800
120	284240	256560
122	144784	123184
124	179808	143248
126	176848	150160
128	280768	238304
132	260432	195904
136	337136	279200
140	394640	375680
144	240304	218592
148	333760	191616
152	271632	234672
156	338528	136192
160	206640	165568
164	176576	139984
168	121568	78208
172	249376	224144
176	153856	131392
180	159168	129072
184	170336	154464
188	146080	126064
192	154624	131536
196	120560	79936
200	113600	92432
204	134448	116400
208	112640	87440
212	157728	128848
216	240208	219968
220	234256	209952
224	413472	374144
228	323792	289920
232	204592	194480
236	260112	254400
240	1176688	1171040
244	717376	714256
248	251456	247344
252	178048	174096
256	409120	393232
264	255760	238816
272	290400	276784
280	185808	173920
288	224848	215616
296	283808	275408
304	180176	173968
312	199936	173488
320	163552	134096
328	100800	78912
336	94608	86304
344	88656	75648
352	95248	69280
360	88688	79392
368	92320	84752
376	114768	106656
384	117376	99968
392	104608	87904
400	79552	65568
408	73360	65152
416	60576	48672
424	74240	54464
432	84560	66032
440	55216	42656
448	61520	49984
456	79008	65840
464	72384	58208
472	65424	56944
480	69152	61472
488	83984	68896
496	75440	67136
504	90816	79904
512	327312	289168
528	114992	80688
544	104800	75568
560	126400	108848
576	92544	74064
592	69824	50544
608	74496	55824
624	50224	42704
640	42640	34112
656	49536	40752
672	98480	76624
688	98816	82272
704	134832	114288
720	104624	85616
736	108432	94112
752	99136	80688
768	106656	92736
784	66976	51088
800	38896	27232
816	53568	30816
832	49104	36256
848	45152	32016
864	51200	34320
880	34192	20976
896	39024	24896
912	29680	21472
928	34288	24960
944	31760	25168
960	35392	26800
976	30592	18496
992	29392	19248
1008	32144	28432
1024	93360	83616
1056	61824	44752
1088	59008	42112
1120	81792	64864
1152	61024	41152
1184	40320	28400
1216	28304	20096
1248	28416	17088
1280	128528	99008
1312	42368	29232
1344	95344	51184
1376	128832	104528
1408	172048	164032
1440	79344	56528
1472	243120	150176
1504	85072	47664
1536	122576	82512
1568	215200	151952
1600	167360	126016
1632	70608	50064
1664	111040	89280
1696	281984	230384
1728	156896	108672
1760	124352	97792
1792	122944	62624
1824	94320	53984
1856	72912	52576
1888	59072	40400
1920	76128	60208
1952	184960	152288
1984	89152	63424
2016	45440	29888
2048	127056	97184
2112	88528	66128
2176	79744	52096
2240	90448	54704
2304	91440	51632
2368	112000	74864
2432	124432	88640
2496	208880	167216
2560	131280	109392
2624	73408	49152
2688	103616	67456
2752	129744	82208
2816	161312	78704
2880	96016	69936
2944	153680	128080
3008	168368	139184
3072	328576	260688
3136	84352	56960
3200	115552	66400
3264	160880	86864
3328	133792	68800
3392	99648	63488
3456	115248	81296
3520	251584	212304
3584	138768	95840
3648	270928	199376
3712	425408	327456
3776	535888	375728
3840	160720	106784
3904	93888	70896
3968	124176	93760
4032	198080	149616
4096	373120	261680
4224	95840	71648
4352	85808	76736
4480	44144	36160
4608	35696	29312
4736	27952	21664
4864	123024	107744
4992	38304	31520
5120	23120	17888
5248	21840	16848
5376	18208	14336
5504	17376	12720
5632	16944	13184
5760	16720	12320
5888	14496	10672
6016	12944	9168
6144	15536	11296
6272	14192	9600
6400	16016	11040
6528	24816	19664
6656	20272	15168
6784	17472	12304
6912	14304	9392
7040	14624	8544
7168	14784	9312
7296	14112	9680
7424	16912	11328
7552	14848	9232
7680	17616	11216
7808	15408	10128
7936	15248	9808
8064	17056	11712
8192	36144	24816
8448	37136	24464
8704	43584	29120
8960	58624	42336
9216	63056	42000
9472	64912	43616
9728	106416	84032
9984	143152	123136
10240	59280	41456
10496	53712	37072
10752	45776	31120
11008	33504	23264
11264	26928	18880
11520	22320	15456
11776	17776	11552
12032	14656	9760
12288	11824	7744
12544	10720	7264
12800	8912	6032
13056	8208	5744
13312	5984	3808
13568	6064	3744
13824	6064	4032
14080	5888	4288
14336	4176	2816
14592	4000	2688
14848	2976	1936
15104	2608	1568
15360	2480	1728
15616	2480	1776
15872	1472	832
16128	1536	1008
16384	2592	1600
16896	2272	1488
17408	2736	1856
17920	3008	2288
18432	2304	1760
18944	2576	1920
19456	2672	2064
19968	2288	1824
20480	2048	1552
20992	1952	1632
21504	2384	1968
22016	1920	1568
22528	1536	1168
23040	1440	1168
23552	1408	1088
24064	1168	928
24576	1120	752
25088	1024	896
25600	1040	800
26112	768	592
26624	784	592
27136	512	416
27648	704	448
28160	864	704
28672	784	624
29184	976	800
29696	1008	784
30208	912	688
30720	752	544
31232	800	624
31744	816	688
32256	832	672
32768	1488	1248
33792	1216	864
34816	1136	976
35840	912	720
36864	864	624
37888	912	704
38912	992	768
39936	1152	1024
40960	912	736
41984	1248	1008
43008	896	672
44032	880	720
45056	912	640
46080	512	448
47104	720	640
48128	752	640
49152	736	624
50176	672	624
51200	816	656
52224	976	848
53248	720	592
54272	720	576
55296	640	528
56320	928	880
57344	544	464
58368	640	528
59392	752	608
60416	816	752
61440	576	512
62464	832	800
63488	848	704
64512	768	688
65536	1744	1616
67584	1616	1360
69632	1504	1344
71680	2016	1776
73728	1600	1456
75776	1424	1248
77824	1664	1520
79872	1760	1664
81920	2208	2128
83968	2192	2032
86016	1824	1616
88064	928	880
90112	1280	1120
92160	1056	928
94208	1312	1072
96256	688	640
98304	784	736
100352	784	688
102400	1232	1072
104448	1232	1072
106496	928	784
108544	768	704
110592	720	608
112640	800	672
114688	1184	1024
116736	992	880
118784	832	672
120832	736	576
122880	1024	928
124928	1280	1120
126976	1504	1408
129024	1408	1344
131072	1936	1728
135168	2672	2320
139264	1744	1568
143360	4032	3808
147456	5376	5216
151552	5504	5200
155648	6112	6016
159744	6176	6064
163840	7408	7136
167936	6976	6368
172032	5840	5536
176128	9856	7984
180224	28912	27648
184320	5248	4864
188416	5408	4928
192512	5840	5328
196608	5648	5088
200704	6512	5792
204800	5744	5008
208896	3968	3248
212992	4000	3424
217088	3936	3424
221184	4896	4208
225280	5424	4560
229376	5280	4640
233472	5968	5440
237568	10304	9904
241664	11056	10576
245760	11712	11392
249856	11200	10992
253952	12032	11744
258048	13120	12864
262144	19488	19072
270336	6144	5696
278528	6528	6160
286720	9200	8288
294912	5968	5360
303104	2800	2448
311296	2912	2560
319488	2496	2096
327680	2288	1920
335872	2032	1824
344064	2736	2208
352256	3360	2944
360448	3200	2784
368640	2432	2208
376832	2928	2544
385024	3872	3392
393216	3808	3472
401408	2320	2096
409600	1968	1744
417792	2096	1856
425984	1824	1568
434176	1648	1552
442368	1728	1536
450560	1520	1360
458752	1504	1200
466944	1952	1824
475136	2304	2000
483328	1984	1824
491520	2304	2128
499712	2224	2096
507904	2480	2288
516096	2320	2064
524288	4896	4544
540672	4336	3936
557056	3664	3376
573440	3248	2832
589824	3264	2992
606208	3264	2816
622592	2624	2416
638976	2704	2416
655360	2752	2512
671744	2672	2432
688128	3312	3072
704512	3952	3392
720896	3136	2928
737280	3600	3152
753664	2848	2576
770048	3200	2928
786432	2944	2768
802816	3072	2688
819200	2976	2832
835584	2880	2688
851968	3296	3168
868352	3104	3008
884736	2928	2752
901120	3312	3200
917504	3136	3024
933888	2528	2464
950272	1984	1920
966656	2080	2032
983040	1808	1712
999424	1936	1856
1015808	1552	1456
1032192	1728	1616
1048576	3152	2928
1081344	3216	3024
1114112	3296	3184
1146880	3344	3136
1179648	3552	3296
1212416	3344	3168
1245184	3568	3456
1277952	3232	3120
1310720	3424	3296
1343488	3296	3168
1376256	2960	2800
1409024	2944	2784
1441792	3024	2864
1474560	2928	2752
1507328	3184	2976
1540096	3408	3200
1572864	3264	3104
1605632	3040	2896
1638400	2784	2672
1671168	1200	1136
1703936	112	48
1736704	160	64
1769472	272	96
1802240	736	576
1835008	2928	2720
1867776	3216	3088
1900544	3200	2960
1933312	3104	2848
1966080	2960	2720
1998848	3040	2928
2031616	3136	2928
2064384	3312	3136
2097152	5840	5568
2162688	1152	944
2228224	352	48
2293760	416	16
2359296	368	48
2424832	368	64
2490368	496	128
2555904	512	112
2621440	416	128
2686976	320	112
2752512	272	64
2818048	432	64
2883584	416	96
2949120	448	96
3014656	624	48
3080192	480	112
3145728	192	16
3211264	384	112
3276800	320	144
3342336	464	112
3407872	464	80
3473408	448	80
3538944	304	96
3604480	400	64
3670016	256	64
3735552	320	112
3801088	272	48
3866624	320	0
3932160	352	32
3997696	304	64
4063232	352	64
4128768	304	48
4194304	576	208
4325376	720	32
4456448	624	128
4587520	720	80
4718592	560	128
4849664	800	192
4980736	656	112
5111808	528	96
5242880	608	192
5373952	1216	608
5505024	1168	608
5636096	1232	656
5767168	1088	592
5898240	1200	688
6029312	1280	640
6160384	1088	512
6291456	1136	688
6422528	848	144
6553600	864	80
6684672	608	112
6815744	592	80
6946816	592	80
7077888	688	80
7208960	560	112
7340032	368	16
7471104	688	64
7602176	704	32
7733248	576	96
7864320	592	96
7995392	784	144
8126464	1312	576
8257536	880	432
8388608	2112	896
8650752	1728	832
8912896	2048	816
9175040	1968	832
9437184	1952	832
9699328	1888	688
9961472	1904	896
10223616	2176	976
10485760	1856	896
10747904	2240	960
11010048	1936	1008
11272192	4384	3104
11534336	12704	11728
11796480	2832	1616
12058624	2320	1456
12320768	2800	1696
12582912	2400	1440
12845056	2512	1360
13107200	2368	1392
13369344	2448	1232
13631488	1856	784
13893632	2080	800
14155776	1168	848
14417920	1216	880
14680064	2160	2016
14942208	3520	3168
15204352	3376	3216
15466496	3168	2784
15728640	2096	1760
15990784	25536	18752
16252928	99216	76672
16515072	17152	9104
16777216	6544	5680
17301504	7248	6560
17825792	6656	5840
18350080	5344	4800
18874368	3392	2800
19398656	3408	2864
19922944	3280	2528
20447232	3392	2592
20971520	3696	3136
21495808	3264	2688
22020096	3488	2624
22544384	3600	3104
23068672	3376	2704
23592960	4576	4032
24117248	3392	2768
24641536	3168	2928
25165824	3232	2992
25690112	3264	2992
26214400	25008	23936
26738688	20512	20224
27262976	3280	3152
27787264	3040	2848
28311552	3328	3168
28835840	3136	2976
29360128	3808	3712
29884416	3488	3328
30408704	2960	2896
30932992	2160	1984
31457280	2352	2304
31981568	1776	1696
32505856	1792	1680
33030144	2336	2224
33554432	5600	5504
34603008	7168	6992
35651584	6240	6048
36700160	5936	5744
37748736	6448	6256
38797312	6944	6688
39845888	5600	5504
40894464	4176	4176
41943040	2752	2752
42991616	1424	1424
44040192	352	352
45088768	672	672
46137344	560	560
47185920	544	544
48234496	496	496
49283072	384	384
50331648	624	624
51380224	480	480
52428800	368	352
53477376	448	448
54525952	800	800
55574528	912	912
56623104	736	736
57671680	800	800
58720256	928	912
59768832	1312	1312
60817408	1120	1120
61865984	1088	1088
62914560	1008	1008
63963136	1264	1264
65011712	768	752
66060288	800	800
67108864	896	896
69206016	848	848
71303168	672	672
73400320	448	448
75497472	528	528
77594624	384	384
79691776	528	528
81788928	512	512
83886080	368	368
85983232	400	400
88080384	368	368
90177536	416	416
92274688	16	16
94371840	336	336
96468992	2560	2560
98566144	2640	2480
100663296	2640	2624
102760448	1216	1120
104857600	0	0
106954752	0	0
109051904	0	0
111149056	672	320
113246208	6128	3120
115343360	3728	1536
117440512	0	0
119537664	0	0
121634816	0	0
123731968	0	0
125829120	0	0
127926272	0	0
130023424	0	0
132120576	112	0
134217728	16	16
138412032	0	0
142606336	0	0
146800640	0	0
150994944	0	0
155189248	1424	1424
159383552	32	0
163577856	560	544
167772160	160	160
171966464	128	48
176160768	0	0
180355072	32	32
184549376	4464	4464
188743680	2416	2416
192937984	4176	4176
197132288	24080	21920
201326592	16	16
205520896	0	0
209715200	0	0
213909504	0	0
218103808	0	0
222298112	0	0
226492416	0	0
230686720	0	0
234881024	0	0
239075328	0	0
243269632	0	0
247463936	0	0
251658240	0	0
255852544	0	0
260046848	0	0
264241152	0	0
268435456	0	0
276824064	0	0
285212672	0	0
293601280	0	0
301989888	0	0
310378496	0	0
318767104	0	0
327155712	0	0
335544320	0	0
343932928	0	0
352321536	0	0
360710144	0	0
369098752	0	0
377487360	0	0
385875968	0	0
394264576	0	0
402653184	0	0
411041792	0	0
419430400	0	0
427819008	0	0
436207616	0	0
444596224	0	0
452984832	0	0
461373440	0	0
469762048	0	0
478150656	0	0
486539264	0	0
494927872	0	0
503316480	0	0
511705088	0	0
520093696	0	0
528482304	0	0
536870912	0	0
553648128	0	0
570425344	0	0
587202560	0	0
603979776	0	0
620756992	0	0
637534208	0	0
654311424	0	0
671088640	0	0
687865856	0	0
704643072	0	0
721420288	0	0
738197504	0	0
754974720	0	0
771751936	0	0
788529152	0	0
805306368	0	0
822083584	0	0
838860800	0	0
855638016	0	0
872415232	0	0
889192448	0	0
905969664	0	0
922746880	0	0
939524096	0	0
956301312	0	0
973078528	0	0
989855744	0	0
1006632960	0	0
1023410176	0	0
1040187392	0	0
1056964608	0	0
1073741824	0	0
1107296256	0	0
1140850688	0	0
1174405120	0	0
1207959552	0	0
1241513984	0	0
1275068416	0	0
1308622848	0	0
1342177280	0	0
1375731712	0	0
1409286144	0	0
1442840576	0	0
1476395008	0	0
1509949440	0	0
1543503872	0	0
1577058304	0	0
1610612736	0	0
1644167168	0	0
1677721600	0	0
1711276032	0	0
1744830464	0	0
1778384896	0	0
1811939328	0	0
1845493760	0	0
1879048192	0	0
1912602624	0	0
1946157056	0	0
1979711488	0	0
2013265920	0	0
2046820352	0	0
2080374784	0	0
2113929216	0	0
2147483648	0	0
2214592512	0	0
2281701376	0	0
2348810240	0	0
2415919104	0	0
2483027968	0	0
2550136832	0	0
2617245696	0	0
2684354560	0	0
2751463424	0	0
2818572288	0	0
2885681152	0	0
2952790016	0	0
3019898880	0	0
3087007744	0	0
3154116608	0	0
3221225472	0	0
3288334336	0	0
3355443200	0	0
3422552064	0	0
3489660928	0	0
3556769792	0	0
3623878656	0	0
3690987520	0	0
3758096384	0	0
3825205248	0	0
3892314112	0	0
3959422976	0	0
4026531840	0	0
4093640704	0	0
4160749568	0	0
4227858432	0	0
~~~~~~~~~~Reuse Distance Profiler output end~~~~~~~~~~

Sampler size:38074

DRAM Statistics
 CHANNEL 0
 RQ ROW_BUFFER_HIT:      93515  ROW_BUFFER_MISS:    1351271
 DBUS AVG_CONGESTED_CYCLE:    3.94886
 WQ ROW_BUFFER_HIT:      57942  ROW_BUFFER_MISS:     455147  FULL:          0


CPU 0 Branch Prediction Accuracy: 84.136% MPKI: 6.2795 Average ROB Occupancy at Mispredict: 102.01
Branch type MPKI
BRANCH_DIRECT_JUMP: 0.000180667
BRANCH_INDIRECT: 0.000664667
BRANCH_CONDITIONAL: 6.19659
BRANCH_DIRECT_CALL: 0.000314667
BRANCH_INDIRECT_CALL: 0.015064
BRANCH_RETURN: 0.0666893

