
*** ChampSim Multicore Out-of-Order Simulator ***

Warmup Instructions: 50000000
Simulation Instructions: 1500000000
Number of CPUs: 1
Off-chip DRAM Size: 4 GiB Channels: 1 Width: 64-bit Data Rate: 3200 MT/s

VirtualMemory physical capacity: 8588881920 num_ppages: 2096895
VirtualMemory page size: 4096 log2_page_size: 12

CPU 0 runs /s/traces/champsim_traces/641.leela_s-1083B.champsimtrace.xz
CPU 0 Bimodal branch predictor
Basic BTB sets: 1024 ways: 8 indirect buffer size: 4096 RAS size: 64
Initializing LRU.
Initializing LRU.
Initializing LRU.
Initializing LRU.
Initializing rdLRU.
Initializing LRU.
Heartbeat CPU 0 instructions: 2000000 cycles: 501549 heartbeat IPC: 3.98765 cumulative IPC: 3.98765 (Simulation time: 0 hr 1 min 7 sec) 
Heartbeat CPU 0 instructions: 4000000 cycles: 1003570 heartbeat IPC: 3.9839 cumulative IPC: 3.98577 (Simulation time: 0 hr 2 min 12 sec) 
Heartbeat CPU 0 instructions: 6000001 cycles: 1506283 heartbeat IPC: 3.97842 cumulative IPC: 3.98332 (Simulation time: 0 hr 3 min 18 sec) 
Heartbeat CPU 0 instructions: 8000002 cycles: 2008293 heartbeat IPC: 3.98399 cumulative IPC: 3.98348 (Simulation time: 0 hr 4 min 20 sec) 
Heartbeat CPU 0 instructions: 10000002 cycles: 2510303 heartbeat IPC: 3.98398 cumulative IPC: 3.98358 (Simulation time: 0 hr 5 min 23 sec) 
Heartbeat CPU 0 instructions: 12000002 cycles: 3012310 heartbeat IPC: 3.98401 cumulative IPC: 3.98365 (Simulation time: 0 hr 6 min 32 sec) 
Heartbeat CPU 0 instructions: 14000000 cycles: 3514320 heartbeat IPC: 3.98398 cumulative IPC: 3.9837 (Simulation time: 0 hr 7 min 37 sec) 
Heartbeat CPU 0 instructions: 16000003 cycles: 4016995 heartbeat IPC: 3.97872 cumulative IPC: 3.98308 (Simulation time: 0 hr 8 min 41 sec) 
Heartbeat CPU 0 instructions: 18000003 cycles: 4519088 heartbeat IPC: 3.98333 cumulative IPC: 3.98311 (Simulation time: 0 hr 9 min 46 sec) 
Heartbeat CPU 0 instructions: 20000003 cycles: 5020425 heartbeat IPC: 3.98933 cumulative IPC: 3.98373 (Simulation time: 0 hr 10 min 50 sec) 
Heartbeat CPU 0 instructions: 22000000 cycles: 5522434 heartbeat IPC: 3.98399 cumulative IPC: 3.98375 (Simulation time: 0 hr 11 min 52 sec) 
Heartbeat CPU 0 instructions: 24000003 cycles: 6025115 heartbeat IPC: 3.97867 cumulative IPC: 3.98333 (Simulation time: 0 hr 12 min 55 sec) 
Heartbeat CPU 0 instructions: 26000003 cycles: 6527178 heartbeat IPC: 3.98356 cumulative IPC: 3.98335 (Simulation time: 0 hr 14 min 1 sec) 
Heartbeat CPU 0 instructions: 28000000 cycles: 7029187 heartbeat IPC: 3.98399 cumulative IPC: 3.98339 (Simulation time: 0 hr 15 min 6 sec) 
Heartbeat CPU 0 instructions: 30000000 cycles: 7531197 heartbeat IPC: 3.98398 cumulative IPC: 3.98343 (Simulation time: 0 hr 16 min 10 sec) 
Heartbeat CPU 0 instructions: 32000001 cycles: 8033217 heartbeat IPC: 3.98391 cumulative IPC: 3.98346 (Simulation time: 0 hr 17 min 17 sec) 
Heartbeat CPU 0 instructions: 34000003 cycles: 8534558 heartbeat IPC: 3.9893 cumulative IPC: 3.9838 (Simulation time: 0 hr 18 min 23 sec) 
Heartbeat CPU 0 instructions: 36000002 cycles: 9037237 heartbeat IPC: 3.97868 cumulative IPC: 3.98352 (Simulation time: 0 hr 19 min 27 sec) 
Heartbeat CPU 0 instructions: 38000000 cycles: 9538576 heartbeat IPC: 3.98931 cumulative IPC: 3.98382 (Simulation time: 0 hr 20 min 30 sec) 
Heartbeat CPU 0 instructions: 40000002 cycles: 10040583 heartbeat IPC: 3.98401 cumulative IPC: 3.98383 (Simulation time: 0 hr 21 min 36 sec) 
Heartbeat CPU 0 instructions: 42000001 cycles: 10542593 heartbeat IPC: 3.98398 cumulative IPC: 3.98384 (Simulation time: 0 hr 22 min 41 sec) 
Heartbeat CPU 0 instructions: 44000001 cycles: 11044652 heartbeat IPC: 3.9836 cumulative IPC: 3.98383 (Simulation time: 0 hr 23 min 47 sec) 
Heartbeat CPU 0 instructions: 46000002 cycles: 11546026 heartbeat IPC: 3.98904 cumulative IPC: 3.98406 (Simulation time: 0 hr 24 min 53 sec) 
Heartbeat CPU 0 instructions: 48000000 cycles: 12048734 heartbeat IPC: 3.97845 cumulative IPC: 3.98382 (Simulation time: 0 hr 25 min 59 sec) 
Heartbeat CPU 0 instructions: 50000000 cycles: 12550756 heartbeat IPC: 3.98389 cumulative IPC: 3.98382 (Simulation time: 0 hr 27 min 3 sec) 

Warmup complete CPU 0 instructions: 50000004 cycles: 12550757 (Simulation time: 0 hr 27 min 3 sec) 

Heartbeat CPU 0 instructions: 52000002 cycles: 14553190 heartbeat IPC: 0.998785 cumulative IPC: 0.998784 (Simulation time: 0 hr 28 min 9 sec) 

Region of Interest Statistics
cpu0_DTLB TOTAL     ACCESS:     389815  HIT:     388916  MISS:        899
cpu0_DTLB LOAD      ACCESS:     274021  HIT:     273160  MISS:        861
cpu0_DTLB RFO       ACCESS:     115794  HIT:     115756  MISS:         38
cpu0_DTLB PREFETCH  ACCESS:          0  HIT:          0  MISS:          0
cpu0_DTLB WRITEBACK ACCESS:          0  HIT:          0  MISS:          0
cpu0_ITLB TOTAL     ACCESS:     221777  HIT:     221777  MISS:          0
cpu0_ITLB LOAD      ACCESS:     221777  HIT:     221777  MISS:          0
cpu0_ITLB RFO       ACCESS:          0  HIT:          0  MISS:          0
cpu0_ITLB PREFETCH  ACCESS:          0  HIT:          0  MISS:          0
cpu0_ITLB WRITEBACK ACCESS:          0  HIT:          0  MISS:          0
cpu0_L1I TOTAL     ACCESS:     122737  HIT:     122629  MISS:        108
cpu0_L1I LOAD      ACCESS:     122737  HIT:     122629  MISS:        108
cpu0_L1I RFO       ACCESS:          0  HIT:          0  MISS:          0
cpu0_L1I PREFETCH  ACCESS:          0  HIT:          0  MISS:          0
cpu0_L1I WRITEBACK ACCESS:          0  HIT:          0  MISS:          0
cpu0_STLB TOTAL     ACCESS:        899  HIT:        892  MISS:          7
cpu0_STLB LOAD      ACCESS:        861  HIT:        854  MISS:          7
cpu0_STLB RFO       ACCESS:         38  HIT:         38  MISS:          0
cpu0_STLB PREFETCH  ACCESS:          0  HIT:          0  MISS:          0
cpu0_STLB WRITEBACK ACCESS:          0  HIT:          0  MISS:          0
cpu0_L1D TOTAL     ACCESS:     531456  HIT:     525489  MISS:       5967
cpu0_L1D LOAD      ACCESS:     311848  HIT:     306641  MISS:       5207
cpu0_L1D RFO       ACCESS:     219601  HIT:     218844  MISS:        757
cpu0_L1D PREFETCH  ACCESS:          0  HIT:          0  MISS:          0
cpu0_L1D WRITEBACK ACCESS:          0  HIT:          0  MISS:          0
cpu0_L2C TOTAL     ACCESS:       7481  HIT:       7249  MISS:        232
cpu0_L2C LOAD      ACCESS:       5315  HIT:       5084  MISS:        231
cpu0_L2C RFO       ACCESS:        757  HIT:        756  MISS:          1
cpu0_L2C PREFETCH  ACCESS:          0  HIT:          0  MISS:          0
cpu0_L2C WRITEBACK ACCESS:       1406  HIT:       1406  MISS:          0
LLC TOTAL     ACCESS:        245  HIT:         58  MISS:        187
LLC LOAD      ACCESS:        231  HIT:         44  MISS:        187
LLC RFO       ACCESS:          1  HIT:          1  MISS:          0
LLC PREFETCH  ACCESS:          0  HIT:          0  MISS:          0
LLC WRITEBACK ACCESS:         13  HIT:         13  MISS:          0
Heartbeat CPU 0 instructions: 54000000 cycles: 16528734 heartbeat IPC: 1.01238 cumulative IPC: 1.00554 (Simulation time: 0 hr 29 min 13 sec) 

Region of Interest Statistics
cpu0_DTLB TOTAL     ACCESS:     778845  HIT:     777079  MISS:       1766
cpu0_DTLB LOAD      ACCESS:     544256  HIT:     542581  MISS:       1675
cpu0_DTLB RFO       ACCESS:     234589  HIT:     234498  MISS:         91
cpu0_DTLB PREFETCH  ACCESS:          0  HIT:          0  MISS:          0
cpu0_DTLB WRITEBACK ACCESS:          0  HIT:          0  MISS:          0
cpu0_ITLB TOTAL     ACCESS:     439960  HIT:     439960  MISS:          0
cpu0_ITLB LOAD      ACCESS:     439960  HIT:     439960  MISS:          0
cpu0_ITLB RFO       ACCESS:          0  HIT:          0  MISS:          0
cpu0_ITLB PREFETCH  ACCESS:          0  HIT:          0  MISS:          0
cpu0_ITLB WRITEBACK ACCESS:          0  HIT:          0  MISS:          0
cpu0_L1I TOTAL     ACCESS:     253250  HIT:     253046  MISS:        204
cpu0_L1I LOAD      ACCESS:     253250  HIT:     253046  MISS:        204
cpu0_L1I RFO       ACCESS:          0  HIT:          0  MISS:          0
cpu0_L1I PREFETCH  ACCESS:          0  HIT:          0  MISS:          0
cpu0_L1I WRITEBACK ACCESS:          0  HIT:          0  MISS:          0
cpu0_STLB TOTAL     ACCESS:       1766  HIT:       1748  MISS:         18
cpu0_STLB LOAD      ACCESS:       1675  HIT:       1658  MISS:         17
cpu0_STLB RFO       ACCESS:         91  HIT:         90  MISS:          1
cpu0_STLB PREFETCH  ACCESS:          0  HIT:          0  MISS:          0
cpu0_STLB WRITEBACK ACCESS:          0  HIT:          0  MISS:          0
cpu0_L1D TOTAL     ACCESS:    1067686  HIT:    1056617  MISS:      11069
cpu0_L1D LOAD      ACCESS:     619375  HIT:     609842  MISS:       9533
cpu0_L1D RFO       ACCESS:     448293  HIT:     446766  MISS:       1527
cpu0_L1D PREFETCH  ACCESS:          0  HIT:          0  MISS:          0
cpu0_L1D WRITEBACK ACCESS:          0  HIT:          0  MISS:          0
cpu0_L2C TOTAL     ACCESS:      13819  HIT:      13225  MISS:        594
cpu0_L2C LOAD      ACCESS:       9737  HIT:       9267  MISS:        470
cpu0_L2C RFO       ACCESS:       1527  HIT:       1403  MISS:        124
cpu0_L2C PREFETCH  ACCESS:          0  HIT:          0  MISS:          0
cpu0_L2C WRITEBACK ACCESS:       2546  HIT:       2546  MISS:          0
LLC TOTAL     ACCESS:        629  HIT:        125  MISS:        504
LLC LOAD      ACCESS:        470  HIT:         87  MISS:        383
LLC RFO       ACCESS:        124  HIT:          3  MISS:        121
LLC PREFETCH  ACCESS:          0  HIT:          0  MISS:          0
LLC WRITEBACK ACCESS:         35  HIT:         35  MISS:          0
Heartbeat CPU 0 instructions: 56000001 cycles: 18545232 heartbeat IPC: 0.991819 cumulative IPC: 1.00092 (Simulation time: 0 hr 30 min 17 sec) 

Region of Interest Statistics
cpu0_DTLB TOTAL     ACCESS:    1174882  HIT:    1172253  MISS:       2629
cpu0_DTLB LOAD      ACCESS:     822689  HIT:     820185  MISS:       2504
cpu0_DTLB RFO       ACCESS:     352193  HIT:     352068  MISS:        125
cpu0_DTLB PREFETCH  ACCESS:          0  HIT:          0  MISS:          0
cpu0_DTLB WRITEBACK ACCESS:          0  HIT:          0  MISS:          0
cpu0_ITLB TOTAL     ACCESS:     663806  HIT:     663806  MISS:          0
cpu0_ITLB LOAD      ACCESS:     663806  HIT:     663806  MISS:          0
cpu0_ITLB RFO       ACCESS:          0  HIT:          0  MISS:          0
cpu0_ITLB PREFETCH  ACCESS:          0  HIT:          0  MISS:          0
cpu0_ITLB WRITEBACK ACCESS:          0  HIT:          0  MISS:          0
cpu0_L1I TOTAL     ACCESS:     376048  HIT:     375749  MISS:        299
cpu0_L1I LOAD      ACCESS:     376048  HIT:     375749  MISS:        299
cpu0_L1I RFO       ACCESS:          0  HIT:          0  MISS:          0
cpu0_L1I PREFETCH  ACCESS:          0  HIT:          0  MISS:          0
cpu0_L1I WRITEBACK ACCESS:          0  HIT:          0  MISS:          0
cpu0_STLB TOTAL     ACCESS:       2629  HIT:       2607  MISS:         22
cpu0_STLB LOAD      ACCESS:       2504  HIT:       2485  MISS:         19
cpu0_STLB RFO       ACCESS:        125  HIT:        122  MISS:          3
cpu0_STLB PREFETCH  ACCESS:          0  HIT:          0  MISS:          0
cpu0_STLB WRITEBACK ACCESS:          0  HIT:          0  MISS:          0
cpu0_L1D TOTAL     ACCESS:    1606828  HIT:    1590815  MISS:      16013
cpu0_L1D LOAD      ACCESS:     936467  HIT:     922591  MISS:      13876
cpu0_L1D RFO       ACCESS:     670340  HIT:     668215  MISS:       2125
cpu0_L1D PREFETCH  ACCESS:          0  HIT:          0  MISS:          0
cpu0_L1D WRITEBACK ACCESS:          0  HIT:          0  MISS:          0
cpu0_L2C TOTAL     ACCESS:      20082  HIT:      19405  MISS:        677
cpu0_L2C LOAD      ACCESS:      14175  HIT:      13648  MISS:        527
cpu0_L2C RFO       ACCESS:       2125  HIT:       1975  MISS:        150
cpu0_L2C PREFETCH  ACCESS:          0  HIT:          0  MISS:          0
cpu0_L2C WRITEBACK ACCESS:       3770  HIT:       3770  MISS:          0
LLC TOTAL     ACCESS:        715  HIT:        164  MISS:        551
LLC LOAD      ACCESS:        527  HIT:        123  MISS:        404
LLC RFO       ACCESS:        150  HIT:          3  MISS:        147
LLC PREFETCH  ACCESS:          0  HIT:          0  MISS:          0
LLC WRITEBACK ACCESS:         38  HIT:         38  MISS:          0
Heartbeat CPU 0 instructions: 58000001 cycles: 20508617 heartbeat IPC: 1.01865 cumulative IPC: 1.0053 (Simulation time: 0 hr 31 min 19 sec) 

Region of Interest Statistics
cpu0_DTLB TOTAL     ACCESS:    1565712  HIT:    1562200  MISS:       3512
cpu0_DTLB LOAD      ACCESS:    1097060  HIT:    1093706  MISS:       3354
cpu0_DTLB RFO       ACCESS:     468652  HIT:     468494  MISS:        158
cpu0_DTLB PREFETCH  ACCESS:          0  HIT:          0  MISS:          0
cpu0_DTLB WRITEBACK ACCESS:          0  HIT:          0  MISS:          0
cpu0_ITLB TOTAL     ACCESS:     885877  HIT:     885877  MISS:          0
cpu0_ITLB LOAD      ACCESS:     885877  HIT:     885877  MISS:          0
cpu0_ITLB RFO       ACCESS:          0  HIT:          0  MISS:          0
cpu0_ITLB PREFETCH  ACCESS:          0  HIT:          0  MISS:          0
cpu0_ITLB WRITEBACK ACCESS:          0  HIT:          0  MISS:          0
cpu0_L1I TOTAL     ACCESS:     498301  HIT:     497911  MISS:        390
cpu0_L1I LOAD      ACCESS:     498301  HIT:     497911  MISS:        390
cpu0_L1I RFO       ACCESS:          0  HIT:          0  MISS:          0
cpu0_L1I PREFETCH  ACCESS:          0  HIT:          0  MISS:          0
cpu0_L1I WRITEBACK ACCESS:          0  HIT:          0  MISS:          0
cpu0_STLB TOTAL     ACCESS:       3512  HIT:       3488  MISS:         24
cpu0_STLB LOAD      ACCESS:       3354  HIT:       3333  MISS:         21
cpu0_STLB RFO       ACCESS:        158  HIT:        155  MISS:          3
cpu0_STLB PREFETCH  ACCESS:          0  HIT:          0  MISS:          0
cpu0_STLB WRITEBACK ACCESS:          0  HIT:          0  MISS:          0
cpu0_L1D TOTAL     ACCESS:    2140627  HIT:    2119487  MISS:      21140
cpu0_L1D LOAD      ACCESS:    1248530  HIT:    1230133  MISS:      18397
cpu0_L1D RFO       ACCESS:     892074  HIT:     889344  MISS:       2730
cpu0_L1D PREFETCH  ACCESS:          0  HIT:          0  MISS:          0
cpu0_L1D WRITEBACK ACCESS:          0  HIT:          0  MISS:          0
cpu0_L2C TOTAL     ACCESS:      26455  HIT:      25582  MISS:        873
cpu0_L2C LOAD      ACCESS:      18787  HIT:      18064  MISS:        723
cpu0_L2C RFO       ACCESS:       2730  HIT:       2580  MISS:        150
cpu0_L2C PREFETCH  ACCESS:          0  HIT:          0  MISS:          0
cpu0_L2C WRITEBACK ACCESS:       4925  HIT:       4925  MISS:          0
LLC TOTAL     ACCESS:        922  HIT:        186  MISS:        736
LLC LOAD      ACCESS:        723  HIT:        134  MISS:        589
LLC RFO       ACCESS:        150  HIT:          3  MISS:        147
LLC PREFETCH  ACCESS:          0  HIT:          0  MISS:          0
LLC WRITEBACK ACCESS:         49  HIT:         49  MISS:          0
Heartbeat CPU 0 instructions: 60000003 cycles: 22476397 heartbeat IPC: 1.01637 cumulative IPC: 1.00749 (Simulation time: 0 hr 32 min 20 sec) 

Region of Interest Statistics
cpu0_DTLB TOTAL     ACCESS:    1958186  HIT:    1953821  MISS:       4365
cpu0_DTLB LOAD      ACCESS:    1371954  HIT:    1367784  MISS:       4170
cpu0_DTLB RFO       ACCESS:     586232  HIT:     586037  MISS:        195
cpu0_DTLB PREFETCH  ACCESS:          0  HIT:          0  MISS:          0
cpu0_DTLB WRITEBACK ACCESS:          0  HIT:          0  MISS:          0
cpu0_ITLB TOTAL     ACCESS:    1108628  HIT:    1108628  MISS:          0
cpu0_ITLB LOAD      ACCESS:    1108628  HIT:    1108628  MISS:          0
cpu0_ITLB RFO       ACCESS:          0  HIT:          0  MISS:          0
cpu0_ITLB PREFETCH  ACCESS:          0  HIT:          0  MISS:          0
cpu0_ITLB WRITEBACK ACCESS:          0  HIT:          0  MISS:          0
cpu0_L1I TOTAL     ACCESS:     620957  HIT:     620477  MISS:        480
cpu0_L1I LOAD      ACCESS:     620957  HIT:     620477  MISS:        480
cpu0_L1I RFO       ACCESS:          0  HIT:          0  MISS:          0
cpu0_L1I PREFETCH  ACCESS:          0  HIT:          0  MISS:          0
cpu0_L1I WRITEBACK ACCESS:          0  HIT:          0  MISS:          0
cpu0_STLB TOTAL     ACCESS:       4365  HIT:       4341  MISS:         24
cpu0_STLB LOAD      ACCESS:       4170  HIT:       4149  MISS:         21
cpu0_STLB RFO       ACCESS:        195  HIT:        192  MISS:          3
cpu0_STLB PREFETCH  ACCESS:          0  HIT:          0  MISS:          0
cpu0_STLB WRITEBACK ACCESS:          0  HIT:          0  MISS:          0
cpu0_L1D TOTAL     ACCESS:    2678511  HIT:    2652613  MISS:      25898
cpu0_L1D LOAD      ACCESS:    1561522  HIT:    1538920  MISS:      22602
cpu0_L1D RFO       ACCESS:    1116966  HIT:    1113683  MISS:       3283
cpu0_L1D PREFETCH  ACCESS:          0  HIT:          0  MISS:          0
cpu0_L1D WRITEBACK ACCESS:          0  HIT:          0  MISS:          0
cpu0_L2C TOTAL     ACCESS:      32349  HIT:      31436  MISS:        913
cpu0_L2C LOAD      ACCESS:      23082  HIT:      22320  MISS:        762
cpu0_L2C RFO       ACCESS:       3283  HIT:       3132  MISS:        151
cpu0_L2C PREFETCH  ACCESS:          0  HIT:          0  MISS:          0
cpu0_L2C WRITEBACK ACCESS:       5971  HIT:       5971  MISS:          0
LLC TOTAL     ACCESS:        969  HIT:        222  MISS:        747
LLC LOAD      ACCESS:        762  HIT:        162  MISS:        600
LLC RFO       ACCESS:        151  HIT:          4  MISS:        147
LLC PREFETCH  ACCESS:          0  HIT:          0  MISS:          0
LLC WRITEBACK ACCESS:         56  HIT:         56  MISS:          0
Heartbeat CPU 0 instructions: 62000002 cycles: 24408508 heartbeat IPC: 1.03514 cumulative IPC: 1.012 (Simulation time: 0 hr 33 min 22 sec) 

Region of Interest Statistics
cpu0_DTLB TOTAL     ACCESS:    2341546  HIT:    2336259  MISS:       5287
cpu0_DTLB LOAD      ACCESS:    1637867  HIT:    1632818  MISS:       5049
cpu0_DTLB RFO       ACCESS:     703679  HIT:     703441  MISS:        238
cpu0_DTLB PREFETCH  ACCESS:          0  HIT:          0  MISS:          0
cpu0_DTLB WRITEBACK ACCESS:          0  HIT:          0  MISS:          0
cpu0_ITLB TOTAL     ACCESS:    1327651  HIT:    1327651  MISS:          0
cpu0_ITLB LOAD      ACCESS:    1327651  HIT:    1327651  MISS:          0
cpu0_ITLB RFO       ACCESS:          0  HIT:          0  MISS:          0
cpu0_ITLB PREFETCH  ACCESS:          0  HIT:          0  MISS:          0
cpu0_ITLB WRITEBACK ACCESS:          0  HIT:          0  MISS:          0
cpu0_L1I TOTAL     ACCESS:     746957  HIT:     746386  MISS:        571
cpu0_L1I LOAD      ACCESS:     746957  HIT:     746386  MISS:        571
cpu0_L1I RFO       ACCESS:          0  HIT:          0  MISS:          0
cpu0_L1I PREFETCH  ACCESS:          0  HIT:          0  MISS:          0
cpu0_L1I WRITEBACK ACCESS:          0  HIT:          0  MISS:          0
cpu0_STLB TOTAL     ACCESS:       5287  HIT:       5262  MISS:         25
cpu0_STLB LOAD      ACCESS:       5049  HIT:       5027  MISS:         22
cpu0_STLB RFO       ACCESS:        238  HIT:        235  MISS:          3
cpu0_STLB PREFETCH  ACCESS:          0  HIT:          0  MISS:          0
cpu0_STLB WRITEBACK ACCESS:          0  HIT:          0  MISS:          0
cpu0_L1D TOTAL     ACCESS:    3206403  HIT:    3174465  MISS:      31938
cpu0_L1D LOAD      ACCESS:    1863927  HIT:    1835975  MISS:      27952
cpu0_L1D RFO       ACCESS:    1342452  HIT:    1338480  MISS:       3972
cpu0_L1D PREFETCH  ACCESS:          0  HIT:          0  MISS:          0
cpu0_L1D WRITEBACK ACCESS:          0  HIT:          0  MISS:          0
cpu0_L2C TOTAL     ACCESS:      39757  HIT:      38685  MISS:       1072
cpu0_L2C LOAD      ACCESS:      28523  HIT:      27604  MISS:        919
cpu0_L2C RFO       ACCESS:       3972  HIT:       3820  MISS:        152
cpu0_L2C PREFETCH  ACCESS:          0  HIT:          0  MISS:          0
cpu0_L2C WRITEBACK ACCESS:       7248  HIT:       7248  MISS:          0
LLC TOTAL     ACCESS:       1165  HIT:        400  MISS:        765
LLC LOAD      ACCESS:        919  HIT:        302  MISS:        617
LLC RFO       ACCESS:        152  HIT:          4  MISS:        148
LLC PREFETCH  ACCESS:          0  HIT:          0  MISS:          0
LLC WRITEBACK ACCESS:         93  HIT:         93  MISS:          0
Heartbeat CPU 0 instructions: 64000002 cycles: 26401318 heartbeat IPC: 1.00361 cumulative IPC: 1.01079 (Simulation time: 0 hr 34 min 24 sec) 

Region of Interest Statistics
cpu0_DTLB TOTAL     ACCESS:    2736241  HIT:    2730102  MISS:       6139
cpu0_DTLB LOAD      ACCESS:    1913461  HIT:    1907591  MISS:       5870
cpu0_DTLB RFO       ACCESS:     822780  HIT:     822511  MISS:        269
cpu0_DTLB PREFETCH  ACCESS:          0  HIT:          0  MISS:          0
cpu0_DTLB WRITEBACK ACCESS:          0  HIT:          0  MISS:          0
cpu0_ITLB TOTAL     ACCESS:    1553016  HIT:    1553016  MISS:          0
cpu0_ITLB LOAD      ACCESS:    1553016  HIT:    1553016  MISS:          0
cpu0_ITLB RFO       ACCESS:          0  HIT:          0  MISS:          0
cpu0_ITLB PREFETCH  ACCESS:          0  HIT:          0  MISS:          0
cpu0_ITLB WRITEBACK ACCESS:          0  HIT:          0  MISS:          0
cpu0_L1I TOTAL     ACCESS:     872811  HIT:     872150  MISS:        661
cpu0_L1I LOAD      ACCESS:     872811  HIT:     872150  MISS:        661
cpu0_L1I RFO       ACCESS:          0  HIT:          0  MISS:          0
cpu0_L1I PREFETCH  ACCESS:          0  HIT:          0  MISS:          0
cpu0_L1I WRITEBACK ACCESS:          0  HIT:          0  MISS:          0
cpu0_STLB TOTAL     ACCESS:       6139  HIT:       6113  MISS:         26
cpu0_STLB LOAD      ACCESS:       5870  HIT:       5847  MISS:         23
cpu0_STLB RFO       ACCESS:        269  HIT:        266  MISS:          3
cpu0_STLB PREFETCH  ACCESS:          0  HIT:          0  MISS:          0
cpu0_STLB WRITEBACK ACCESS:          0  HIT:          0  MISS:          0
cpu0_L1D TOTAL     ACCESS:    3749813  HIT:    3713329  MISS:      36484
cpu0_L1D LOAD      ACCESS:    2178603  HIT:    2146594  MISS:      32009
cpu0_L1D RFO       ACCESS:    1571185  HIT:    1566725  MISS:       4460
cpu0_L1D PREFETCH  ACCESS:          0  HIT:          0  MISS:          0
cpu0_L1D WRITEBACK ACCESS:          0  HIT:          0  MISS:          0
cpu0_L2C TOTAL     ACCESS:      45326  HIT:      44095  MISS:       1231
cpu0_L2C LOAD      ACCESS:      32670  HIT:      31593  MISS:       1077
cpu0_L2C RFO       ACCESS:       4460  HIT:       4307  MISS:        153
cpu0_L2C PREFETCH  ACCESS:          0  HIT:          0  MISS:          0
cpu0_L2C WRITEBACK ACCESS:       8181  HIT:       8181  MISS:          0
LLC TOTAL     ACCESS:       1349  HIT:        572  MISS:        777
LLC LOAD      ACCESS:       1077  HIT:        449  MISS:        628
LLC RFO       ACCESS:        153  HIT:          4  MISS:        149
LLC PREFETCH  ACCESS:          0  HIT:          0  MISS:          0
LLC WRITEBACK ACCESS:        118  HIT:        118  MISS:          0
Heartbeat CPU 0 instructions: 66000001 cycles: 28336158 heartbeat IPC: 1.03368 cumulative IPC: 1.01359 (Simulation time: 0 hr 35 min 28 sec) 

Region of Interest Statistics
cpu0_DTLB TOTAL     ACCESS:    3124813  HIT:    3117815  MISS:       6998
cpu0_DTLB LOAD      ACCESS:    2184784  HIT:    2178090  MISS:       6694
cpu0_DTLB RFO       ACCESS:     940029  HIT:     939725  MISS:        304
cpu0_DTLB PREFETCH  ACCESS:          0  HIT:          0  MISS:          0
cpu0_DTLB WRITEBACK ACCESS:          0  HIT:          0  MISS:          0
cpu0_ITLB TOTAL     ACCESS:    1773189  HIT:    1773189  MISS:          0
cpu0_ITLB LOAD      ACCESS:    1773189  HIT:    1773189  MISS:          0
cpu0_ITLB RFO       ACCESS:          0  HIT:          0  MISS:          0
cpu0_ITLB PREFETCH  ACCESS:          0  HIT:          0  MISS:          0
cpu0_ITLB WRITEBACK ACCESS:          0  HIT:          0  MISS:          0
cpu0_L1I TOTAL     ACCESS:     996126  HIT:     995374  MISS:        752
cpu0_L1I LOAD      ACCESS:     996126  HIT:     995374  MISS:        752
cpu0_L1I RFO       ACCESS:          0  HIT:          0  MISS:          0
cpu0_L1I PREFETCH  ACCESS:          0  HIT:          0  MISS:          0
cpu0_L1I WRITEBACK ACCESS:          0  HIT:          0  MISS:          0
cpu0_STLB TOTAL     ACCESS:       6998  HIT:       6971  MISS:         27
cpu0_STLB LOAD      ACCESS:       6694  HIT:       6670  MISS:         24
cpu0_STLB RFO       ACCESS:        304  HIT:        301  MISS:          3
cpu0_STLB PREFETCH  ACCESS:          0  HIT:          0  MISS:          0
cpu0_STLB WRITEBACK ACCESS:          0  HIT:          0  MISS:          0
cpu0_L1D TOTAL     ACCESS:    4283408  HIT:    4241898  MISS:      41510
cpu0_L1D LOAD      ACCESS:    2487704  HIT:    2451226  MISS:      36478
cpu0_L1D RFO       ACCESS:    1795678  HIT:    1790662  MISS:       5016
cpu0_L1D PREFETCH  ACCESS:          0  HIT:          0  MISS:          0
cpu0_L1D WRITEBACK ACCESS:          0  HIT:          0  MISS:          0
cpu0_L2C TOTAL     ACCESS:      51549  HIT:      50266  MISS:       1283
cpu0_L2C LOAD      ACCESS:      37230  HIT:      36101  MISS:       1129
cpu0_L2C RFO       ACCESS:       5016  HIT:       4863  MISS:        153
cpu0_L2C PREFETCH  ACCESS:          0  HIT:          0  MISS:          0
cpu0_L2C WRITEBACK ACCESS:       9287  HIT:       9287  MISS:          0
LLC TOTAL     ACCESS:       1410  HIT:        623  MISS:        787
LLC LOAD      ACCESS:       1129  HIT:        491  MISS:        638
LLC RFO       ACCESS:        153  HIT:          4  MISS:        149
LLC PREFETCH  ACCESS:          0  HIT:          0  MISS:          0
LLC WRITEBACK ACCESS:        127  HIT:        127  MISS:          0
Heartbeat CPU 0 instructions: 68000002 cycles: 30303712 heartbeat IPC: 1.01649 cumulative IPC: 1.01392 (Simulation time: 0 hr 36 min 31 sec) 

Region of Interest Statistics
cpu0_DTLB TOTAL     ACCESS:    3516435  HIT:    3508619  MISS:       7816
cpu0_DTLB LOAD      ACCESS:    2458446  HIT:    2450964  MISS:       7482
cpu0_DTLB RFO       ACCESS:    1057989  HIT:    1057655  MISS:        334
cpu0_DTLB PREFETCH  ACCESS:          0  HIT:          0  MISS:          0
cpu0_DTLB WRITEBACK ACCESS:          0  HIT:          0  MISS:          0
cpu0_ITLB TOTAL     ACCESS:    1994535  HIT:    1994535  MISS:          0
cpu0_ITLB LOAD      ACCESS:    1994535  HIT:    1994535  MISS:          0
cpu0_ITLB RFO       ACCESS:          0  HIT:          0  MISS:          0
cpu0_ITLB PREFETCH  ACCESS:          0  HIT:          0  MISS:          0
cpu0_ITLB WRITEBACK ACCESS:          0  HIT:          0  MISS:          0
cpu0_L1I TOTAL     ACCESS:    1119585  HIT:    1118736  MISS:        849
cpu0_L1I LOAD      ACCESS:    1119585  HIT:    1118736  MISS:        849
cpu0_L1I RFO       ACCESS:          0  HIT:          0  MISS:          0
cpu0_L1I PREFETCH  ACCESS:          0  HIT:          0  MISS:          0
cpu0_L1I WRITEBACK ACCESS:          0  HIT:          0  MISS:          0
cpu0_STLB TOTAL     ACCESS:       7816  HIT:       7789  MISS:         27
cpu0_STLB LOAD      ACCESS:       7482  HIT:       7458  MISS:         24
cpu0_STLB RFO       ACCESS:        334  HIT:        331  MISS:          3
cpu0_STLB PREFETCH  ACCESS:          0  HIT:          0  MISS:          0
cpu0_STLB WRITEBACK ACCESS:          0  HIT:          0  MISS:          0
cpu0_L1D TOTAL     ACCESS:    4820216  HIT:    4773912  MISS:      46304
cpu0_L1D LOAD      ACCESS:    2798782  HIT:    2758060  MISS:      40722
cpu0_L1D RFO       ACCESS:    2021408  HIT:    2015842  MISS:       5566
cpu0_L1D PREFETCH  ACCESS:          0  HIT:          0  MISS:          0
cpu0_L1D WRITEBACK ACCESS:          0  HIT:          0  MISS:          0
cpu0_L2C TOTAL     ACCESS:      57491  HIT:      56182  MISS:       1309
cpu0_L2C LOAD      ACCESS:      41571  HIT:      40416  MISS:       1155
cpu0_L2C RFO       ACCESS:       5566  HIT:       5413  MISS:        153
cpu0_L2C PREFETCH  ACCESS:          0  HIT:          0  MISS:          0
cpu0_L2C WRITEBACK ACCESS:      10338  HIT:      10338  MISS:          0
LLC TOTAL     ACCESS:       1437  HIT:        643  MISS:        794
LLC LOAD      ACCESS:       1155  HIT:        510  MISS:        645
LLC RFO       ACCESS:        153  HIT:          4  MISS:        149
LLC PREFETCH  ACCESS:          0  HIT:          0  MISS:          0
LLC WRITEBACK ACCESS:        128  HIT:        128  MISS:          0
Heartbeat CPU 0 instructions: 70000000 cycles: 32255540 heartbeat IPC: 1.02468 cumulative IPC: 1.01498 (Simulation time: 0 hr 37 min 34 sec) 

Region of Interest Statistics
cpu0_DTLB TOTAL     ACCESS:    3909106  HIT:    3900436  MISS:       8670
cpu0_DTLB LOAD      ACCESS:    2733303  HIT:    2724992  MISS:       8311
cpu0_DTLB RFO       ACCESS:    1175803  HIT:    1175444  MISS:        359
cpu0_DTLB PREFETCH  ACCESS:          0  HIT:          0  MISS:          0
cpu0_DTLB WRITEBACK ACCESS:          0  HIT:          0  MISS:          0
cpu0_ITLB TOTAL     ACCESS:    2215619  HIT:    2215619  MISS:          0
cpu0_ITLB LOAD      ACCESS:    2215619  HIT:    2215619  MISS:          0
cpu0_ITLB RFO       ACCESS:          0  HIT:          0  MISS:          0
cpu0_ITLB PREFETCH  ACCESS:          0  HIT:          0  MISS:          0
cpu0_ITLB WRITEBACK ACCESS:          0  HIT:          0  MISS:          0
cpu0_L1I TOTAL     ACCESS:    1243572  HIT:    1242632  MISS:        940
cpu0_L1I LOAD      ACCESS:    1243572  HIT:    1242632  MISS:        940
cpu0_L1I RFO       ACCESS:          0  HIT:          0  MISS:          0
cpu0_L1I PREFETCH  ACCESS:          0  HIT:          0  MISS:          0
cpu0_L1I WRITEBACK ACCESS:          0  HIT:          0  MISS:          0
cpu0_STLB TOTAL     ACCESS:       8670  HIT:       8643  MISS:         27
cpu0_STLB LOAD      ACCESS:       8311  HIT:       8287  MISS:         24
cpu0_STLB RFO       ACCESS:        359  HIT:        356  MISS:          3
cpu0_STLB PREFETCH  ACCESS:          0  HIT:          0  MISS:          0
cpu0_STLB WRITEBACK ACCESS:          0  HIT:          0  MISS:          0
cpu0_L1D TOTAL     ACCESS:    5357183  HIT:    5306111  MISS:      51072
cpu0_L1D LOAD      ACCESS:    3111310  HIT:    3066370  MISS:      44940
cpu0_L1D RFO       ACCESS:    2245847  HIT:    2239731  MISS:       6116
cpu0_L1D PREFETCH  ACCESS:          0  HIT:          0  MISS:          0
cpu0_L1D WRITEBACK ACCESS:          0  HIT:          0  MISS:          0
cpu0_L2C TOTAL     ACCESS:      63397  HIT:      62046  MISS:       1351
cpu0_L2C LOAD      ACCESS:      45880  HIT:      44683  MISS:       1197
cpu0_L2C RFO       ACCESS:       6116  HIT:       5963  MISS:        153
cpu0_L2C PREFETCH  ACCESS:          0  HIT:          0  MISS:          0
cpu0_L2C WRITEBACK ACCESS:      11385  HIT:      11385  MISS:          0
LLC TOTAL     ACCESS:       1483  HIT:        670  MISS:        813
LLC LOAD      ACCESS:       1197  HIT:        533  MISS:        664
LLC RFO       ACCESS:        153  HIT:          4  MISS:        149
LLC PREFETCH  ACCESS:          0  HIT:          0  MISS:          0
LLC WRITEBACK ACCESS:        132  HIT:        132  MISS:          0
Heartbeat CPU 0 instructions: 72000000 cycles: 34224076 heartbeat IPC: 1.01598 cumulative IPC: 1.01507 (Simulation time: 0 hr 38 min 32 sec) 

Region of Interest Statistics
cpu0_DTLB TOTAL     ACCESS:    4303547  HIT:    4293990  MISS:       9557
cpu0_DTLB LOAD      ACCESS:    3008626  HIT:    2999471  MISS:       9155
cpu0_DTLB RFO       ACCESS:    1294921  HIT:    1294519  MISS:        402
cpu0_DTLB PREFETCH  ACCESS:          0  HIT:          0  MISS:          0
cpu0_DTLB WRITEBACK ACCESS:          0  HIT:          0  MISS:          0
cpu0_ITLB TOTAL     ACCESS:    2435719  HIT:    2435719  MISS:          0
cpu0_ITLB LOAD      ACCESS:    2435719  HIT:    2435719  MISS:          0
cpu0_ITLB RFO       ACCESS:          0  HIT:          0  MISS:          0
cpu0_ITLB PREFETCH  ACCESS:          0  HIT:          0  MISS:          0
cpu0_ITLB WRITEBACK ACCESS:          0  HIT:          0  MISS:          0
cpu0_L1I TOTAL     ACCESS:    1372678  HIT:    1371644  MISS:       1034
cpu0_L1I LOAD      ACCESS:    1372678  HIT:    1371644  MISS:       1034
cpu0_L1I RFO       ACCESS:          0  HIT:          0  MISS:          0
cpu0_L1I PREFETCH  ACCESS:          0  HIT:          0  MISS:          0
cpu0_L1I WRITEBACK ACCESS:          0  HIT:          0  MISS:          0
cpu0_STLB TOTAL     ACCESS:       9557  HIT:       9525  MISS:         32
cpu0_STLB LOAD      ACCESS:       9155  HIT:       9129  MISS:         26
cpu0_STLB RFO       ACCESS:        402  HIT:        396  MISS:          6
cpu0_STLB PREFETCH  ACCESS:          0  HIT:          0  MISS:          0
cpu0_STLB WRITEBACK ACCESS:          0  HIT:          0  MISS:          0
cpu0_L1D TOTAL     ACCESS:    5897266  HIT:    5841283  MISS:      55983
cpu0_L1D LOAD      ACCESS:    3424612  HIT:    3375486  MISS:      49126
cpu0_L1D RFO       ACCESS:    2472623  HIT:    2465784  MISS:       6839
cpu0_L1D PREFETCH  ACCESS:          0  HIT:          0  MISS:          0
cpu0_L1D WRITEBACK ACCESS:          0  HIT:          0  MISS:          0
cpu0_L2C TOTAL     ACCESS:      69498  HIT:      67957  MISS:       1541
cpu0_L2C LOAD      ACCESS:      50160  HIT:      48917  MISS:       1243
cpu0_L2C RFO       ACCESS:       6839  HIT:       6543  MISS:        296
cpu0_L2C PREFETCH  ACCESS:          0  HIT:          0  MISS:          0
cpu0_L2C WRITEBACK ACCESS:      12481  HIT:      12481  MISS:          0
LLC TOTAL     ACCESS:       1713  HIT:        745  MISS:        968
LLC LOAD      ACCESS:       1243  HIT:        566  MISS:        677
LLC RFO       ACCESS:        296  HIT:          5  MISS:        291
LLC PREFETCH  ACCESS:          0  HIT:          0  MISS:          0
LLC WRITEBACK ACCESS:        172  HIT:        172  MISS:          0
Heartbeat CPU 0 instructions: 74000000 cycles: 36186774 heartbeat IPC: 1.01901 cumulative IPC: 1.0154 (Simulation time: 0 hr 39 min 32 sec) 

Region of Interest Statistics
cpu0_DTLB TOTAL     ACCESS:    4691139  HIT:    4680644  MISS:      10495
cpu0_DTLB LOAD      ACCESS:    3280157  HIT:    3270105  MISS:      10052
cpu0_DTLB RFO       ACCESS:    1410982  HIT:    1410539  MISS:        443
cpu0_DTLB PREFETCH  ACCESS:          0  HIT:          0  MISS:          0
cpu0_DTLB WRITEBACK ACCESS:          0  HIT:          0  MISS:          0
cpu0_ITLB TOTAL     ACCESS:    2654980  HIT:    2654980  MISS:          0
cpu0_ITLB LOAD      ACCESS:    2654980  HIT:    2654980  MISS:          0
cpu0_ITLB RFO       ACCESS:          0  HIT:          0  MISS:          0
cpu0_ITLB PREFETCH  ACCESS:          0  HIT:          0  MISS:          0
cpu0_ITLB WRITEBACK ACCESS:          0  HIT:          0  MISS:          0
cpu0_L1I TOTAL     ACCESS:    1496276  HIT:    1495147  MISS:       1129
cpu0_L1I LOAD      ACCESS:    1496276  HIT:    1495147  MISS:       1129
cpu0_L1I RFO       ACCESS:          0  HIT:          0  MISS:          0
cpu0_L1I PREFETCH  ACCESS:          0  HIT:          0  MISS:          0
cpu0_L1I WRITEBACK ACCESS:          0  HIT:          0  MISS:          0
cpu0_STLB TOTAL     ACCESS:      10495  HIT:      10459  MISS:         36
cpu0_STLB LOAD      ACCESS:      10052  HIT:      10022  MISS:         30
cpu0_STLB RFO       ACCESS:        443  HIT:        437  MISS:          6
cpu0_STLB PREFETCH  ACCESS:          0  HIT:          0  MISS:          0
cpu0_STLB WRITEBACK ACCESS:          0  HIT:          0  MISS:          0
cpu0_L1D TOTAL     ACCESS:    6427563  HIT:    6365586  MISS:      61977
cpu0_L1D LOAD      ACCESS:    3734197  HIT:    3679786  MISS:      54411
cpu0_L1D RFO       ACCESS:    2693331  HIT:    2685787  MISS:       7544
cpu0_L1D PREFETCH  ACCESS:          0  HIT:          0  MISS:          0
cpu0_L1D WRITEBACK ACCESS:          0  HIT:          0  MISS:          0
cpu0_L2C TOTAL     ACCESS:      77054  HIT:      75449  MISS:       1605
cpu0_L2C LOAD      ACCESS:      55540  HIT:      54260  MISS:       1280
cpu0_L2C RFO       ACCESS:       7544  HIT:       7221  MISS:        323
cpu0_L2C PREFETCH  ACCESS:          0  HIT:          0  MISS:          0
cpu0_L2C WRITEBACK ACCESS:      13948  HIT:      13948  MISS:          0
LLC TOTAL     ACCESS:       1781  HIT:        770  MISS:       1011
LLC LOAD      ACCESS:       1280  HIT:        587  MISS:        693
LLC RFO       ACCESS:        323  HIT:          5  MISS:        318
LLC PREFETCH  ACCESS:          0  HIT:          0  MISS:          0
LLC WRITEBACK ACCESS:        176  HIT:        176  MISS:          0
Heartbeat CPU 0 instructions: 76000003 cycles: 38138046 heartbeat IPC: 1.02497 cumulative IPC: 1.01613 (Simulation time: 0 hr 40 min 33 sec) 

Region of Interest Statistics
cpu0_DTLB TOTAL     ACCESS:    5078562  HIT:    5067166  MISS:      11396
cpu0_DTLB LOAD      ACCESS:    3551228  HIT:    3540305  MISS:      10923
cpu0_DTLB RFO       ACCESS:    1527334  HIT:    1526861  MISS:        473
cpu0_DTLB PREFETCH  ACCESS:          0  HIT:          0  MISS:          0
cpu0_DTLB WRITEBACK ACCESS:          0  HIT:          0  MISS:          0
cpu0_ITLB TOTAL     ACCESS:    2874275  HIT:    2874275  MISS:          0
cpu0_ITLB LOAD      ACCESS:    2874275  HIT:    2874275  MISS:          0
cpu0_ITLB RFO       ACCESS:          0  HIT:          0  MISS:          0
cpu0_ITLB PREFETCH  ACCESS:          0  HIT:          0  MISS:          0
cpu0_ITLB WRITEBACK ACCESS:          0  HIT:          0  MISS:          0
cpu0_L1I TOTAL     ACCESS:    1619174  HIT:    1617950  MISS:       1224
cpu0_L1I LOAD      ACCESS:    1619174  HIT:    1617950  MISS:       1224
cpu0_L1I RFO       ACCESS:          0  HIT:          0  MISS:          0
cpu0_L1I PREFETCH  ACCESS:          0  HIT:          0  MISS:          0
cpu0_L1I WRITEBACK ACCESS:          0  HIT:          0  MISS:          0
cpu0_STLB TOTAL     ACCESS:      11396  HIT:      11357  MISS:         39
cpu0_STLB LOAD      ACCESS:      10923  HIT:      10890  MISS:         33
cpu0_STLB RFO       ACCESS:        473  HIT:        467  MISS:          6
cpu0_STLB PREFETCH  ACCESS:          0  HIT:          0  MISS:          0
cpu0_STLB WRITEBACK ACCESS:          0  HIT:          0  MISS:          0
cpu0_L1D TOTAL     ACCESS:    6957028  HIT:    6889128  MISS:      67900
cpu0_L1D LOAD      ACCESS:    4042552  HIT:    3982932  MISS:      59620
cpu0_L1D RFO       ACCESS:    2914438  HIT:    2906183  MISS:       8255
cpu0_L1D PREFETCH  ACCESS:          0  HIT:          0  MISS:          0
cpu0_L1D WRITEBACK ACCESS:          0  HIT:          0  MISS:          0
cpu0_L2C TOTAL     ACCESS:      84396  HIT:      82754  MISS:       1642
cpu0_L2C LOAD      ACCESS:      60844  HIT:      59527  MISS:       1317
cpu0_L2C RFO       ACCESS:       8255  HIT:       7932  MISS:        323
cpu0_L2C PREFETCH  ACCESS:          0  HIT:          0  MISS:          0
cpu0_L2C WRITEBACK ACCESS:      15272  HIT:      15272  MISS:          0
LLC TOTAL     ACCESS:       1827  HIT:        798  MISS:       1029
LLC LOAD      ACCESS:       1317  HIT:        606  MISS:        711
LLC RFO       ACCESS:        323  HIT:          5  MISS:        318
LLC PREFETCH  ACCESS:          0  HIT:          0  MISS:          0
LLC WRITEBACK ACCESS:        185  HIT:        185  MISS:          0
Heartbeat CPU 0 instructions: 78000000 cycles: 40079777 heartbeat IPC: 1.03001 cumulative IPC: 1.01711 (Simulation time: 0 hr 41 min 32 sec) 

Region of Interest Statistics
cpu0_DTLB TOTAL     ACCESS:    5464434  HIT:    5452197  MISS:      12237
cpu0_DTLB LOAD      ACCESS:    3820596  HIT:    3808866  MISS:      11730
cpu0_DTLB RFO       ACCESS:    1643838  HIT:    1643331  MISS:        507
cpu0_DTLB PREFETCH  ACCESS:          0  HIT:          0  MISS:          0
cpu0_DTLB WRITEBACK ACCESS:          0  HIT:          0  MISS:          0
cpu0_ITLB TOTAL     ACCESS:    3093289  HIT:    3093289  MISS:          0
cpu0_ITLB LOAD      ACCESS:    3093289  HIT:    3093289  MISS:          0
cpu0_ITLB RFO       ACCESS:          0  HIT:          0  MISS:          0
cpu0_ITLB PREFETCH  ACCESS:          0  HIT:          0  MISS:          0
cpu0_ITLB WRITEBACK ACCESS:          0  HIT:          0  MISS:          0
cpu0_L1I TOTAL     ACCESS:    1742358  HIT:    1741039  MISS:       1319
cpu0_L1I LOAD      ACCESS:    1742358  HIT:    1741039  MISS:       1319
cpu0_L1I RFO       ACCESS:          0  HIT:          0  MISS:          0
cpu0_L1I PREFETCH  ACCESS:          0  HIT:          0  MISS:          0
cpu0_L1I WRITEBACK ACCESS:          0  HIT:          0  MISS:          0
cpu0_STLB TOTAL     ACCESS:      12237  HIT:      12196  MISS:         41
cpu0_STLB LOAD      ACCESS:      11730  HIT:      11695  MISS:         35
cpu0_STLB RFO       ACCESS:        507  HIT:        501  MISS:          6
cpu0_STLB PREFETCH  ACCESS:          0  HIT:          0  MISS:          0
cpu0_STLB WRITEBACK ACCESS:          0  HIT:          0  MISS:          0
cpu0_L1D TOTAL     ACCESS:    7486173  HIT:    7412263  MISS:      73910
cpu0_L1D LOAD      ACCESS:    4349365  HIT:    4284444  MISS:      64921
cpu0_L1D RFO       ACCESS:    3136768  HIT:    3127806  MISS:       8962
cpu0_L1D PREFETCH  ACCESS:          0  HIT:          0  MISS:          0
cpu0_L1D WRITEBACK ACCESS:          0  HIT:          0  MISS:          0
cpu0_L2C TOTAL     ACCESS:      91833  HIT:      90159  MISS:       1674
cpu0_L2C LOAD      ACCESS:      66240  HIT:      64891  MISS:       1349
cpu0_L2C RFO       ACCESS:       8962  HIT:       8639  MISS:        323
cpu0_L2C PREFETCH  ACCESS:          0  HIT:          0  MISS:          0
cpu0_L2C WRITEBACK ACCESS:      16604  HIT:      16604  MISS:          0
LLC TOTAL     ACCESS:       1868  HIT:        824  MISS:       1044
LLC LOAD      ACCESS:       1349  HIT:        623  MISS:        726
LLC RFO       ACCESS:        323  HIT:          5  MISS:        318
LLC PREFETCH  ACCESS:          0  HIT:          0  MISS:          0
LLC WRITEBACK ACCESS:        194  HIT:        194  MISS:          0
Heartbeat CPU 0 instructions: 80000000 cycles: 42045029 heartbeat IPC: 1.01768 cumulative IPC: 1.01715 (Simulation time: 0 hr 42 min 33 sec) 

Region of Interest Statistics
cpu0_DTLB TOTAL     ACCESS:    5848799  HIT:    5835666  MISS:      13133
cpu0_DTLB LOAD      ACCESS:    4088838  HIT:    4076246  MISS:      12592
cpu0_DTLB RFO       ACCESS:    1759961  HIT:    1759420  MISS:        541
cpu0_DTLB PREFETCH  ACCESS:          0  HIT:          0  MISS:          0
cpu0_DTLB WRITEBACK ACCESS:          0  HIT:          0  MISS:          0
cpu0_ITLB TOTAL     ACCESS:    3311803  HIT:    3311803  MISS:          0
cpu0_ITLB LOAD      ACCESS:    3311803  HIT:    3311803  MISS:          0
cpu0_ITLB RFO       ACCESS:          0  HIT:          0  MISS:          0
cpu0_ITLB PREFETCH  ACCESS:          0  HIT:          0  MISS:          0
cpu0_ITLB WRITEBACK ACCESS:          0  HIT:          0  MISS:          0
cpu0_L1I TOTAL     ACCESS:    1867868  HIT:    1866455  MISS:       1413
cpu0_L1I LOAD      ACCESS:    1867868  HIT:    1866455  MISS:       1413
cpu0_L1I RFO       ACCESS:          0  HIT:          0  MISS:          0
cpu0_L1I PREFETCH  ACCESS:          0  HIT:          0  MISS:          0
cpu0_L1I WRITEBACK ACCESS:          0  HIT:          0  MISS:          0
cpu0_STLB TOTAL     ACCESS:      13133  HIT:      13088  MISS:         45
cpu0_STLB LOAD      ACCESS:      12592  HIT:      12553  MISS:         39
cpu0_STLB RFO       ACCESS:        541  HIT:        535  MISS:          6
cpu0_STLB PREFETCH  ACCESS:          0  HIT:          0  MISS:          0
cpu0_STLB WRITEBACK ACCESS:          0  HIT:          0  MISS:          0
cpu0_L1D TOTAL     ACCESS:    8013523  HIT:    7933609  MISS:      79914
cpu0_L1D LOAD      ACCESS:    4654591  HIT:    4584379  MISS:      70212
cpu0_L1D RFO       ACCESS:    3358888  HIT:    3349216  MISS:       9672
cpu0_L1D PREFETCH  ACCESS:          0  HIT:          0  MISS:          0
cpu0_L1D WRITEBACK ACCESS:          0  HIT:          0  MISS:          0
cpu0_L2C TOTAL     ACCESS:      99259  HIT:      97549  MISS:       1710
cpu0_L2C LOAD      ACCESS:      71625  HIT:      70240  MISS:       1385
cpu0_L2C RFO       ACCESS:       9672  HIT:       9349  MISS:        323
cpu0_L2C PREFETCH  ACCESS:          0  HIT:          0  MISS:          0
cpu0_L2C WRITEBACK ACCESS:      17932  HIT:      17932  MISS:          0
LLC TOTAL     ACCESS:       1907  HIT:        845  MISS:       1062
LLC LOAD      ACCESS:       1385  HIT:        641  MISS:        744
LLC RFO       ACCESS:        323  HIT:          5  MISS:        318
LLC PREFETCH  ACCESS:          0  HIT:          0  MISS:          0
LLC WRITEBACK ACCESS:        197  HIT:        197  MISS:          0
Heartbeat CPU 0 instructions: 82000002 cycles: 44025045 heartbeat IPC: 1.01009 cumulative IPC: 1.0167 (Simulation time: 0 hr 43 min 33 sec) 

Region of Interest Statistics
cpu0_DTLB TOTAL     ACCESS:    6235034  HIT:    6221003  MISS:      14031
cpu0_DTLB LOAD      ACCESS:    4357712  HIT:    4344255  MISS:      13457
cpu0_DTLB RFO       ACCESS:    1877322  HIT:    1876748  MISS:        574
cpu0_DTLB PREFETCH  ACCESS:          0  HIT:          0  MISS:          0
cpu0_DTLB WRITEBACK ACCESS:          0  HIT:          0  MISS:          0
cpu0_ITLB TOTAL     ACCESS:    3531252  HIT:    3531252  MISS:          0
cpu0_ITLB LOAD      ACCESS:    3531252  HIT:    3531252  MISS:          0
cpu0_ITLB RFO       ACCESS:          0  HIT:          0  MISS:          0
cpu0_ITLB PREFETCH  ACCESS:          0  HIT:          0  MISS:          0
cpu0_ITLB WRITEBACK ACCESS:          0  HIT:          0  MISS:          0
cpu0_L1I TOTAL     ACCESS:    1991451  HIT:    1989941  MISS:       1510
cpu0_L1I LOAD      ACCESS:    1991451  HIT:    1989941  MISS:       1510
cpu0_L1I RFO       ACCESS:          0  HIT:          0  MISS:          0
cpu0_L1I PREFETCH  ACCESS:          0  HIT:          0  MISS:          0
cpu0_L1I WRITEBACK ACCESS:          0  HIT:          0  MISS:          0
cpu0_STLB TOTAL     ACCESS:      14031  HIT:      13983  MISS:         48
cpu0_STLB LOAD      ACCESS:      13457  HIT:      13415  MISS:         42
cpu0_STLB RFO       ACCESS:        574  HIT:        568  MISS:          6
cpu0_STLB PREFETCH  ACCESS:          0  HIT:          0  MISS:          0
cpu0_STLB WRITEBACK ACCESS:          0  HIT:          0  MISS:          0
cpu0_L1D TOTAL     ACCESS:    8543216  HIT:    8457216  MISS:      86000
cpu0_L1D LOAD      ACCESS:    4960121  HIT:    4884539  MISS:      75582
cpu0_L1D RFO       ACCESS:    3583048  HIT:    3572663  MISS:      10385
cpu0_L1D PREFETCH  ACCESS:          0  HIT:          0  MISS:          0
cpu0_L1D WRITEBACK ACCESS:          0  HIT:          0  MISS:          0
cpu0_L2C TOTAL     ACCESS:     106780  HIT:     105024  MISS:       1756
cpu0_L2C LOAD      ACCESS:      77092  HIT:      75662  MISS:       1430
cpu0_L2C RFO       ACCESS:      10385  HIT:      10061  MISS:        324
cpu0_L2C PREFETCH  ACCESS:          0  HIT:          0  MISS:          0
cpu0_L2C WRITEBACK ACCESS:      19270  HIT:      19270  MISS:          0
LLC TOTAL     ACCESS:       1960  HIT:        881  MISS:       1079
LLC LOAD      ACCESS:       1430  HIT:        670  MISS:        760
LLC RFO       ACCESS:        324  HIT:          5  MISS:        319
LLC PREFETCH  ACCESS:          0  HIT:          0  MISS:          0
LLC WRITEBACK ACCESS:        204  HIT:        204  MISS:          0
Heartbeat CPU 0 instructions: 84000000 cycles: 46011674 heartbeat IPC: 1.00673 cumulative IPC: 1.01611 (Simulation time: 0 hr 44 min 33 sec) 

Region of Interest Statistics
cpu0_DTLB TOTAL     ACCESS:    6626463  HIT:    6611457  MISS:      15006
cpu0_DTLB LOAD      ACCESS:    4630615  HIT:    4616220  MISS:      14395
cpu0_DTLB RFO       ACCESS:    1995848  HIT:    1995237  MISS:        611
cpu0_DTLB PREFETCH  ACCESS:          0  HIT:          0  MISS:          0
cpu0_DTLB WRITEBACK ACCESS:          0  HIT:          0  MISS:          0
cpu0_ITLB TOTAL     ACCESS:    3753857  HIT:    3753857  MISS:          0
cpu0_ITLB LOAD      ACCESS:    3753857  HIT:    3753857  MISS:          0
cpu0_ITLB RFO       ACCESS:          0  HIT:          0  MISS:          0
cpu0_ITLB PREFETCH  ACCESS:          0  HIT:          0  MISS:          0
cpu0_ITLB WRITEBACK ACCESS:          0  HIT:          0  MISS:          0
cpu0_L1I TOTAL     ACCESS:    2117990  HIT:    2116353  MISS:       1637
cpu0_L1I LOAD      ACCESS:    2117990  HIT:    2116353  MISS:       1637
cpu0_L1I RFO       ACCESS:          0  HIT:          0  MISS:          0
cpu0_L1I PREFETCH  ACCESS:          0  HIT:          0  MISS:          0
cpu0_L1I WRITEBACK ACCESS:          0  HIT:          0  MISS:          0
cpu0_STLB TOTAL     ACCESS:      15006  HIT:      14954  MISS:         52
cpu0_STLB LOAD      ACCESS:      14395  HIT:      14349  MISS:         46
cpu0_STLB RFO       ACCESS:        611  HIT:        605  MISS:          6
cpu0_STLB PREFETCH  ACCESS:          0  HIT:          0  MISS:          0
cpu0_STLB WRITEBACK ACCESS:          0  HIT:          0  MISS:          0
cpu0_L1D TOTAL     ACCESS:    9078083  HIT:    8986167  MISS:      91916
cpu0_L1D LOAD      ACCESS:    5270830  HIT:    5190088  MISS:      80742
cpu0_L1D RFO       ACCESS:    3807202  HIT:    3796065  MISS:      11137
cpu0_L1D PREFETCH  ACCESS:          0  HIT:          0  MISS:          0
cpu0_L1D WRITEBACK ACCESS:          0  HIT:          0  MISS:          0
cpu0_L2C TOTAL     ACCESS:     114117  HIT:     112330  MISS:       1787
cpu0_L2C LOAD      ACCESS:      82379  HIT:      80918  MISS:       1461
cpu0_L2C RFO       ACCESS:      11137  HIT:      10813  MISS:        324
cpu0_L2C PREFETCH  ACCESS:          0  HIT:          0  MISS:          0
cpu0_L2C WRITEBACK ACCESS:      20564  HIT:      20564  MISS:          0
LLC TOTAL     ACCESS:       1996  HIT:        904  MISS:       1092
LLC LOAD      ACCESS:       1461  HIT:        688  MISS:        773
LLC RFO       ACCESS:        324  HIT:          5  MISS:        319
LLC PREFETCH  ACCESS:          0  HIT:          0  MISS:          0
LLC WRITEBACK ACCESS:        209  HIT:        209  MISS:          0
Heartbeat CPU 0 instructions: 86000000 cycles: 47995397 heartbeat IPC: 1.00821 cumulative IPC: 1.01567 (Simulation time: 0 hr 45 min 31 sec) 

Region of Interest Statistics
cpu0_DTLB TOTAL     ACCESS:    7023504  HIT:    7007751  MISS:      15753
cpu0_DTLB LOAD      ACCESS:    4907177  HIT:    4892054  MISS:      15123
cpu0_DTLB RFO       ACCESS:    2116327  HIT:    2115697  MISS:        630
cpu0_DTLB PREFETCH  ACCESS:          0  HIT:          0  MISS:          0
cpu0_DTLB WRITEBACK ACCESS:          0  HIT:          0  MISS:          0
cpu0_ITLB TOTAL     ACCESS:    3979291  HIT:    3979291  MISS:          0
cpu0_ITLB LOAD      ACCESS:    3979291  HIT:    3979291  MISS:          0
cpu0_ITLB RFO       ACCESS:          0  HIT:          0  MISS:          0
cpu0_ITLB PREFETCH  ACCESS:          0  HIT:          0  MISS:          0
cpu0_ITLB WRITEBACK ACCESS:          0  HIT:          0  MISS:          0
cpu0_L1I TOTAL     ACCESS:    2246303  HIT:    2244567  MISS:       1736
cpu0_L1I LOAD      ACCESS:    2246303  HIT:    2244567  MISS:       1736
cpu0_L1I RFO       ACCESS:          0  HIT:          0  MISS:          0
cpu0_L1I PREFETCH  ACCESS:          0  HIT:          0  MISS:          0
cpu0_L1I WRITEBACK ACCESS:          0  HIT:          0  MISS:          0
cpu0_STLB TOTAL     ACCESS:      15753  HIT:      15701  MISS:         52
cpu0_STLB LOAD      ACCESS:      15123  HIT:      15077  MISS:         46
cpu0_STLB RFO       ACCESS:        630  HIT:        624  MISS:          6
cpu0_STLB PREFETCH  ACCESS:          0  HIT:          0  MISS:          0
cpu0_STLB WRITEBACK ACCESS:          0  HIT:          0  MISS:          0
cpu0_L1D TOTAL     ACCESS:    9628276  HIT:    9533559  MISS:      94717
cpu0_L1D LOAD      ACCESS:    5585553  HIT:    5502281  MISS:      83272
cpu0_L1D RFO       ACCESS:    4042672  HIT:    4031264  MISS:      11408
cpu0_L1D PREFETCH  ACCESS:          0  HIT:          0  MISS:          0
cpu0_L1D WRITEBACK ACCESS:          0  HIT:          0  MISS:          0
cpu0_L2C TOTAL     ACCESS:     117514  HIT:     115696  MISS:       1818
cpu0_L2C LOAD      ACCESS:      85008  HIT:      83516  MISS:       1492
cpu0_L2C RFO       ACCESS:      11408  HIT:      11084  MISS:        324
cpu0_L2C PREFETCH  ACCESS:          0  HIT:          0  MISS:          0
cpu0_L2C WRITEBACK ACCESS:      21061  HIT:      21061  MISS:          0
LLC TOTAL     ACCESS:       2036  HIT:        930  MISS:       1106
LLC LOAD      ACCESS:       1492  HIT:        705  MISS:        787
LLC RFO       ACCESS:        324  HIT:          5  MISS:        319
LLC PREFETCH  ACCESS:          0  HIT:          0  MISS:          0
LLC WRITEBACK ACCESS:        218  HIT:        218  MISS:          0
Heartbeat CPU 0 instructions: 88000004 cycles: 49973199 heartbeat IPC: 1.01123 cumulative IPC: 1.01543 (Simulation time: 0 hr 46 min 32 sec) 

Region of Interest Statistics
cpu0_DTLB TOTAL     ACCESS:    7423313  HIT:    7406830  MISS:      16483
cpu0_DTLB LOAD      ACCESS:    5188042  HIT:    5172210  MISS:      15832
cpu0_DTLB RFO       ACCESS:    2235271  HIT:    2234620  MISS:        651
cpu0_DTLB PREFETCH  ACCESS:          0  HIT:          0  MISS:          0
cpu0_DTLB WRITEBACK ACCESS:          0  HIT:          0  MISS:          0
cpu0_ITLB TOTAL     ACCESS:    4207347  HIT:    4207347  MISS:          0
cpu0_ITLB LOAD      ACCESS:    4207347  HIT:    4207347  MISS:          0
cpu0_ITLB RFO       ACCESS:          0  HIT:          0  MISS:          0
cpu0_ITLB PREFETCH  ACCESS:          0  HIT:          0  MISS:          0
cpu0_ITLB WRITEBACK ACCESS:          0  HIT:          0  MISS:          0
cpu0_L1I TOTAL     ACCESS:    2370411  HIT:    2368582  MISS:       1829
cpu0_L1I LOAD      ACCESS:    2370411  HIT:    2368582  MISS:       1829
cpu0_L1I RFO       ACCESS:          0  HIT:          0  MISS:          0
cpu0_L1I PREFETCH  ACCESS:          0  HIT:          0  MISS:          0
cpu0_L1I WRITEBACK ACCESS:          0  HIT:          0  MISS:          0
cpu0_STLB TOTAL     ACCESS:      16483  HIT:      16431  MISS:         52
cpu0_STLB LOAD      ACCESS:      15832  HIT:      15786  MISS:         46
cpu0_STLB RFO       ACCESS:        651  HIT:        645  MISS:          6
cpu0_STLB PREFETCH  ACCESS:          0  HIT:          0  MISS:          0
cpu0_STLB WRITEBACK ACCESS:          0  HIT:          0  MISS:          0
cpu0_L1D TOTAL     ACCESS:   10180301  HIT:   10082936  MISS:      97365
cpu0_L1D LOAD      ACCESS:    5906217  HIT:    5820546  MISS:      85671
cpu0_L1D RFO       ACCESS:    4274033  HIT:    4262376  MISS:      11657
cpu0_L1D PREFETCH  ACCESS:          0  HIT:          0  MISS:          0
cpu0_L1D WRITEBACK ACCESS:          0  HIT:          0  MISS:          0
cpu0_L2C TOTAL     ACCESS:     120745  HIT:     118908  MISS:       1837
cpu0_L2C LOAD      ACCESS:      87500  HIT:      85989  MISS:       1511
cpu0_L2C RFO       ACCESS:      11657  HIT:      11333  MISS:        324
cpu0_L2C PREFETCH  ACCESS:          0  HIT:          0  MISS:          0
cpu0_L2C WRITEBACK ACCESS:      21551  HIT:      21551  MISS:          0
LLC TOTAL     ACCESS:       2056  HIT:        941  MISS:       1115
LLC LOAD      ACCESS:       1511  HIT:        715  MISS:        796
LLC RFO       ACCESS:        324  HIT:          5  MISS:        319
LLC PREFETCH  ACCESS:          0  HIT:          0  MISS:          0
LLC WRITEBACK ACCESS:        219  HIT:        219  MISS:          0
Heartbeat CPU 0 instructions: 90000004 cycles: 51994701 heartbeat IPC: 0.989363 cumulative IPC: 1.0141 (Simulation time: 0 hr 47 min 32 sec) 

Region of Interest Statistics
cpu0_DTLB TOTAL     ACCESS:    7823992  HIT:    7806747  MISS:      17245
cpu0_DTLB LOAD      ACCESS:    5469578  HIT:    5453008  MISS:      16570
cpu0_DTLB RFO       ACCESS:    2354414  HIT:    2353739  MISS:        675
cpu0_DTLB PREFETCH  ACCESS:          0  HIT:          0  MISS:          0
cpu0_DTLB WRITEBACK ACCESS:          0  HIT:          0  MISS:          0
cpu0_ITLB TOTAL     ACCESS:    4434234  HIT:    4434234  MISS:          0
cpu0_ITLB LOAD      ACCESS:    4434234  HIT:    4434234  MISS:          0
cpu0_ITLB RFO       ACCESS:          0  HIT:          0  MISS:          0
cpu0_ITLB PREFETCH  ACCESS:          0  HIT:          0  MISS:          0
cpu0_ITLB WRITEBACK ACCESS:          0  HIT:          0  MISS:          0
cpu0_L1I TOTAL     ACCESS:    2496134  HIT:    2494211  MISS:       1923
cpu0_L1I LOAD      ACCESS:    2496134  HIT:    2494211  MISS:       1923
cpu0_L1I RFO       ACCESS:          0  HIT:          0  MISS:          0
cpu0_L1I PREFETCH  ACCESS:          0  HIT:          0  MISS:          0
cpu0_L1I WRITEBACK ACCESS:          0  HIT:          0  MISS:          0
cpu0_STLB TOTAL     ACCESS:      17245  HIT:      17193  MISS:         52
cpu0_STLB LOAD      ACCESS:      16570  HIT:      16524  MISS:         46
cpu0_STLB RFO       ACCESS:        675  HIT:        669  MISS:          6
cpu0_STLB PREFETCH  ACCESS:          0  HIT:          0  MISS:          0
cpu0_STLB WRITEBACK ACCESS:          0  HIT:          0  MISS:          0
cpu0_L1D TOTAL     ACCESS:   10732449  HIT:   10632374  MISS:     100075
cpu0_L1D LOAD      ACCESS:    6227238  HIT:    6139112  MISS:      88126
cpu0_L1D RFO       ACCESS:    4505160  HIT:    4493248  MISS:      11912
cpu0_L1D PREFETCH  ACCESS:          0  HIT:          0  MISS:          0
cpu0_L1D WRITEBACK ACCESS:          0  HIT:          0  MISS:          0
cpu0_L2C TOTAL     ACCESS:     124000  HIT:     122131  MISS:       1869
cpu0_L2C LOAD      ACCESS:      90049  HIT:      88506  MISS:       1543
cpu0_L2C RFO       ACCESS:      11912  HIT:      11588  MISS:        324
cpu0_L2C PREFETCH  ACCESS:          0  HIT:          0  MISS:          0
cpu0_L2C WRITEBACK ACCESS:      22002  HIT:      22002  MISS:          0
LLC TOTAL     ACCESS:       2094  HIT:        963  MISS:       1131
LLC LOAD      ACCESS:       1543  HIT:        731  MISS:        812
LLC RFO       ACCESS:        324  HIT:          5  MISS:        319
LLC PREFETCH  ACCESS:          0  HIT:          0  MISS:          0
LLC WRITEBACK ACCESS:        225  HIT:        225  MISS:          0
Heartbeat CPU 0 instructions: 92000001 cycles: 54025356 heartbeat IPC: 0.984902 cumulative IPC: 1.01267 (Simulation time: 0 hr 48 min 31 sec) 

Region of Interest Statistics
cpu0_DTLB TOTAL     ACCESS:    8220855  HIT:    8202744  MISS:      18111
cpu0_DTLB LOAD      ACCESS:    5745293  HIT:    5727901  MISS:      17392
cpu0_DTLB RFO       ACCESS:    2475562  HIT:    2474843  MISS:        719
cpu0_DTLB PREFETCH  ACCESS:          0  HIT:          0  MISS:          0
cpu0_DTLB WRITEBACK ACCESS:          0  HIT:          0  MISS:          0
cpu0_ITLB TOTAL     ACCESS:    4656867  HIT:    4656867  MISS:          0
cpu0_ITLB LOAD      ACCESS:    4656867  HIT:    4656867  MISS:          0
cpu0_ITLB RFO       ACCESS:          0  HIT:          0  MISS:          0
cpu0_ITLB PREFETCH  ACCESS:          0  HIT:          0  MISS:          0
cpu0_ITLB WRITEBACK ACCESS:          0  HIT:          0  MISS:          0
cpu0_L1I TOTAL     ACCESS:    2627556  HIT:    2625537  MISS:       2019
cpu0_L1I LOAD      ACCESS:    2627556  HIT:    2625537  MISS:       2019
cpu0_L1I RFO       ACCESS:          0  HIT:          0  MISS:          0
cpu0_L1I PREFETCH  ACCESS:          0  HIT:          0  MISS:          0
cpu0_L1I WRITEBACK ACCESS:          0  HIT:          0  MISS:          0
cpu0_STLB TOTAL     ACCESS:      18111  HIT:      18039  MISS:         72
cpu0_STLB LOAD      ACCESS:      17392  HIT:      17335  MISS:         57
cpu0_STLB RFO       ACCESS:        719  HIT:        704  MISS:         15
cpu0_STLB PREFETCH  ACCESS:          0  HIT:          0  MISS:          0
cpu0_STLB WRITEBACK ACCESS:          0  HIT:          0  MISS:          0
cpu0_L1D TOTAL     ACCESS:   11280738  HIT:   11176891  MISS:     103847
cpu0_L1D LOAD      ACCESS:    6541490  HIT:    6450187  MISS:      91303
cpu0_L1D RFO       ACCESS:    4739179  HIT:    4726678  MISS:      12501
cpu0_L1D PREFETCH  ACCESS:          0  HIT:          0  MISS:          0
cpu0_L1D WRITEBACK ACCESS:          0  HIT:          0  MISS:          0
cpu0_L2C TOTAL     ACCESS:     128832  HIT:     126517  MISS:       2315
cpu0_L2C LOAD      ACCESS:      93322  HIT:      91553  MISS:       1769
cpu0_L2C RFO       ACCESS:      12501  HIT:      11958  MISS:        543
cpu0_L2C PREFETCH  ACCESS:          0  HIT:          0  MISS:          0
cpu0_L2C WRITEBACK ACCESS:      22966  HIT:      22966  MISS:          0
LLC TOTAL     ACCESS:       2607  HIT:       1055  MISS:       1552
LLC LOAD      ACCESS:       1769  HIT:        753  MISS:       1016
LLC RFO       ACCESS:        543  HIT:          7  MISS:        536
LLC PREFETCH  ACCESS:          0  HIT:          0  MISS:          0
LLC WRITEBACK ACCESS:        292  HIT:        292  MISS:          0
Heartbeat CPU 0 instructions: 94000003 cycles: 55998779 heartbeat IPC: 1.01347 cumulative IPC: 1.0127 (Simulation time: 0 hr 49 min 31 sec) 

Region of Interest Statistics
cpu0_DTLB TOTAL     ACCESS:    8617744  HIT:    8598791  MISS:      18953
cpu0_DTLB LOAD      ACCESS:    6021762  HIT:    6003570  MISS:      18192
cpu0_DTLB RFO       ACCESS:    2595982  HIT:    2595221  MISS:        761
cpu0_DTLB PREFETCH  ACCESS:          0  HIT:          0  MISS:          0
cpu0_DTLB WRITEBACK ACCESS:          0  HIT:          0  MISS:          0
cpu0_ITLB TOTAL     ACCESS:    4881053  HIT:    4881053  MISS:          0
cpu0_ITLB LOAD      ACCESS:    4881053  HIT:    4881053  MISS:          0
cpu0_ITLB RFO       ACCESS:          0  HIT:          0  MISS:          0
cpu0_ITLB PREFETCH  ACCESS:          0  HIT:          0  MISS:          0
cpu0_ITLB WRITEBACK ACCESS:          0  HIT:          0  MISS:          0
cpu0_L1I TOTAL     ACCESS:    2756191  HIT:    2754077  MISS:       2114
cpu0_L1I LOAD      ACCESS:    2756191  HIT:    2754077  MISS:       2114
cpu0_L1I RFO       ACCESS:          0  HIT:          0  MISS:          0
cpu0_L1I PREFETCH  ACCESS:          0  HIT:          0  MISS:          0
cpu0_L1I WRITEBACK ACCESS:          0  HIT:          0  MISS:          0
cpu0_STLB TOTAL     ACCESS:      18953  HIT:      18879  MISS:         74
cpu0_STLB LOAD      ACCESS:      18192  HIT:      18133  MISS:         59
cpu0_STLB RFO       ACCESS:        761  HIT:        746  MISS:         15
cpu0_STLB PREFETCH  ACCESS:          0  HIT:          0  MISS:          0
cpu0_STLB WRITEBACK ACCESS:          0  HIT:          0  MISS:          0
cpu0_L1D TOTAL     ACCESS:   11827594  HIT:   11719786  MISS:     107808
cpu0_L1D LOAD      ACCESS:    6857113  HIT:    6762476  MISS:      94637
cpu0_L1D RFO       ACCESS:    4970410  HIT:    4957284  MISS:      13126
cpu0_L1D PREFETCH  ACCESS:          0  HIT:          0  MISS:          0
cpu0_L1D WRITEBACK ACCESS:          0  HIT:          0  MISS:          0
cpu0_L2C TOTAL     ACCESS:     133823  HIT:     131353  MISS:       2470
cpu0_L2C LOAD      ACCESS:      96751  HIT:      94952  MISS:       1799
cpu0_L2C RFO       ACCESS:      13126  HIT:      12458  MISS:        668
cpu0_L2C PREFETCH  ACCESS:          0  HIT:          0  MISS:          0
cpu0_L2C WRITEBACK ACCESS:      23901  HIT:      23901  MISS:          0
LLC TOTAL     ACCESS:       2779  HIT:       1080  MISS:       1699
LLC LOAD      ACCESS:       1799  HIT:        761  MISS:       1038
LLC RFO       ACCESS:        668  HIT:          7  MISS:        661
LLC PREFETCH  ACCESS:          0  HIT:          0  MISS:          0
LLC WRITEBACK ACCESS:        309  HIT:        309  MISS:          0
Heartbeat CPU 0 instructions: 96000003 cycles: 57971736 heartbeat IPC: 1.01371 cumulative IPC: 1.01275 (Simulation time: 0 hr 50 min 32 sec) 

Region of Interest Statistics
cpu0_DTLB TOTAL     ACCESS:    9005793  HIT:    8985916  MISS:      19877
cpu0_DTLB LOAD      ACCESS:    6293818  HIT:    6274744  MISS:      19074
cpu0_DTLB RFO       ACCESS:    2711975  HIT:    2711172  MISS:        803
cpu0_DTLB PREFETCH  ACCESS:          0  HIT:          0  MISS:          0
cpu0_DTLB WRITEBACK ACCESS:          0  HIT:          0  MISS:          0
cpu0_ITLB TOTAL     ACCESS:    5102387  HIT:    5102387  MISS:          0
cpu0_ITLB LOAD      ACCESS:    5102387  HIT:    5102387  MISS:          0
cpu0_ITLB RFO       ACCESS:          0  HIT:          0  MISS:          0
cpu0_ITLB PREFETCH  ACCESS:          0  HIT:          0  MISS:          0
cpu0_ITLB WRITEBACK ACCESS:          0  HIT:          0  MISS:          0
cpu0_L1I TOTAL     ACCESS:    2879387  HIT:    2877180  MISS:       2207
cpu0_L1I LOAD      ACCESS:    2879387  HIT:    2877180  MISS:       2207
cpu0_L1I RFO       ACCESS:          0  HIT:          0  MISS:          0
cpu0_L1I PREFETCH  ACCESS:          0  HIT:          0  MISS:          0
cpu0_L1I WRITEBACK ACCESS:          0  HIT:          0  MISS:          0
cpu0_STLB TOTAL     ACCESS:      19877  HIT:      19799  MISS:         78
cpu0_STLB LOAD      ACCESS:      19074  HIT:      19011  MISS:         63
cpu0_STLB RFO       ACCESS:        803  HIT:        788  MISS:         15
cpu0_STLB PREFETCH  ACCESS:          0  HIT:          0  MISS:          0
cpu0_STLB WRITEBACK ACCESS:          0  HIT:          0  MISS:          0
cpu0_L1D TOTAL     ACCESS:   12359102  HIT:   12245613  MISS:     113489
cpu0_L1D LOAD      ACCESS:    7166751  HIT:    7067038  MISS:      99713
cpu0_L1D RFO       ACCESS:    5192276  HIT:    5178548  MISS:      13728
cpu0_L1D PREFETCH  ACCESS:          0  HIT:          0  MISS:          0
cpu0_L1D WRITEBACK ACCESS:          0  HIT:          0  MISS:          0
cpu0_L2C TOTAL     ACCESS:     140973  HIT:     138453  MISS:       2520
cpu0_L2C LOAD      ACCESS:     101920  HIT:     100072  MISS:       1848
cpu0_L2C RFO       ACCESS:      13728  HIT:      13059  MISS:        669
cpu0_L2C PREFETCH  ACCESS:          0  HIT:          0  MISS:          0
cpu0_L2C WRITEBACK ACCESS:      25277  HIT:      25277  MISS:          0
LLC TOTAL     ACCESS:       2844  HIT:       1129  MISS:       1715
LLC LOAD      ACCESS:       1848  HIT:        795  MISS:       1053
LLC RFO       ACCESS:        669  HIT:          7  MISS:        662
LLC PREFETCH  ACCESS:          0  HIT:          0  MISS:          0
LLC WRITEBACK ACCESS:        324  HIT:        324  MISS:          0
Heartbeat CPU 0 instructions: 98000000 cycles: 59960865 heartbeat IPC: 1.00546 cumulative IPC: 1.01244 (Simulation time: 0 hr 51 min 34 sec) 

Region of Interest Statistics
cpu0_DTLB TOTAL     ACCESS:    9392181  HIT:    9371359  MISS:      20822
cpu0_DTLB LOAD      ACCESS:    6564746  HIT:    6544776  MISS:      19970
cpu0_DTLB RFO       ACCESS:    2827435  HIT:    2826583  MISS:        852
cpu0_DTLB PREFETCH  ACCESS:          0  HIT:          0  MISS:          0
cpu0_DTLB WRITEBACK ACCESS:          0  HIT:          0  MISS:          0
cpu0_ITLB TOTAL     ACCESS:    5322863  HIT:    5322863  MISS:          0
cpu0_ITLB LOAD      ACCESS:    5322863  HIT:    5322863  MISS:          0
cpu0_ITLB RFO       ACCESS:          0  HIT:          0  MISS:          0
cpu0_ITLB PREFETCH  ACCESS:          0  HIT:          0  MISS:          0
cpu0_ITLB WRITEBACK ACCESS:          0  HIT:          0  MISS:          0
cpu0_L1I TOTAL     ACCESS:    3004557  HIT:    3002260  MISS:       2297
cpu0_L1I LOAD      ACCESS:    3004557  HIT:    3002260  MISS:       2297
cpu0_L1I RFO       ACCESS:          0  HIT:          0  MISS:          0
cpu0_L1I PREFETCH  ACCESS:          0  HIT:          0  MISS:          0
cpu0_L1I WRITEBACK ACCESS:          0  HIT:          0  MISS:          0
cpu0_STLB TOTAL     ACCESS:      20822  HIT:      20743  MISS:         79
cpu0_STLB LOAD      ACCESS:      19970  HIT:      19906  MISS:         64
cpu0_STLB RFO       ACCESS:        852  HIT:        837  MISS:         15
cpu0_STLB PREFETCH  ACCESS:          0  HIT:          0  MISS:          0
cpu0_STLB WRITEBACK ACCESS:          0  HIT:          0  MISS:          0
cpu0_L1D TOTAL     ACCESS:   12887891  HIT:   12768446  MISS:     119445
cpu0_L1D LOAD      ACCESS:    7475192  HIT:    7370235  MISS:     104957
cpu0_L1D RFO       ACCESS:    5412623  HIT:    5398184  MISS:      14439
cpu0_L1D PREFETCH  ACCESS:          0  HIT:          0  MISS:          0
cpu0_L1D WRITEBACK ACCESS:          0  HIT:          0  MISS:          0
cpu0_L2C TOTAL     ACCESS:     148355  HIT:     145792  MISS:       2563
cpu0_L2C LOAD      ACCESS:     107254  HIT:     105363  MISS:       1891
cpu0_L2C RFO       ACCESS:      14439  HIT:      13770  MISS:        669
cpu0_L2C PREFETCH  ACCESS:          0  HIT:          0  MISS:          0
cpu0_L2C WRITEBACK ACCESS:      26613  HIT:      26613  MISS:          0
LLC TOTAL     ACCESS:       2897  HIT:       1173  MISS:       1724
LLC LOAD      ACCESS:       1891  HIT:        829  MISS:       1062
LLC RFO       ACCESS:        669  HIT:          7  MISS:        662
LLC PREFETCH  ACCESS:          0  HIT:          0  MISS:          0
LLC WRITEBACK ACCESS:        334  HIT:        334  MISS:          0
Heartbeat CPU 0 instructions: 100000002 cycles: 61934272 heartbeat IPC: 1.01348 cumulative IPC: 1.01248 (Simulation time: 0 hr 52 min 31 sec) 

Region of Interest Statistics
cpu0_DTLB TOTAL     ACCESS:    9778262  HIT:    9756514  MISS:      21748
cpu0_DTLB LOAD      ACCESS:    6834244  HIT:    6813388  MISS:      20856
cpu0_DTLB RFO       ACCESS:    2944018  HIT:    2943126  MISS:        892
cpu0_DTLB PREFETCH  ACCESS:          0  HIT:          0  MISS:          0
cpu0_DTLB WRITEBACK ACCESS:          0  HIT:          0  MISS:          0
cpu0_ITLB TOTAL     ACCESS:    5542674  HIT:    5542674  MISS:          0
cpu0_ITLB LOAD      ACCESS:    5542674  HIT:    5542674  MISS:          0
cpu0_ITLB RFO       ACCESS:          0  HIT:          0  MISS:          0
cpu0_ITLB PREFETCH  ACCESS:          0  HIT:          0  MISS:          0
cpu0_ITLB WRITEBACK ACCESS:          0  HIT:          0  MISS:          0
cpu0_L1I TOTAL     ACCESS:    3128975  HIT:    3126578  MISS:       2397
cpu0_L1I LOAD      ACCESS:    3128975  HIT:    3126578  MISS:       2397
cpu0_L1I RFO       ACCESS:          0  HIT:          0  MISS:          0
cpu0_L1I PREFETCH  ACCESS:          0  HIT:          0  MISS:          0
cpu0_L1I WRITEBACK ACCESS:          0  HIT:          0  MISS:          0
cpu0_STLB TOTAL     ACCESS:      21748  HIT:      21669  MISS:         79
cpu0_STLB LOAD      ACCESS:      20856  HIT:      20792  MISS:         64
cpu0_STLB RFO       ACCESS:        892  HIT:        877  MISS:         15
cpu0_STLB PREFETCH  ACCESS:          0  HIT:          0  MISS:          0
cpu0_STLB WRITEBACK ACCESS:          0  HIT:          0  MISS:          0
cpu0_L1D TOTAL     ACCESS:   13416865  HIT:   13291435  MISS:     125430
cpu0_L1D LOAD      ACCESS:    7781607  HIT:    7671374  MISS:     110233
cpu0_L1D RFO       ACCESS:    5635182  HIT:    5620034  MISS:      15148
cpu0_L1D PREFETCH  ACCESS:          0  HIT:          0  MISS:          0
cpu0_L1D WRITEBACK ACCESS:          0  HIT:          0  MISS:          0
cpu0_L2C TOTAL     ACCESS:     155765  HIT:     153181  MISS:       2584
cpu0_L2C LOAD      ACCESS:     112630  HIT:     110718  MISS:       1912
cpu0_L2C RFO       ACCESS:      15148  HIT:      14479  MISS:        669
cpu0_L2C PREFETCH  ACCESS:          0  HIT:          0  MISS:          0
cpu0_L2C WRITEBACK ACCESS:      27938  HIT:      27938  MISS:          0
LLC TOTAL     ACCESS:       2921  HIT:       1192  MISS:       1729
LLC LOAD      ACCESS:       1912  HIT:        845  MISS:       1067
LLC RFO       ACCESS:        669  HIT:          7  MISS:        662
LLC PREFETCH  ACCESS:          0  HIT:          0  MISS:          0
LLC WRITEBACK ACCESS:        337  HIT:        337  MISS:          0
Heartbeat CPU 0 instructions: 102000000 cycles: 63871982 heartbeat IPC: 1.03215 cumulative IPC: 1.01323 (Simulation time: 0 hr 53 min 27 sec) 

Region of Interest Statistics
cpu0_DTLB TOTAL     ACCESS:   10167312  HIT:   10144677  MISS:      22635
cpu0_DTLB LOAD      ACCESS:    7106589  HIT:    7084889  MISS:      21700
cpu0_DTLB RFO       ACCESS:    3060723  HIT:    3059788  MISS:        935
cpu0_DTLB PREFETCH  ACCESS:          0  HIT:          0  MISS:          0
cpu0_DTLB WRITEBACK ACCESS:          0  HIT:          0  MISS:          0
cpu0_ITLB TOTAL     ACCESS:    5764981  HIT:    5764981  MISS:          0
cpu0_ITLB LOAD      ACCESS:    5764981  HIT:    5764981  MISS:          0
cpu0_ITLB RFO       ACCESS:          0  HIT:          0  MISS:          0
cpu0_ITLB PREFETCH  ACCESS:          0  HIT:          0  MISS:          0
cpu0_ITLB WRITEBACK ACCESS:          0  HIT:          0  MISS:          0
cpu0_L1I TOTAL     ACCESS:    3249439  HIT:    3246945  MISS:       2494
cpu0_L1I LOAD      ACCESS:    3249439  HIT:    3246945  MISS:       2494
cpu0_L1I RFO       ACCESS:          0  HIT:          0  MISS:          0
cpu0_L1I PREFETCH  ACCESS:          0  HIT:          0  MISS:          0
cpu0_L1I WRITEBACK ACCESS:          0  HIT:          0  MISS:          0
cpu0_STLB TOTAL     ACCESS:      22635  HIT:      22553  MISS:         82
cpu0_STLB LOAD      ACCESS:      21700  HIT:      21633  MISS:         67
cpu0_STLB RFO       ACCESS:        935  HIT:        920  MISS:         15
cpu0_STLB PREFETCH  ACCESS:          0  HIT:          0  MISS:          0
cpu0_STLB WRITEBACK ACCESS:          0  HIT:          0  MISS:          0
cpu0_L1D TOTAL     ACCESS:   13946451  HIT:   13815036  MISS:     131415
cpu0_L1D LOAD      ACCESS:    8090930  HIT:    7975417  MISS:     115513
cpu0_L1D RFO       ACCESS:    5855442  HIT:    5839592  MISS:      15850
cpu0_L1D PREFETCH  ACCESS:          0  HIT:          0  MISS:          0
cpu0_L1D WRITEBACK ACCESS:          0  HIT:          0  MISS:          0
cpu0_L2C TOTAL     ACCESS:     163149  HIT:     160548  MISS:       2601
cpu0_L2C LOAD      ACCESS:     118007  HIT:     116079  MISS:       1928
cpu0_L2C RFO       ACCESS:      15850  HIT:      15181  MISS:        669
cpu0_L2C PREFETCH  ACCESS:          0  HIT:          0  MISS:          0
cpu0_L2C WRITEBACK ACCESS:      29240  HIT:      29240  MISS:          0
LLC TOTAL     ACCESS:       2941  HIT:       1207  MISS:       1734
LLC LOAD      ACCESS:       1928  HIT:        856  MISS:       1072
LLC RFO       ACCESS:        669  HIT:          7  MISS:        662
LLC PREFETCH  ACCESS:          0  HIT:          0  MISS:          0
LLC WRITEBACK ACCESS:        340  HIT:        340  MISS:          0
Heartbeat CPU 0 instructions: 104000004 cycles: 65853549 heartbeat IPC: 1.0093 cumulative IPC: 1.01308 (Simulation time: 0 hr 54 min 26 sec) 

Region of Interest Statistics
cpu0_DTLB TOTAL     ACCESS:   10559918  HIT:   10536477  MISS:      23441
cpu0_DTLB LOAD      ACCESS:    7381714  HIT:    7359244  MISS:      22470
cpu0_DTLB RFO       ACCESS:    3178204  HIT:    3177233  MISS:        971
cpu0_DTLB PREFETCH  ACCESS:          0  HIT:          0  MISS:          0
cpu0_DTLB WRITEBACK ACCESS:          0  HIT:          0  MISS:          0
cpu0_ITLB TOTAL     ACCESS:    5988798  HIT:    5988798  MISS:          0
cpu0_ITLB LOAD      ACCESS:    5988798  HIT:    5988798  MISS:          0
cpu0_ITLB RFO       ACCESS:          0  HIT:          0  MISS:          0
cpu0_ITLB PREFETCH  ACCESS:          0  HIT:          0  MISS:          0
cpu0_ITLB WRITEBACK ACCESS:          0  HIT:          0  MISS:          0
cpu0_L1I TOTAL     ACCESS:    3370726  HIT:    3368146  MISS:       2580
cpu0_L1I LOAD      ACCESS:    3370726  HIT:    3368146  MISS:       2580
cpu0_L1I RFO       ACCESS:          0  HIT:          0  MISS:          0
cpu0_L1I PREFETCH  ACCESS:          0  HIT:          0  MISS:          0
cpu0_L1I WRITEBACK ACCESS:          0  HIT:          0  MISS:          0
cpu0_STLB TOTAL     ACCESS:      23441  HIT:      23357  MISS:         84
cpu0_STLB LOAD      ACCESS:      22470  HIT:      22401  MISS:         69
cpu0_STLB RFO       ACCESS:        971  HIT:        956  MISS:         15
cpu0_STLB PREFETCH  ACCESS:          0  HIT:          0  MISS:          0
cpu0_STLB WRITEBACK ACCESS:          0  HIT:          0  MISS:          0
cpu0_L1D TOTAL     ACCESS:   14481736  HIT:   14344942  MISS:     136794
cpu0_L1D LOAD      ACCESS:    8403993  HIT:    8283758  MISS:     120235
cpu0_L1D RFO       ACCESS:    6077662  HIT:    6061157  MISS:      16505
cpu0_L1D PREFETCH  ACCESS:          0  HIT:          0  MISS:          0
cpu0_L1D WRITEBACK ACCESS:          0  HIT:          0  MISS:          0
cpu0_L2C TOTAL     ACCESS:     169758  HIT:     167132  MISS:       2626
cpu0_L2C LOAD      ACCESS:     122815  HIT:     120862  MISS:       1953
cpu0_L2C RFO       ACCESS:      16505  HIT:      15836  MISS:        669
cpu0_L2C PREFETCH  ACCESS:          0  HIT:          0  MISS:          0
cpu0_L2C WRITEBACK ACCESS:      30384  HIT:      30384  MISS:          0
LLC TOTAL     ACCESS:       2968  HIT:       1225  MISS:       1743
LLC LOAD      ACCESS:       1953  HIT:        872  MISS:       1081
LLC RFO       ACCESS:        669  HIT:          7  MISS:        662
LLC PREFETCH  ACCESS:          0  HIT:          0  MISS:          0
LLC WRITEBACK ACCESS:        342  HIT:        342  MISS:          0
Heartbeat CPU 0 instructions: 106000002 cycles: 67787758 heartbeat IPC: 1.03401 cumulative IPC: 1.01381 (Simulation time: 0 hr 55 min 27 sec) 

Region of Interest Statistics
cpu0_DTLB TOTAL     ACCESS:   10944656  HIT:   10920310  MISS:      24346
cpu0_DTLB LOAD      ACCESS:    7650697  HIT:    7627360  MISS:      23337
cpu0_DTLB RFO       ACCESS:    3293959  HIT:    3292950  MISS:       1009
cpu0_DTLB PREFETCH  ACCESS:          0  HIT:          0  MISS:          0
cpu0_DTLB WRITEBACK ACCESS:          0  HIT:          0  MISS:          0
cpu0_ITLB TOTAL     ACCESS:    6209063  HIT:    6209063  MISS:          0
cpu0_ITLB LOAD      ACCESS:    6209063  HIT:    6209063  MISS:          0
cpu0_ITLB RFO       ACCESS:          0  HIT:          0  MISS:          0
cpu0_ITLB PREFETCH  ACCESS:          0  HIT:          0  MISS:          0
cpu0_ITLB WRITEBACK ACCESS:          0  HIT:          0  MISS:          0
cpu0_L1I TOTAL     ACCESS:    3491429  HIT:    3488750  MISS:       2679
cpu0_L1I LOAD      ACCESS:    3491429  HIT:    3488750  MISS:       2679
cpu0_L1I RFO       ACCESS:          0  HIT:          0  MISS:          0
cpu0_L1I PREFETCH  ACCESS:          0  HIT:          0  MISS:          0
cpu0_L1I WRITEBACK ACCESS:          0  HIT:          0  MISS:          0
cpu0_STLB TOTAL     ACCESS:      24346  HIT:      24258  MISS:         88
cpu0_STLB LOAD      ACCESS:      23337  HIT:      23264  MISS:         73
cpu0_STLB RFO       ACCESS:       1009  HIT:        994  MISS:         15
cpu0_STLB PREFETCH  ACCESS:          0  HIT:          0  MISS:          0
cpu0_STLB WRITEBACK ACCESS:          0  HIT:          0  MISS:          0
cpu0_L1D TOTAL     ACCESS:   15007289  HIT:   14864095  MISS:     143194
cpu0_L1D LOAD      ACCESS:    8709889  HIT:    8583989  MISS:     125900
cpu0_L1D RFO       ACCESS:    6297315  HIT:    6280079  MISS:      17236
cpu0_L1D PREFETCH  ACCESS:          0  HIT:          0  MISS:          0
cpu0_L1D WRITEBACK ACCESS:          0  HIT:          0  MISS:          0
cpu0_L2C TOTAL     ACCESS:     177701  HIT:     175056  MISS:       2645
cpu0_L2C LOAD      ACCESS:     128579  HIT:     126607  MISS:       1972
cpu0_L2C RFO       ACCESS:      17236  HIT:      16567  MISS:        669
cpu0_L2C PREFETCH  ACCESS:          0  HIT:          0  MISS:          0
cpu0_L2C WRITEBACK ACCESS:      31828  HIT:      31828  MISS:          0
[...]
cpu0_DTLB RFO       ACCESS:   92522354  HIT:   92483617  MISS:      38737
cpu0_DTLB PREFETCH  ACCESS:          0  HIT:          0  MISS:          0
cpu0_DTLB WRITEBACK ACCESS:          0  HIT:          0  MISS:          0
cpu0_DTLB TRANSLATION ACCESS:          0  HIT:          0  MISS:          0
cpu0_DTLB PREFETCH  REQUESTED:          0  ISSUED:          0  USEFUL:          0  USELESS:          0
cpu0_DTLB AVERAGE MISS LATENCY: 9.79137 cycles
cpu0_ITLB TOTAL     ACCESS:  167862707  HIT:  167862439  MISS:        268
cpu0_ITLB LOAD      ACCESS:  167862707  HIT:  167862439  MISS:        268
cpu0_ITLB RFO       ACCESS:          0  HIT:          0  MISS:          0
cpu0_ITLB PREFETCH  ACCESS:          0  HIT:          0  MISS:          0
cpu0_ITLB WRITEBACK ACCESS:          0  HIT:          0  MISS:          0
cpu0_ITLB TRANSLATION ACCESS:          0  HIT:          0  MISS:          0
cpu0_ITLB PREFETCH  REQUESTED:          0  ISSUED:          0  USEFUL:          0  USELESS:          0
cpu0_ITLB AVERAGE MISS LATENCY: 46.2164 cycles
cpu0_L1I TOTAL     ACCESS:   93195345  HIT:   93114437  MISS:      80908
cpu0_L1I LOAD      ACCESS:   93195345  HIT:   93114437  MISS:      80908
cpu0_L1I RFO       ACCESS:          0  HIT:          0  MISS:          0
cpu0_L1I PREFETCH  ACCESS:          0  HIT:          0  MISS:          0
cpu0_L1I WRITEBACK ACCESS:          0  HIT:          0  MISS:          0
cpu0_L1I TRANSLATION ACCESS:          0  HIT:          0  MISS:          0
cpu0_L1I PREFETCH  REQUESTED:          0  ISSUED:          0  USEFUL:          0  USELESS:          0
cpu0_L1I AVERAGE MISS LATENCY: 24.4728 cycles
cpu0_STLB TOTAL     ACCESS:     691120  HIT:     679953  MISS:      11167
cpu0_STLB LOAD      ACCESS:     652383  HIT:     645782  MISS:       6601
cpu0_STLB RFO       ACCESS:      38737  HIT:      34171  MISS:       4566
cpu0_STLB PREFETCH  ACCESS:          0  HIT:          0  MISS:          0
cpu0_STLB WRITEBACK ACCESS:          0  HIT:          0  MISS:          0
cpu0_STLB TRANSLATION ACCESS:          0  HIT:          0  MISS:          0
cpu0_STLB PREFETCH  REQUESTED:          0  ISSUED:          0  USEFUL:          0  USELESS:          0
cpu0_STLB AVERAGE MISS LATENCY: 49.8054 cycles
cpu0_L1D TOTAL     ACCESS:  410703462  HIT:  406042653  MISS:    4660809
cpu0_L1D LOAD      ACCESS:  239064349  HIT:  235438071  MISS:    3626278
cpu0_L1D RFO       ACCESS:  171627981  HIT:  170594748  MISS:    1033233
cpu0_L1D PREFETCH  ACCESS:          0  HIT:          0  MISS:          0
cpu0_L1D WRITEBACK ACCESS:          0  HIT:          0  MISS:          0
cpu0_L1D TRANSLATION ACCESS:      11132  HIT:       9834  MISS:       1298
cpu0_L1D PREFETCH  REQUESTED:          0  ISSUED:          0  USEFUL:          0  USELESS:          0
cpu0_L1D AVERAGE MISS LATENCY: 47.8332 cycles
cpu0_L2C TOTAL     ACCESS:    6167237  HIT:    4881288  MISS:    1285949
cpu0_L2C LOAD      ACCESS:    3707167  HIT:    3033420  MISS:     673747
cpu0_L2C RFO       ACCESS:    1033207  HIT:     421384  MISS:     611823
cpu0_L2C PREFETCH  ACCESS:          0  HIT:          0  MISS:          0
cpu0_L2C WRITEBACK ACCESS:    1425565  HIT:    1425319  MISS:        246
cpu0_L2C TRANSLATION ACCESS:       1298  HIT:       1165  MISS:        133
cpu0_L2C PREFETCH  REQUESTED:          0  ISSUED:          0  USEFUL:          0  USELESS:          0
cpu0_L2C AVERAGE MISS LATENCY: 134.31 cycles
LLC TOTAL     ACCESS:    1934410  HIT:    1207521  MISS:     726889
LLC LOAD      ACCESS:     673747  HIT:     315099  MISS:     358648
LLC RFO       ACCESS:     611823  HIT:     268584  MISS:     343239
LLC PREFETCH  ACCESS:          0  HIT:          0  MISS:          0
LLC WRITEBACK ACCESS:     648707  HIT:     623749  MISS:      24958
LLC TRANSLATION ACCESS:        133  HIT:         89  MISS:         44
LLC PREFETCH  REQUESTED:          0  ISSUED:          0  USEFUL:          0  USELESS:          0
LLC AVERAGE MISS LATENCY: 200.461 cycles
~~~~~~~~~~Reuse Distance Profiler output~~~~~~~~~~
0	99713040	13371648
1	39608048	15889632
2	24263408	9988880
3	15354992	9233264
4	14826160	8617200
5	12106976	8590528
6	9782400	7175552
7	8825120	6806160
8	8507520	6260272
9	6526400	4581328
10	5486912	4091936
11	5220560	4160112
12	6808800	5332736
13	5825776	4545680
14	5642048	4545312
15	5891616	4302800
16	4750784	3892192
17	4870912	3624592
18	4413424	3418528
19	4024688	3138064
20	3208976	2731600
21	3065664	2568928
22	2815984	2324592
23	2531632	2151584
24	2507648	2139152
25	2668224	2056032
26	2286816	1916672
27	2156176	1745936
28	1935808	1615728
29	1671376	1429472
30	1613200	1388512
31	1997216	1366944
32	1711584	1376416
33	1656896	1383536
34	1568880	1301760
35	1393216	1169648
36	1268304	1084448
37	1114304	944432
38	1083824	902016
39	978224	845872
40	892240	802016
41	910864	800416
42	965952	901744
43	834912	786304
44	906304	864640
45	985104	942480
46	823392	789056
47	804480	775600
48	1064112	727056
49	727328	674768
50	747824	687200
51	702992	664544
52	691008	660064
53	711104	675040
54	724416	691152
55	724768	658176
56	763184	716800
57	711424	675424
58	721712	687936
59	739264	703216
60	707728	668864
61	706688	665312
62	691536	647360
63	769488	720272
64	1596416	1479824
66	1564112	1432752
68	1428128	1298336
70	1337424	1224464
72	1287408	1170736
74	1233280	1122960
76	1169872	1074640
78	1099904	1010416
80	1013824	931264
82	954896	875568
84	913952	838256
86	866784	802544
88	800320	741632
90	750432	692960
92	700208	644848
94	663136	604272
96	652784	592272
98	622352	565568
100	586592	537376
102	555488	507920
104	533088	485152
106	522832	476096
108	494768	448608
110	491408	447376
112	473584	432560
114	463216	424624
116	442592	405280
118	423152	388704
120	395088	362256
122	376256	344768
124	364944	333680
126	359104	329824
128	688016	631456
132	670128	614384
136	632912	582960
140	605808	560048
144	580656	538304
148	548784	508976
152	520544	481872
156	491424	451984
160	456432	418352
164	432016	393472
168	410864	370592
172	395328	353568
176	384576	345040
180	369056	330528
184	348128	313968
188	331472	300272
192	318096	290336
196	310624	283552
200	305616	280720
204	297040	274160
208	287920	266432
212	282000	261328
216	271104	250528
220	271344	250480
224	267552	246448
228	265776	243056
232	262848	239920
236	261040	236816
240	255264	228288
244	254992	227648
248	250768	225344
252	242960	217856
256	461152	415232
264	433200	391104
272	422336	381200
280	416112	374880
288	409904	362064
296	407152	355744
304	399808	351568
312	396224	348976
320	396480	350160
328	379840	336800
336	369232	324912
344	353264	308128
352	337136	292480
360	328848	285312
368	312368	269888
376	296240	257680
384	288240	249312
392	277088	241504
400	270592	235568
408	262656	226304
416	258720	223280
424	254080	219008
432	240208	204336
440	230288	196480
448	224768	193264
456	222848	194336
464	219440	188944
472	219840	190144
480	221936	192400
488	214592	185376
496	208400	181056
504	206032	177728
512	401200	346720
528	396848	343088
544	392384	337104
560	380544	329488
576	374400	324816
592	365888	315728
608	352944	302576
624	342960	296832
640	338752	295504
656	328640	287584
672	313728	275840
688	304576	267936
704	289584	254752
720	277520	247328
736	270800	241632
752	263264	235136
768	244384	220288
784	230512	206880
800	214992	192080
816	206864	185984
832	200576	180832
848	192560	175872
864	185632	169664
880	175968	160960
896	173728	158752
912	165968	151424
928	160320	147232
944	157280	143760
960	150640	138304
976	146144	133552
992	140720	128592
1008	136224	124816
1024	262768	242048
1056	250240	229376
1088	240432	218768
1120	233488	213152
1152	222320	201600
1184	218144	197104
1216	207792	188736
1248	206672	185824
1280	201488	182768
1312	192960	175040
1344	188048	170928
1376	179440	161936
1408	171536	155872
1440	168192	153424
1472	161552	147136
1504	156368	142832
1536	146592	134336
1568	140464	128400
1600	135584	124688
1632	128608	118400
1664	122864	113360
1696	119808	108960
1728	117728	106736
1760	112576	103008
1792	108448	99136
1824	105456	95584
1856	101200	91936
1888	102608	93392
1920	99600	90208
1952	105952	93344
1984	113104	97536
2016	106160	93648
2048	198624	174016
2112	183488	160848
2176	171904	152560
2240	156848	139712
2304	150064	134256
2368	148944	133632
2432	141792	126064
2496	142928	122656
2560	136080	118448
2624	127328	112272
2688	125568	110048
2752	123600	110032
2816	147840	133536
2880	161056	142304
2944	163712	145840
3008	154640	139536
3072	154768	138384
3136	147424	131904
3200	138352	124704
3264	128320	110720
3328	111168	96912
3392	82848	68864
3456	77248	65696
3520	75280	62208
3584	74080	60000
3648	74320	59744
3712	71248	55776
3776	68624	54448
3840	67216	53024
3904	64208	51152
3968	61584	50992
4032	59312	49040
4096	110768	91632
4224	108128	88144
4352	115952	94736
4480	146352	127024
4608	177424	161184
4736	177392	161040
4864	142896	123648
4992	84848	64496
5120	77600	58944
5248	71440	51824
5376	67104	50752
5504	63664	48800
5632	63312	47568
5760	91408	76432
5888	110288	95392
6016	115280	100784
6144	79200	66864
6272	56224	43568
6400	46256	33376
6528	47936	31504
6656	46848	29888
6784	47072	31296
6912	43376	30288
7040	48592	36544
7168	50640	38224
7296	42848	30368
7424	36192	24032
7552	34128	24080
7680	34608	24592
7808	32736	22784
7936	31072	21248
8064	28640	19344
8192	54192	37776
8448	51456	34512
8704	48688	33488
8960	43984	29808
9216	40976	27904
9472	39232	25600
9728	38464	24976
9984	35856	24416
10240	33904	23456
10496	33424	22768
10752	32272	22240
11008	29744	20496
11264	28976	19248
11520	26240	17792
11776	25664	16752
12032	25184	17200
12288	24704	16816
12544	23744	16272
12800	22208	15072
13056	20960	13568
13312	19360	12832
13568	20368	13536
13824	18624	13024
14080	18864	12496
14336	17280	11760
14592	16976	11600
14848	16416	10976
15104	16000	10832
15360	15008	10208
15616	15088	10560
15872	14544	10368
16128	14384	10176
16384	26160	17936
16896	25856	18064
17408	24112	16592
17920	22368	16336
18432	20992	15088
18944	20112	14448
19456	19072	13920
19968	17968	13392
20480	17072	12368
20992	16416	12080
21504	15088	11440
22016	14944	11024
22528	14928	11488
23040	14672	10576
23552	13888	10704
24064	12624	9712
24576	12304	9472
25088	12688	9712
25600	11488	8704
26112	11168	8592
26624	10976	8624
27136	9792	7632
27648	10032	8128
28160	9552	7392
28672	9328	7360
29184	9440	7376
29696	7936	6256
30208	8032	6416
30720	8304	6208
31232	7168	5824
31744	7552	5776
32256	7712	5968
32768	13824	11232
33792	13136	10720
34816	12544	10208
35840	12240	9792
36864	11360	9616
37888	11248	9232
38912	10368	8608
39936	9072	7520
40960	9984	8240
41984	8816	7568
43008	8560	7312
44032	8672	7472
45056	7728	6336
46080	7184	6112
47104	7216	6272
48128	7024	6224
49152	6784	5840
50176	6912	5952
51200	6576	5792
52224	6304	5616
53248	6560	5840
54272	6048	5200
55296	5584	5040
56320	5168	4640
57344	5280	4848
58368	5504	4896
59392	5184	4640
60416	5760	5296
61440	4752	4336
62464	4288	3888
63488	5040	4592
64512	5424	4992
65536	9120	8368
67584	9232	8608
69632	8656	7952
71680	9088	8272
73728	8624	7920
75776	8512	7744
77824	8480	7920
79872	8176	7680
81920	7824	7504
83968	8688	8000
86016	7808	7296
88064	8256	7760
90112	8448	7952
92160	8048	7552
94208	8144	7616
96256	7920	7552
98304	9824	9328
100352	9792	9312
102400	10224	9424
104448	10240	9696
106496	9600	9120
108544	9920	9280
110592	10656	9888
112640	11824	11024
114688	11056	10416
116736	12608	11536
118784	14032	13264
120832	14288	13472
122880	17840	16336
124928	16752	15376
126976	18336	16544
129024	18224	16560
131072	42896	38880
135168	52944	48080
139264	60928	55328
143360	77152	69456
147456	96784	85280
151552	110192	99536
155648	132496	117392
159744	146080	128768
163840	157888	139280
167936	177408	156544
172032	176416	154592
176128	152240	131520
180224	137552	121648
184320	125968	109344
188416	103824	90352
192512	89616	77840
196608	74192	64752
200704	58848	52112
204800	50464	43504
208896	37856	33712
212992	29344	26240
217088	27408	24128
221184	21520	18912
225280	17904	15904
229376	13856	12656
233472	11664	10784
237568	7920	7344
241664	8256	7680
245760	7152	6624
249856	7392	6672
253952	6096	5792
258048	5936	5600
262144	9200	8672
270336	10208	9648
278528	10352	9728
286720	10096	9248
294912	12352	11680
303104	19840	18784
311296	33680	32528
319488	31968	30560
327680	35616	34000
335872	36272	33696
344064	31968	30400
352256	32784	29680
360448	38672	30400
368640	35648	27360
376832	38256	27040
385024	37504	25504
393216	36192	23360
401408	34016	21952
409600	36784	23520
417792	29296	16160
425984	24096	10080
434176	17040	3456
442368	18064	3776
450560	19712	4688
458752	19024	4112
466944	17296	4656
475136	12784	4416
483328	8752	4992
491520	6880	4496
499712	4816	4688
507904	5360	4992
516096	5328	4944
524288	9808	9152
540672	8720	7952
557056	10016	7744
573440	9232	5536
589824	10144	5888
606208	8416	4592
622592	8768	4752
638976	8896	4656
655360	9712	5472
671744	9616	5520
688128	9680	5664
704512	5200	4784
720896	5008	4544
737280	4496	4400
753664	3824	3744
770048	158976	97504
786432	197776	97664
802816	23568	3184
819200	3504	3296
835584	4112	3952
851968	3248	3152
868352	3888	3824
884736	4272	4128
901120	3248	3136
917504	2384	2288
933888	2576	2496
950272	2592	2544
966656	2528	2336
983040	54912	33744
999424	11712	2544
1015808	2832	2720
1032192	2336	2208
1048576	5200	4752
1081344	4496	4128
1114112	3808	3248
1146880	4032	3408
1179648	4112	2832
1212416	4096	3360
1245184	3232	2944
1277952	2816	2608
1310720	3056	3008
1343488	2688	2640
1376256	2272	2272
1409024	2464	2384
1441792	2464	2448
1474560	1920	1920
1507328	1920	1920
1540096	2064	2048
1572864	2672	2432
1605632	2640	2640
1638400	2144	2144
1671168	1696	1696
1703936	1664	1664
1736704	1392	1376
1769472	1600	1568
1802240	1296	1280
1835008	1296	1296
1867776	1680	1648
1900544	1664	1600
1933312	1456	1456
1966080	1184	1136
1998848	1280	1264
2031616	1040	1040
2064384	1136	1136
2097152	2224	2208
2162688	3024	2976
2228224	2368	2368
2293760	2704	2608
2359296	2416	2400
2424832	2560	2512
2490368	1968	1920
2555904	1904	1888
2621440	2432	2384
2686976	2240	2224
2752512	2464	2464
2818048	2000	1984
2883584	1712	1696
2949120	1296	1264
3014656	2208	2192
3080192	1088	1088
3145728	1504	1504
3211264	1200	1184
3276800	1120	1120
3342336	1520	1488
3407872	896	896
3473408	976	944
3538944	1456	1456
3604480	672	640
3670016	848	848
3735552	1328	1296
3801088	976	960
3866624	880	864
3932160	928	928
3997696	640	640
4063232	1024	992
4128768	960	944
4194304	1904	1888
4325376	1744	1744
4456448	1024	1008
4587520	1200	1168
4718592	1824	1600
4849664	1120	944
4980736	1280	1248
5111808	1808	1744
5242880	1456	1440
5373952	944	928
5505024	1552	1344
5636096	992	912
5767168	1168	1168
5898240	848	816
6029312	1296	1296
6160384	752	752
6291456	368	368
6422528	992	992
6553600	528	528
6684672	688	672
6815744	592	592
6946816	560	544
7077888	448	416
7208960	480	464
7340032	368	368
7471104	608	608
7602176	624	624
7733248	1040	1040
7864320	624	624
7995392	560	544
8126464	768	768
8257536	544	544
8388608	736	624
8650752	848	784
8912896	1280	1232
9175040	1104	1008
9437184	1376	1360
9699328	528	480
9961472	1152	1120
10223616	1296	1008
10485760	1104	992
10747904	2304	2288
11010048	6688	6640
11272192	4336	4272
11534336	592	528
11796480	656	640
12058624	464	352
12320768	1376	1008
12582912	26304	752
12845056	32464	32256
13107200	688	560
13369344	976	800
13631488	304	256
13893632	480	448
14155776	288	176
14417920	336	336
14680064	480	480
14942208	352	352
15204352	448	448
15466496	736	704
15728640	288	208
15990784	528	496
16252928	176	176
16515072	288	272
16777216	944	720
17301504	624	624
17825792	464	400
18350080	288	288
18874368	1120	1120
19398656	640	640
19922944	592	592
20447232	496	496
20971520	720	720
21495808	304	288
22020096	240	240
22544384	528	496
23068672	640	528
23592960	784	640
24117248	720	720
24641536	256	160
25165824	720	704
25690112	752	560
26214400	400	304
26738688	160	160
27262976	352	176
27787264	288	288
28311552	80	64
28835840	528	416
29360128	304	240
29884416	224	128
30408704	240	144
30932992	288	224
31457280	144	112
31981568	48	48
32505856	128	128
33030144	48	48
33554432	96	80
34603008	288	288
35651584	160	160
36700160	384	384
37748736	368	176
38797312	384	304
39845888	336	240
40894464	240	112
41943040	464	416
42991616	80	80
44040192	160	48
45088768	368	176
46137344	416	352
47185920	384	352
48234496	64	64
49283072	288	80
50331648	576	544
51380224	416	416
52428800	912	912
53477376	528	368
54525952	640	592
55574528	624	624
56623104	128	96
57671680	560	400
58720256	592	400
59768832	368	352
60817408	112	112
61865984	416	416
62914560	64	48
63963136	208	32
65011712	80	32
66060288	80	80
67108864	368	240
69206016	288	176
71303168	224	96
73400320	80	80
75497472	64	32
77594624	448	112
79691776	288	64
81788928	64	48
83886080	192	48
85983232	256	64
88080384	0	0
90177536	48	48
92274688	48	48
94371840	592	272
96468992	32	16
98566144	304	192
100663296	0	0
102760448	32	32
104857600	160	32
106954752	560	256
109051904	176	176
111149056	48	48
113246208	160	32
115343360	32	32
117440512	48	32
119537664	160	160
121634816	32	32
123731968	224	48
125829120	16	16
127926272	16	16
130023424	208	208
132120576	16	16
134217728	304	0
138412032	272	272
142606336	224	16
146800640	176	48
150994944	112	64
155189248	160	0
159383552	352	224
163577856	48	48
167772160	16	16
171966464	0	0
176160768	62992	31440
180355072	16	16
184549376	112	16
188743680	32928	48
192937984	48	32
197132288	0	0
201326592	16	16
205520896	0	0
209715200	0	0
213909504	0	0
218103808	16	16
222298112	144	144
226492416	0	0
230686720	48	48
234881024	16	16
239075328	0	0
243269632	0	0
247463936	0	0
251658240	0	0
255852544	0	0
260046848	16	16
264241152	16	16
268435456	16	16
276824064	0	0
285212672	32	32
293601280	208	208
301989888	16	16
310378496	16	16
318767104	0	0
327155712	16	16
335544320	0	0
343932928	0	0
352321536	0	0
360710144	0	0
369098752	16	16
377487360	32	32
385875968	0	0
394264576	0	0
402653184	0	0
411041792	0	0
419430400	0	0
427819008	0	0
436207616	0	0
444596224	0	0
452984832	0	0
461373440	0	0
469762048	0	0
478150656	0	0
486539264	0	0
494927872	0	0
503316480	0	0
511705088	0	0
520093696	0	0
528482304	0	0
536870912	0	0
553648128	0	0
570425344	0	0
587202560	0	0
603979776	0	0
620756992	0	0
637534208	0	0
654311424	0	0
671088640	0	0
687865856	0	0
704643072	0	0
721420288	0	0
738197504	0	0
754974720	0	0
771751936	0	0
788529152	0	0
805306368	0	0
822083584	0	0
838860800	0	0
855638016	0	0
872415232	0	0
889192448	0	0
905969664	0	0
922746880	0	0
939524096	0	0
956301312	0	0
973078528	0	0
989855744	0	0
1006632960	0	0
1023410176	0	0
1040187392	0	0
1056964608	0	0
1073741824	0	0
1107296256	0	0
1140850688	0	0
1174405120	0	0
1207959552	0	0
1241513984	0	0
1275068416	0	0
1308622848	0	0
1342177280	0	0
1375731712	0	0
1409286144	0	0
1442840576	0	0
1476395008	0	0
1509949440	0	0
1543503872	0	0
1577058304	0	0
1610612736	0	0
1644167168	0	0
1677721600	0	0
1711276032	0	0
1744830464	0	0
1778384896	0	0
1811939328	0	0
1845493760	0	0
1879048192	0	0
1912602624	0	0
1946157056	0	0
1979711488	0	0
2013265920	0	0
2046820352	0	0
2080374784	0	0
2113929216	0	0
2147483648	0	0
2214592512	0	0
2281701376	0	0
2348810240	0	0
2415919104	0	0
2483027968	0	0
2550136832	0	0
2617245696	0	0
2684354560	0	0
2751463424	0	0
2818572288	0	0
2885681152	0	0
2952790016	0	0
3019898880	0	0
3087007744	0	0
3154116608	0	0
3221225472	0	0
3288334336	0	0
3355443200	0	0
3422552064	0	0
3489660928	0	0
3556769792	0	0
3623878656	0	0
3690987520	0	0
3758096384	0	0
3825205248	0	0
3892314112	0	0
3959422976	0	0
4026531840	0	0
4093640704	0	0
4160749568	0	0
4227858432	0	0
~~~~~~~~~~Reuse Distance Profiler output end~~~~~~~~~~

Sampler size:7010

DRAM Statistics
 CHANNEL 0
 RQ ROW_BUFFER_HIT:      93627  ROW_BUFFER_MISS:     607727
 DBUS AVG_CONGESTED_CYCLE:    3.94349
 WQ ROW_BUFFER_HIT:      25846  ROW_BUFFER_MISS:     283855  FULL:        466


CPU 0 Branch Prediction Accuracy: 85.0513% MPKI: 25.1011 Average ROB Occupancy at Mispredict: 18.6196
Branch type MPKI
BRANCH_DIRECT_JUMP: 9.33333e-05
BRANCH_INDIRECT: 0.002658
BRANCH_CONDITIONAL: 25.0979
BRANCH_DIRECT_CALL: 0.000195333
BRANCH_INDIRECT_CALL: 7.86667e-05
BRANCH_RETURN: 0.00021

