
*** ChampSim Multicore Out-of-Order Simulator ***

Warmup Instructions: 50000000
Simulation Instructions: 1500000000
Number of CPUs: 1
Off-chip DRAM Size: 4 GiB Channels: 1 Width: 64-bit Data Rate: 3200 MT/s

VirtualMemory physical capacity: 8588881920 num_ppages: 2096895
VirtualMemory page size: 4096 log2_page_size: 12

CPU 0 runs /s/traces/champsim_traces/644.nab_s-7928B.champsimtrace.xz
CPU 0 Bimodal branch predictor
Basic BTB sets: 1024 ways: 8 indirect buffer size: 4096 RAS size: 64
Initializing LRU.
Initializing LRU.
Initializing LRU.
Initializing LRU.
Initializing rdLRU.
Initializing LRU.
Heartbeat CPU 0 instructions: 2000002 cycles: 501375 heartbeat IPC: 3.98903 cumulative IPC: 3.98903 (Simulation time: 0 hr 1 min 8 sec) 
Heartbeat CPU 0 instructions: 4000001 cycles: 1003124 heartbeat IPC: 3.98605 cumulative IPC: 3.98754 (Simulation time: 0 hr 2 min 15 sec) 
Heartbeat CPU 0 instructions: 6000000 cycles: 1504526 heartbeat IPC: 3.98881 cumulative IPC: 3.98797 (Simulation time: 0 hr 3 min 19 sec) 
Heartbeat CPU 0 instructions: 8000001 cycles: 2006106 heartbeat IPC: 3.9874 cumulative IPC: 3.98783 (Simulation time: 0 hr 4 min 23 sec) 
Heartbeat CPU 0 instructions: 10000000 cycles: 2507463 heartbeat IPC: 3.98917 cumulative IPC: 3.98809 (Simulation time: 0 hr 5 min 34 sec) 
Heartbeat CPU 0 instructions: 12000003 cycles: 3008292 heartbeat IPC: 3.99339 cumulative IPC: 3.98898 (Simulation time: 0 hr 6 min 37 sec) 
Heartbeat CPU 0 instructions: 14000003 cycles: 3508895 heartbeat IPC: 3.99518 cumulative IPC: 3.98986 (Simulation time: 0 hr 7 min 39 sec) 
Heartbeat CPU 0 instructions: 16000003 cycles: 4009389 heartbeat IPC: 3.99605 cumulative IPC: 3.99063 (Simulation time: 0 hr 8 min 41 sec) 
Heartbeat CPU 0 instructions: 18000004 cycles: 4510422 heartbeat IPC: 3.99176 cumulative IPC: 3.99076 (Simulation time: 0 hr 9 min 47 sec) 
Heartbeat CPU 0 instructions: 20000003 cycles: 5012156 heartbeat IPC: 3.98617 cumulative IPC: 3.9903 (Simulation time: 0 hr 10 min 54 sec) 
Heartbeat CPU 0 instructions: 22000002 cycles: 5513255 heartbeat IPC: 3.99123 cumulative IPC: 3.99038 (Simulation time: 0 hr 12 min 2 sec) 
Heartbeat CPU 0 instructions: 24000002 cycles: 6014101 heartbeat IPC: 3.99324 cumulative IPC: 3.99062 (Simulation time: 0 hr 13 min 6 sec) 
Heartbeat CPU 0 instructions: 26000001 cycles: 6514796 heartbeat IPC: 3.99445 cumulative IPC: 3.99092 (Simulation time: 0 hr 14 min 12 sec) 
Heartbeat CPU 0 instructions: 28000000 cycles: 7016014 heartbeat IPC: 3.99028 cumulative IPC: 3.99087 (Simulation time: 0 hr 15 min 18 sec) 
Heartbeat CPU 0 instructions: 30000002 cycles: 7516604 heartbeat IPC: 3.99529 cumulative IPC: 3.99116 (Simulation time: 0 hr 16 min 23 sec) 
Heartbeat CPU 0 instructions: 32000004 cycles: 8017628 heartbeat IPC: 3.99183 cumulative IPC: 3.99121 (Simulation time: 0 hr 17 min 27 sec) 
Heartbeat CPU 0 instructions: 34000001 cycles: 8518597 heartbeat IPC: 3.99226 cumulative IPC: 3.99127 (Simulation time: 0 hr 18 min 34 sec) 
Heartbeat CPU 0 instructions: 36000001 cycles: 9019480 heartbeat IPC: 3.99295 cumulative IPC: 3.99136 (Simulation time: 0 hr 19 min 41 sec) 
Heartbeat CPU 0 instructions: 38000003 cycles: 9520790 heartbeat IPC: 3.98955 cumulative IPC: 3.99127 (Simulation time: 0 hr 20 min 47 sec) 
Heartbeat CPU 0 instructions: 40000002 cycles: 10021678 heartbeat IPC: 3.99291 cumulative IPC: 3.99135 (Simulation time: 0 hr 21 min 51 sec) 
Heartbeat CPU 0 instructions: 42000003 cycles: 10522420 heartbeat IPC: 3.99407 cumulative IPC: 3.99148 (Simulation time: 0 hr 22 min 54 sec) 
Heartbeat CPU 0 instructions: 44000002 cycles: 11022896 heartbeat IPC: 3.99619 cumulative IPC: 3.99169 (Simulation time: 0 hr 23 min 58 sec) 
Heartbeat CPU 0 instructions: 46000004 cycles: 11523413 heartbeat IPC: 3.99587 cumulative IPC: 3.99187 (Simulation time: 0 hr 25 min 1 sec) 
Heartbeat CPU 0 instructions: 48000002 cycles: 12024623 heartbeat IPC: 3.99034 cumulative IPC: 3.99181 (Simulation time: 0 hr 26 min 4 sec) 
Heartbeat CPU 0 instructions: 50000001 cycles: 12525391 heartbeat IPC: 3.99386 cumulative IPC: 3.99189 (Simulation time: 0 hr 27 min 7 sec) 

Warmup complete CPU 0 instructions: 50000001 cycles: 12525391 (Simulation time: 0 hr 27 min 7 sec) 

Heartbeat CPU 0 instructions: 52000000 cycles: 13804940 heartbeat IPC: 1.56305 cumulative IPC: 1.56305 (Simulation time: 0 hr 28 min 47 sec) 

Region of Interest Statistics
cpu0_DTLB TOTAL     ACCESS:     414453  HIT:     413667  MISS:        786
cpu0_DTLB LOAD      ACCESS:     356593  HIT:     355807  MISS:        786
cpu0_DTLB RFO       ACCESS:      57860  HIT:      57860  MISS:          0
cpu0_DTLB PREFETCH  ACCESS:          0  HIT:          0  MISS:          0
cpu0_DTLB WRITEBACK ACCESS:          0  HIT:          0  MISS:          0
cpu0_ITLB TOTAL     ACCESS:     107317  HIT:     107317  MISS:          0
cpu0_ITLB LOAD      ACCESS:     107317  HIT:     107317  MISS:          0
cpu0_ITLB RFO       ACCESS:          0  HIT:          0  MISS:          0
cpu0_ITLB PREFETCH  ACCESS:          0  HIT:          0  MISS:          0
cpu0_ITLB WRITEBACK ACCESS:          0  HIT:          0  MISS:          0
cpu0_L1I TOTAL     ACCESS:      40042  HIT:      40042  MISS:          0
cpu0_L1I LOAD      ACCESS:      40042  HIT:      40042  MISS:          0
cpu0_L1I RFO       ACCESS:          0  HIT:          0  MISS:          0
cpu0_L1I PREFETCH  ACCESS:          0  HIT:          0  MISS:          0
cpu0_L1I WRITEBACK ACCESS:          0  HIT:          0  MISS:          0
cpu0_STLB TOTAL     ACCESS:        786  HIT:        758  MISS:         28
cpu0_STLB LOAD      ACCESS:        786  HIT:        758  MISS:         28
cpu0_STLB RFO       ACCESS:          0  HIT:          0  MISS:          0
cpu0_STLB PREFETCH  ACCESS:          0  HIT:          0  MISS:          0
cpu0_STLB WRITEBACK ACCESS:          0  HIT:          0  MISS:          0
cpu0_L1D TOTAL     ACCESS:     542920  HIT:     524031  MISS:      18889
cpu0_L1D LOAD      ACCESS:     408886  HIT:     390017  MISS:      18869
cpu0_L1D RFO       ACCESS:     134006  HIT:     134006  MISS:          0
cpu0_L1D PREFETCH  ACCESS:          0  HIT:          0  MISS:          0
cpu0_L1D WRITEBACK ACCESS:          0  HIT:          0  MISS:          0
cpu0_L2C TOTAL     ACCESS:      25000  HIT:      23840  MISS:       1160
cpu0_L2C LOAD      ACCESS:      18869  HIT:      17709  MISS:       1160
cpu0_L2C RFO       ACCESS:          0  HIT:          0  MISS:          0
cpu0_L2C PREFETCH  ACCESS:          0  HIT:          0  MISS:          0
cpu0_L2C WRITEBACK ACCESS:       6111  HIT:       6111  MISS:          0
LLC TOTAL     ACCESS:       1214  HIT:         99  MISS:       1115
LLC LOAD      ACCESS:       1160  HIT:         85  MISS:       1075
LLC RFO       ACCESS:          0  HIT:          0  MISS:          0
LLC PREFETCH  ACCESS:          0  HIT:          0  MISS:          0
LLC WRITEBACK ACCESS:         54  HIT:         14  MISS:         40
Heartbeat CPU 0 instructions: 54000003 cycles: 15069791 heartbeat IPC: 1.58122 cumulative IPC: 1.57208 (Simulation time: 0 hr 30 min 25 sec) 

Region of Interest Statistics
cpu0_DTLB TOTAL     ACCESS:     827907  HIT:     826424  MISS:       1483
cpu0_DTLB LOAD      ACCESS:     712084  HIT:     710601  MISS:       1483
cpu0_DTLB RFO       ACCESS:     115823  HIT:     115823  MISS:          0
cpu0_DTLB PREFETCH  ACCESS:          0  HIT:          0  MISS:          0
cpu0_DTLB WRITEBACK ACCESS:          0  HIT:          0  MISS:          0
cpu0_ITLB TOTAL     ACCESS:     216608  HIT:     216608  MISS:          0
cpu0_ITLB LOAD      ACCESS:     216608  HIT:     216608  MISS:          0
cpu0_ITLB RFO       ACCESS:          0  HIT:          0  MISS:          0
cpu0_ITLB PREFETCH  ACCESS:          0  HIT:          0  MISS:          0
cpu0_ITLB WRITEBACK ACCESS:          0  HIT:          0  MISS:          0
cpu0_L1I TOTAL     ACCESS:      80002  HIT:      80002  MISS:          0
cpu0_L1I LOAD      ACCESS:      80002  HIT:      80002  MISS:          0
cpu0_L1I RFO       ACCESS:          0  HIT:          0  MISS:          0
cpu0_L1I PREFETCH  ACCESS:          0  HIT:          0  MISS:          0
cpu0_L1I WRITEBACK ACCESS:          0  HIT:          0  MISS:          0
cpu0_STLB TOTAL     ACCESS:       1483  HIT:       1440  MISS:         43
cpu0_STLB LOAD      ACCESS:       1483  HIT:       1440  MISS:         43
cpu0_STLB RFO       ACCESS:          0  HIT:          0  MISS:          0
cpu0_STLB PREFETCH  ACCESS:          0  HIT:          0  MISS:          0
cpu0_STLB WRITEBACK ACCESS:          0  HIT:          0  MISS:          0
cpu0_L1D TOTAL     ACCESS:    1084598  HIT:    1047182  MISS:      37416
cpu0_L1D LOAD      ACCESS:     816657  HIT:     779276  MISS:      37381
cpu0_L1D RFO       ACCESS:     267898  HIT:     267898  MISS:          0
cpu0_L1D PREFETCH  ACCESS:          0  HIT:          0  MISS:          0
cpu0_L1D WRITEBACK ACCESS:          0  HIT:          0  MISS:          0
cpu0_L2C TOTAL     ACCESS:      49543  HIT:      47333  MISS:       2210
cpu0_L2C LOAD      ACCESS:      37381  HIT:      35171  MISS:       2210
cpu0_L2C RFO       ACCESS:          0  HIT:          0  MISS:          0
cpu0_L2C PREFETCH  ACCESS:          0  HIT:          0  MISS:          0
cpu0_L2C WRITEBACK ACCESS:      12127  HIT:      12127  MISS:          0
LLC TOTAL     ACCESS:       2283  HIT:        181  MISS:       2102
LLC LOAD      ACCESS:       2210  HIT:        156  MISS:       2054
LLC RFO       ACCESS:          0  HIT:          0  MISS:          0
LLC PREFETCH  ACCESS:          0  HIT:          0  MISS:          0
LLC WRITEBACK ACCESS:         73  HIT:         25  MISS:         48
Heartbeat CPU 0 instructions: 56000003 cycles: 16338425 heartbeat IPC: 1.5765 cumulative IPC: 1.57355 (Simulation time: 0 hr 32 min 0 sec) 

Region of Interest Statistics
cpu0_DTLB TOTAL     ACCESS:    1241573  HIT:    1239334  MISS:       2239
cpu0_DTLB LOAD      ACCESS:    1067822  HIT:    1065583  MISS:       2239
cpu0_DTLB RFO       ACCESS:     173751  HIT:     173751  MISS:          0
cpu0_DTLB PREFETCH  ACCESS:          0  HIT:          0  MISS:          0
cpu0_DTLB WRITEBACK ACCESS:          0  HIT:          0  MISS:          0
cpu0_ITLB TOTAL     ACCESS:     325259  HIT:     325259  MISS:          0
cpu0_ITLB LOAD      ACCESS:     325259  HIT:     325259  MISS:          0
cpu0_ITLB RFO       ACCESS:          0  HIT:          0  MISS:          0
cpu0_ITLB PREFETCH  ACCESS:          0  HIT:          0  MISS:          0
cpu0_ITLB WRITEBACK ACCESS:          0  HIT:          0  MISS:          0
cpu0_L1I TOTAL     ACCESS:     120537  HIT:     120537  MISS:          0
cpu0_L1I LOAD      ACCESS:     120537  HIT:     120537  MISS:          0
cpu0_L1I RFO       ACCESS:          0  HIT:          0  MISS:          0
cpu0_L1I PREFETCH  ACCESS:          0  HIT:          0  MISS:          0
cpu0_L1I WRITEBACK ACCESS:          0  HIT:          0  MISS:          0
cpu0_STLB TOTAL     ACCESS:       2239  HIT:       2178  MISS:         61
cpu0_STLB LOAD      ACCESS:       2239  HIT:       2178  MISS:         61
cpu0_STLB RFO       ACCESS:          0  HIT:          0  MISS:          0
cpu0_STLB PREFETCH  ACCESS:          0  HIT:          0  MISS:          0
cpu0_STLB WRITEBACK ACCESS:          0  HIT:          0  MISS:          0
cpu0_L1D TOTAL     ACCESS:    1626666  HIT:    1570625  MISS:      56041
cpu0_L1D LOAD      ACCESS:    1224787  HIT:    1168795  MISS:      55992
cpu0_L1D RFO       ACCESS:     401818  HIT:     401818  MISS:          0
cpu0_L1D PREFETCH  ACCESS:          0  HIT:          0  MISS:          0
cpu0_L1D WRITEBACK ACCESS:          0  HIT:          0  MISS:          0
cpu0_L2C TOTAL     ACCESS:      74235  HIT:      70958  MISS:       3277
cpu0_L2C LOAD      ACCESS:      55992  HIT:      52715  MISS:       3277
cpu0_L2C RFO       ACCESS:          0  HIT:          0  MISS:          0
cpu0_L2C PREFETCH  ACCESS:          0  HIT:          0  MISS:          0
cpu0_L2C WRITEBACK ACCESS:      18194  HIT:      18194  MISS:          0
LLC TOTAL     ACCESS:       3415  HIT:        314  MISS:       3101
LLC LOAD      ACCESS:       3277  HIT:        237  MISS:       3040
LLC RFO       ACCESS:          0  HIT:          0  MISS:          0
LLC PREFETCH  ACCESS:          0  HIT:          0  MISS:          0
LLC WRITEBACK ACCESS:        138  HIT:         77  MISS:         61
Heartbeat CPU 0 instructions: 58000001 cycles: 17600588 heartbeat IPC: 1.58458 cumulative IPC: 1.57629 (Simulation time: 0 hr 33 min 35 sec) 

Region of Interest Statistics
cpu0_DTLB TOTAL     ACCESS:    1653803  HIT:    1650843  MISS:       2960
cpu0_DTLB LOAD      ACCESS:    1422078  HIT:    1419118  MISS:       2960
cpu0_DTLB RFO       ACCESS:     231725  HIT:     231725  MISS:          0
cpu0_DTLB PREFETCH  ACCESS:          0  HIT:          0  MISS:          0
cpu0_DTLB WRITEBACK ACCESS:          0  HIT:          0  MISS:          0
cpu0_ITLB TOTAL     ACCESS:     438533  HIT:     438533  MISS:          0
cpu0_ITLB LOAD      ACCESS:     438533  HIT:     438533  MISS:          0
cpu0_ITLB RFO       ACCESS:          0  HIT:          0  MISS:          0
cpu0_ITLB PREFETCH  ACCESS:          0  HIT:          0  MISS:          0
cpu0_ITLB WRITEBACK ACCESS:          0  HIT:          0  MISS:          0
cpu0_L1I TOTAL     ACCESS:     159557  HIT:     159557  MISS:          0
cpu0_L1I LOAD      ACCESS:     159557  HIT:     159557  MISS:          0
cpu0_L1I RFO       ACCESS:          0  HIT:          0  MISS:          0
cpu0_L1I PREFETCH  ACCESS:          0  HIT:          0  MISS:          0
cpu0_L1I WRITEBACK ACCESS:          0  HIT:          0  MISS:          0
cpu0_STLB TOTAL     ACCESS:       2960  HIT:       2883  MISS:         77
cpu0_STLB LOAD      ACCESS:       2960  HIT:       2883  MISS:         77
cpu0_STLB RFO       ACCESS:          0  HIT:          0  MISS:          0
cpu0_STLB PREFETCH  ACCESS:          0  HIT:          0  MISS:          0
cpu0_STLB WRITEBACK ACCESS:          0  HIT:          0  MISS:          0
cpu0_L1D TOTAL     ACCESS:    2166826  HIT:    2092259  MISS:      74567
cpu0_L1D LOAD      ACCESS:    1631294  HIT:    1556790  MISS:      74504
cpu0_L1D RFO       ACCESS:     535455  HIT:     535455  MISS:          0
cpu0_L1D PREFETCH  ACCESS:          0  HIT:          0  MISS:          0
cpu0_L1D WRITEBACK ACCESS:          0  HIT:          0  MISS:          0
cpu0_L2C TOTAL     ACCESS:      98768  HIT:      94553  MISS:       4215
cpu0_L2C LOAD      ACCESS:      74504  HIT:      70289  MISS:       4215
cpu0_L2C RFO       ACCESS:          0  HIT:          0  MISS:          0
cpu0_L2C PREFETCH  ACCESS:          0  HIT:          0  MISS:          0
cpu0_L2C WRITEBACK ACCESS:      24201  HIT:      24201  MISS:          0
LLC TOTAL     ACCESS:       4417  HIT:        370  MISS:       4047
LLC LOAD      ACCESS:       4215  HIT:        248  MISS:       3967
LLC RFO       ACCESS:          0  HIT:          0  MISS:          0
LLC PREFETCH  ACCESS:          0  HIT:          0  MISS:          0
LLC WRITEBACK ACCESS:        202  HIT:        122  MISS:         80
Heartbeat CPU 0 instructions: 60000002 cycles: 18860426 heartbeat IPC: 1.58751 cumulative IPC: 1.57852 (Simulation time: 0 hr 35 min 11 sec) 

Region of Interest Statistics
cpu0_DTLB TOTAL     ACCESS:    2066544  HIT:    2062918  MISS:       3626
cpu0_DTLB LOAD      ACCESS:    1776903  HIT:    1773277  MISS:       3626
cpu0_DTLB RFO       ACCESS:     289641  HIT:     289641  MISS:          0
cpu0_DTLB PREFETCH  ACCESS:          0  HIT:          0  MISS:          0
cpu0_DTLB WRITEBACK ACCESS:          0  HIT:          0  MISS:          0
cpu0_ITLB TOTAL     ACCESS:     549267  HIT:     549267  MISS:          0
cpu0_ITLB LOAD      ACCESS:     549267  HIT:     549267  MISS:          0
cpu0_ITLB RFO       ACCESS:          0  HIT:          0  MISS:          0
cpu0_ITLB PREFETCH  ACCESS:          0  HIT:          0  MISS:          0
cpu0_ITLB WRITEBACK ACCESS:          0  HIT:          0  MISS:          0
cpu0_L1I TOTAL     ACCESS:     199228  HIT:     199228  MISS:          0
cpu0_L1I LOAD      ACCESS:     199228  HIT:     199228  MISS:          0
cpu0_L1I RFO       ACCESS:          0  HIT:          0  MISS:          0
cpu0_L1I PREFETCH  ACCESS:          0  HIT:          0  MISS:          0
cpu0_L1I WRITEBACK ACCESS:          0  HIT:          0  MISS:          0
cpu0_STLB TOTAL     ACCESS:       3626  HIT:       3536  MISS:         90
cpu0_STLB LOAD      ACCESS:       3626  HIT:       3536  MISS:         90
cpu0_STLB RFO       ACCESS:          0  HIT:          0  MISS:          0
cpu0_STLB PREFETCH  ACCESS:          0  HIT:          0  MISS:          0
cpu0_STLB WRITEBACK ACCESS:          0  HIT:          0  MISS:          0
cpu0_L1D TOTAL     ACCESS:    2707712  HIT:    2614729  MISS:      92983
cpu0_L1D LOAD      ACCESS:    2038399  HIT:    1945489  MISS:      92910
cpu0_L1D RFO       ACCESS:     669223  HIT:     669223  MISS:          0
cpu0_L1D PREFETCH  ACCESS:          0  HIT:          0  MISS:          0
cpu0_L1D WRITEBACK ACCESS:          0  HIT:          0  MISS:          0
cpu0_L2C TOTAL     ACCESS:     123173  HIT:     118008  MISS:       5165
cpu0_L2C LOAD      ACCESS:      92910  HIT:      87746  MISS:       5164
cpu0_L2C RFO       ACCESS:          0  HIT:          0  MISS:          0
cpu0_L2C PREFETCH  ACCESS:          0  HIT:          0  MISS:          0
cpu0_L2C WRITEBACK ACCESS:      30190  HIT:      30190  MISS:          0
LLC TOTAL     ACCESS:       5445  HIT:        456  MISS:       4989
LLC LOAD      ACCESS:       5164  HIT:        279  MISS:       4885
LLC RFO       ACCESS:          0  HIT:          0  MISS:          0
LLC PREFETCH  ACCESS:          0  HIT:          0  MISS:          0
LLC WRITEBACK ACCESS:        280  HIT:        176  MISS:        104
Heartbeat CPU 0 instructions: 62000003 cycles: 20121118 heartbeat IPC: 1.58643 cumulative IPC: 1.57984 (Simulation time: 0 hr 36 min 53 sec) 

Region of Interest Statistics
cpu0_DTLB TOTAL     ACCESS:    2481088  HIT:    2476830  MISS:       4258
cpu0_DTLB LOAD      ACCESS:    2133544  HIT:    2129286  MISS:       4258
cpu0_DTLB RFO       ACCESS:     347544  HIT:     347544  MISS:          0
cpu0_DTLB PREFETCH  ACCESS:          0  HIT:          0  MISS:          0
cpu0_DTLB WRITEBACK ACCESS:          0  HIT:          0  MISS:          0
cpu0_ITLB TOTAL     ACCESS:     658595  HIT:     658595  MISS:          0
cpu0_ITLB LOAD      ACCESS:     658595  HIT:     658595  MISS:          0
cpu0_ITLB RFO       ACCESS:          0  HIT:          0  MISS:          0
cpu0_ITLB PREFETCH  ACCESS:          0  HIT:          0  MISS:          0
cpu0_ITLB WRITEBACK ACCESS:          0  HIT:          0  MISS:          0
cpu0_L1I TOTAL     ACCESS:     238587  HIT:     238587  MISS:          0
cpu0_L1I LOAD      ACCESS:     238587  HIT:     238587  MISS:          0
cpu0_L1I RFO       ACCESS:          0  HIT:          0  MISS:          0
cpu0_L1I PREFETCH  ACCESS:          0  HIT:          0  MISS:          0
cpu0_L1I WRITEBACK ACCESS:          0  HIT:          0  MISS:          0
cpu0_STLB TOTAL     ACCESS:       4258  HIT:       4150  MISS:        108
cpu0_STLB LOAD      ACCESS:       4258  HIT:       4150  MISS:        108
cpu0_STLB RFO       ACCESS:          0  HIT:          0  MISS:          0
cpu0_STLB PREFETCH  ACCESS:          0  HIT:          0  MISS:          0
cpu0_STLB WRITEBACK ACCESS:          0  HIT:          0  MISS:          0
cpu0_L1D TOTAL     ACCESS:    3250432  HIT:    3138939  MISS:     111493
cpu0_L1D LOAD      ACCESS:    2447126  HIT:    2335721  MISS:     111405
cpu0_L1D RFO       ACCESS:     803198  HIT:     803198  MISS:          0
cpu0_L1D PREFETCH  ACCESS:          0  HIT:          0  MISS:          0
cpu0_L1D WRITEBACK ACCESS:          0  HIT:          0  MISS:          0
cpu0_L2C TOTAL     ACCESS:     147705  HIT:     141524  MISS:       6181
cpu0_L2C LOAD      ACCESS:     111405  HIT:     105225  MISS:       6180
cpu0_L2C RFO       ACCESS:          0  HIT:          0  MISS:          0
cpu0_L2C PREFETCH  ACCESS:          0  HIT:          0  MISS:          0
cpu0_L2C WRITEBACK ACCESS:      36212  HIT:      36212  MISS:          0
LLC TOTAL     ACCESS:       6549  HIT:        595  MISS:       5954
LLC LOAD      ACCESS:       6180  HIT:        350  MISS:       5830
LLC RFO       ACCESS:          0  HIT:          0  MISS:          0
LLC PREFETCH  ACCESS:          0  HIT:          0  MISS:          0
LLC WRITEBACK ACCESS:        368  HIT:        244  MISS:        124
Heartbeat CPU 0 instructions: 64000003 cycles: 21389459 heartbeat IPC: 1.57686 cumulative IPC: 1.57941 (Simulation time: 0 hr 38 min 34 sec) 

Region of Interest Statistics
cpu0_DTLB TOTAL     ACCESS:    2895357  HIT:    2890403  MISS:       4954
cpu0_DTLB LOAD      ACCESS:    2489927  HIT:    2484973  MISS:       4954
cpu0_DTLB RFO       ACCESS:     405430  HIT:     405430  MISS:          0
cpu0_DTLB PREFETCH  ACCESS:          0  HIT:          0  MISS:          0
cpu0_DTLB WRITEBACK ACCESS:          0  HIT:          0  MISS:          0
cpu0_ITLB TOTAL     ACCESS:     764708  HIT:     764708  MISS:          0
cpu0_ITLB LOAD      ACCESS:     764708  HIT:     764708  MISS:          0
cpu0_ITLB RFO       ACCESS:          0  HIT:          0  MISS:          0
cpu0_ITLB PREFETCH  ACCESS:          0  HIT:          0  MISS:          0
cpu0_ITLB WRITEBACK ACCESS:          0  HIT:          0  MISS:          0
cpu0_L1I TOTAL     ACCESS:     279338  HIT:     279338  MISS:          0
cpu0_L1I LOAD      ACCESS:     279338  HIT:     279338  MISS:          0
cpu0_L1I RFO       ACCESS:          0  HIT:          0  MISS:          0
cpu0_L1I PREFETCH  ACCESS:          0  HIT:          0  MISS:          0
cpu0_L1I WRITEBACK ACCESS:          0  HIT:          0  MISS:          0
cpu0_STLB TOTAL     ACCESS:       4954  HIT:       4830  MISS:        124
cpu0_STLB LOAD      ACCESS:       4954  HIT:       4830  MISS:        124
cpu0_STLB RFO       ACCESS:          0  HIT:          0  MISS:          0
cpu0_STLB PREFETCH  ACCESS:          0  HIT:          0  MISS:          0
cpu0_STLB WRITEBACK ACCESS:          0  HIT:          0  MISS:          0
cpu0_L1D TOTAL     ACCESS:    3792991  HIT:    3663017  MISS:     129974
cpu0_L1D LOAD      ACCESS:    2855718  HIT:    2725845  MISS:     129873
cpu0_L1D RFO       ACCESS:     937149  HIT:     937149  MISS:          0
cpu0_L1D PREFETCH  ACCESS:          0  HIT:          0  MISS:          0
cpu0_L1D WRITEBACK ACCESS:          0  HIT:          0  MISS:          0
cpu0_L2C TOTAL     ACCESS:     172191  HIT:     164871  MISS:       7320
cpu0_L2C LOAD      ACCESS:     129873  HIT:     122554  MISS:       7319
cpu0_L2C RFO       ACCESS:          0  HIT:          0  MISS:          0
cpu0_L2C PREFETCH  ACCESS:          0  HIT:          0  MISS:          0
cpu0_L2C WRITEBACK ACCESS:      42217  HIT:      42217  MISS:          0
LLC TOTAL     ACCESS:       7728  HIT:        728  MISS:       7000
LLC LOAD      ACCESS:       7319  HIT:        453  MISS:       6866
LLC RFO       ACCESS:          0  HIT:          0  MISS:          0
LLC PREFETCH  ACCESS:          0  HIT:          0  MISS:          0
LLC WRITEBACK ACCESS:        408  HIT:        274  MISS:        134
Heartbeat CPU 0 instructions: 66000001 cycles: 22653802 heartbeat IPC: 1.58185 cumulative IPC: 1.57971 (Simulation time: 0 hr 40 min 11 sec) 

Region of Interest Statistics
cpu0_DTLB TOTAL     ACCESS:    3311207  HIT:    3305550  MISS:       5657
cpu0_DTLB LOAD      ACCESS:    2847968  HIT:    2842311  MISS:       5657
cpu0_DTLB RFO       ACCESS:     463239  HIT:     463239  MISS:          0
cpu0_DTLB PREFETCH  ACCESS:          0  HIT:          0  MISS:          0
cpu0_DTLB WRITEBACK ACCESS:          0  HIT:          0  MISS:          0
cpu0_ITLB TOTAL     ACCESS:     865856  HIT:     865856  MISS:          0
cpu0_ITLB LOAD      ACCESS:     865856  HIT:     865856  MISS:          0
cpu0_ITLB RFO       ACCESS:          0  HIT:          0  MISS:          0
cpu0_ITLB PREFETCH  ACCESS:          0  HIT:          0  MISS:          0
cpu0_ITLB WRITEBACK ACCESS:          0  HIT:          0  MISS:          0
cpu0_L1I TOTAL     ACCESS:     321834  HIT:     321834  MISS:          0
cpu0_L1I LOAD      ACCESS:     321834  HIT:     321834  MISS:          0
cpu0_L1I RFO       ACCESS:          0  HIT:          0  MISS:          0
cpu0_L1I PREFETCH  ACCESS:          0  HIT:          0  MISS:          0
cpu0_L1I WRITEBACK ACCESS:          0  HIT:          0  MISS:          0
cpu0_STLB TOTAL     ACCESS:       5657  HIT:       5511  MISS:        146
cpu0_STLB LOAD      ACCESS:       5657  HIT:       5511  MISS:        146
cpu0_STLB RFO       ACCESS:          0  HIT:          0  MISS:          0
cpu0_STLB PREFETCH  ACCESS:          0  HIT:          0  MISS:          0
cpu0_STLB WRITEBACK ACCESS:          0  HIT:          0  MISS:          0
cpu0_L1D TOTAL     ACCESS:    4337511  HIT:    4188851  MISS:     148660
cpu0_L1D LOAD      ACCESS:    3265977  HIT:    3117432  MISS:     148545
cpu0_L1D RFO       ACCESS:    1071388  HIT:    1071388  MISS:          0
cpu0_L1D PREFETCH  ACCESS:          0  HIT:          0  MISS:          0
cpu0_L1D WRITEBACK ACCESS:          0  HIT:          0  MISS:          0
cpu0_L2C TOTAL     ACCESS:     196935  HIT:     188501  MISS:       8434
cpu0_L2C LOAD      ACCESS:     148545  HIT:     140113  MISS:       8432
cpu0_L2C RFO       ACCESS:          0  HIT:          0  MISS:          0
cpu0_L2C PREFETCH  ACCESS:          0  HIT:          0  MISS:          0
cpu0_L2C WRITEBACK ACCESS:      48275  HIT:      48275  MISS:          0
LLC TOTAL     ACCESS:       8930  HIT:        871  MISS:       8059
LLC LOAD      ACCESS:       8432  HIT:        520  MISS:       7912
LLC RFO       ACCESS:          0  HIT:          0  MISS:          0
LLC PREFETCH  ACCESS:          0  HIT:          0  MISS:          0
LLC WRITEBACK ACCESS:        496  HIT:        349  MISS:        147
Heartbeat CPU 0 instructions: 68000003 cycles: 23919523 heartbeat IPC: 1.58013 cumulative IPC: 1.57976 (Simulation time: 0 hr 41 min 52 sec) 

Region of Interest Statistics
cpu0_DTLB TOTAL     ACCESS:    3724921  HIT:    3718649  MISS:       6272
cpu0_DTLB LOAD      ACCESS:    3203814  HIT:    3197542  MISS:       6272
cpu0_DTLB RFO       ACCESS:     521107  HIT:     521107  MISS:          0
cpu0_DTLB PREFETCH  ACCESS:          0  HIT:          0  MISS:          0
cpu0_DTLB WRITEBACK ACCESS:          0  HIT:          0  MISS:          0
cpu0_ITLB TOTAL     ACCESS:     975421  HIT:     975421  MISS:          0
cpu0_ITLB LOAD      ACCESS:     975421  HIT:     975421  MISS:          0
cpu0_ITLB RFO       ACCESS:          0  HIT:          0  MISS:          0
cpu0_ITLB PREFETCH  ACCESS:          0  HIT:          0  MISS:          0
cpu0_ITLB WRITEBACK ACCESS:          0  HIT:          0  MISS:          0
cpu0_L1I TOTAL     ACCESS:     361775  HIT:     361775  MISS:          0
cpu0_L1I LOAD      ACCESS:     361775  HIT:     361775  MISS:          0
cpu0_L1I RFO       ACCESS:          0  HIT:          0  MISS:          0
cpu0_L1I PREFETCH  ACCESS:          0  HIT:          0  MISS:          0
cpu0_L1I WRITEBACK ACCESS:          0  HIT:          0  MISS:          0
cpu0_STLB TOTAL     ACCESS:       6272  HIT:       6105  MISS:        167
cpu0_STLB LOAD      ACCESS:       6272  HIT:       6105  MISS:        167
cpu0_STLB RFO       ACCESS:          0  HIT:          0  MISS:          0
cpu0_STLB PREFETCH  ACCESS:          0  HIT:          0  MISS:          0
cpu0_STLB WRITEBACK ACCESS:          0  HIT:          0  MISS:          0
cpu0_L1D TOTAL     ACCESS:    4879476  HIT:    4712296  MISS:     167180
cpu0_L1D LOAD      ACCESS:    3674061  HIT:    3507010  MISS:     167051
cpu0_L1D RFO       ACCESS:    1205248  HIT:    1205248  MISS:          0
cpu0_L1D PREFETCH  ACCESS:          0  HIT:          0  MISS:          0
cpu0_L1D WRITEBACK ACCESS:          0  HIT:          0  MISS:          0
cpu0_L2C TOTAL     ACCESS:     221461  HIT:     212051  MISS:       9410
cpu0_L2C LOAD      ACCESS:     167051  HIT:     157644  MISS:       9407
cpu0_L2C RFO       ACCESS:          0  HIT:          0  MISS:          0
cpu0_L2C PREFETCH  ACCESS:          0  HIT:          0  MISS:          0
cpu0_L2C WRITEBACK ACCESS:      54281  HIT:      54281  MISS:          0
LLC TOTAL     ACCESS:       9935  HIT:        902  MISS:       9033
LLC LOAD      ACCESS:       9407  HIT:        539  MISS:       8868
LLC RFO       ACCESS:          0  HIT:          0  MISS:          0
LLC PREFETCH  ACCESS:          0  HIT:          0  MISS:          0
LLC WRITEBACK ACCESS:        525  HIT:        360  MISS:        165
Heartbeat CPU 0 instructions: 70000004 cycles: 25185437 heartbeat IPC: 1.57989 cumulative IPC: 1.57977 (Simulation time: 0 hr 43 min 27 sec) 

Region of Interest Statistics
cpu0_DTLB TOTAL     ACCESS:    4137776  HIT:    4130971  MISS:       6805
cpu0_DTLB LOAD      ACCESS:    3558717  HIT:    3551912  MISS:       6805
cpu0_DTLB RFO       ACCESS:     579059  HIT:     579059  MISS:          0
cpu0_DTLB PREFETCH  ACCESS:          0  HIT:          0  MISS:          0
cpu0_DTLB WRITEBACK ACCESS:          0  HIT:          0  MISS:          0
cpu0_ITLB TOTAL     ACCESS:    1087184  HIT:    1087184  MISS:          0
cpu0_ITLB LOAD      ACCESS:    1087184  HIT:    1087184  MISS:          0
cpu0_ITLB RFO       ACCESS:          0  HIT:          0  MISS:          0
cpu0_ITLB PREFETCH  ACCESS:          0  HIT:          0  MISS:          0
cpu0_ITLB WRITEBACK ACCESS:          0  HIT:          0  MISS:          0
cpu0_L1I TOTAL     ACCESS:     401271  HIT:     401271  MISS:          0
cpu0_L1I LOAD      ACCESS:     401271  HIT:     401271  MISS:          0
cpu0_L1I RFO       ACCESS:          0  HIT:          0  MISS:          0
cpu0_L1I PREFETCH  ACCESS:          0  HIT:          0  MISS:          0
cpu0_L1I WRITEBACK ACCESS:          0  HIT:          0  MISS:          0
cpu0_STLB TOTAL     ACCESS:       6805  HIT:       6612  MISS:        193
cpu0_STLB LOAD      ACCESS:       6805  HIT:       6612  MISS:        193
cpu0_STLB RFO       ACCESS:          0  HIT:          0  MISS:          0
cpu0_STLB PREFETCH  ACCESS:          0  HIT:          0  MISS:          0
cpu0_STLB WRITEBACK ACCESS:          0  HIT:          0  MISS:          0
cpu0_L1D TOTAL     ACCESS:    5420344  HIT:    5234273  MISS:     186071
cpu0_L1D LOAD      ACCESS:    4081118  HIT:    3895190  MISS:     185928
cpu0_L1D RFO       ACCESS:    1339033  HIT:    1339033  MISS:          0
cpu0_L1D PREFETCH  ACCESS:          0  HIT:          0  MISS:          0
cpu0_L1D WRITEBACK ACCESS:          0  HIT:          0  MISS:          0
cpu0_L2C TOTAL     ACCESS:     246449  HIT:     236106  MISS:      10343
cpu0_L2C LOAD      ACCESS:     185928  HIT:     175588  MISS:      10340
cpu0_L2C RFO       ACCESS:          0  HIT:          0  MISS:          0
cpu0_L2C PREFETCH  ACCESS:          0  HIT:          0  MISS:          0
cpu0_L2C WRITEBACK ACCESS:      60378  HIT:      60378  MISS:          0
LLC TOTAL     ACCESS:      10894  HIT:        928  MISS:       9966
LLC LOAD      ACCESS:      10340  HIT:        547  MISS:       9793
LLC RFO       ACCESS:          0  HIT:          0  MISS:          0
LLC PREFETCH  ACCESS:          0  HIT:          0  MISS:          0
LLC WRITEBACK ACCESS:        551  HIT:        378  MISS:        173
Heartbeat CPU 0 instructions: 72000000 cycles: 26459501 heartbeat IPC: 1.56978 cumulative IPC: 1.57886 (Simulation time: 0 hr 45 min 4 sec) 

Region of Interest Statistics
cpu0_DTLB TOTAL     ACCESS:    4549250  HIT:    4541903  MISS:       7347
cpu0_DTLB LOAD      ACCESS:    3912045  HIT:    3904698  MISS:       7347
cpu0_DTLB RFO       ACCESS:     637205  HIT:     637205  MISS:          0
cpu0_DTLB PREFETCH  ACCESS:          0  HIT:          0  MISS:          0
cpu0_DTLB WRITEBACK ACCESS:          0  HIT:          0  MISS:          0
cpu0_ITLB TOTAL     ACCESS:    1204646  HIT:    1204646  MISS:          0
cpu0_ITLB LOAD      ACCESS:    1204646  HIT:    1204646  MISS:          0
cpu0_ITLB RFO       ACCESS:          0  HIT:          0  MISS:          0
cpu0_ITLB PREFETCH  ACCESS:          0  HIT:          0  MISS:          0
cpu0_ITLB WRITEBACK ACCESS:          0  HIT:          0  MISS:          0
cpu0_L1I TOTAL     ACCESS:     439147  HIT:     439147  MISS:          0
cpu0_L1I LOAD      ACCESS:     439147  HIT:     439147  MISS:          0
cpu0_L1I RFO       ACCESS:          0  HIT:          0  MISS:          0
cpu0_L1I PREFETCH  ACCESS:          0  HIT:          0  MISS:          0
cpu0_L1I WRITEBACK ACCESS:          0  HIT:          0  MISS:          0
cpu0_STLB TOTAL     ACCESS:       7347  HIT:       7132  MISS:        215
cpu0_STLB LOAD      ACCESS:       7347  HIT:       7132  MISS:        215
cpu0_STLB RFO       ACCESS:          0  HIT:          0  MISS:          0
cpu0_STLB PREFETCH  ACCESS:          0  HIT:          0  MISS:          0
cpu0_STLB WRITEBACK ACCESS:          0  HIT:          0  MISS:          0
cpu0_L1D TOTAL     ACCESS:    5959479  HIT:    5754928  MISS:     204551
cpu0_L1D LOAD      ACCESS:    4486694  HIT:    4282301  MISS:     204393
cpu0_L1D RFO       ACCESS:    1472570  HIT:    1472570  MISS:          0
cpu0_L1D PREFETCH  ACCESS:          0  HIT:          0  MISS:          0
cpu0_L1D WRITEBACK ACCESS:          0  HIT:          0  MISS:          0
cpu0_L2C TOTAL     ACCESS:     270884  HIT:     259604  MISS:      11280
cpu0_L2C LOAD      ACCESS:     204393  HIT:     193116  MISS:      11277
cpu0_L2C RFO       ACCESS:          0  HIT:          0  MISS:          0
cpu0_L2C PREFETCH  ACCESS:          0  HIT:          0  MISS:          0
cpu0_L2C WRITEBACK ACCESS:      66333  HIT:      66333  MISS:          0
LLC TOTAL     ACCESS:      11876  HIT:        986  MISS:      10890
LLC LOAD      ACCESS:      11277  HIT:        571  MISS:      10706
LLC RFO       ACCESS:          0  HIT:          0  MISS:          0
LLC PREFETCH  ACCESS:          0  HIT:          0  MISS:          0
LLC WRITEBACK ACCESS:        596  HIT:        412  MISS:        184
Heartbeat CPU 0 instructions: 74000003 cycles: 27733090 heartbeat IPC: 1.57037 cumulative IPC: 1.57815 (Simulation time: 0 hr 46 min 38 sec) 

Region of Interest Statistics
cpu0_DTLB TOTAL     ACCESS:    4961050  HIT:    4953117  MISS:       7933
cpu0_DTLB LOAD      ACCESS:    4265616  HIT:    4257683  MISS:       7933
cpu0_DTLB RFO       ACCESS:     695434  HIT:     695434  MISS:          0
cpu0_DTLB PREFETCH  ACCESS:          0  HIT:          0  MISS:          0
cpu0_DTLB WRITEBACK ACCESS:          0  HIT:          0  MISS:          0
cpu0_ITLB TOTAL     ACCESS:    1322065  HIT:    1322065  MISS:          0
cpu0_ITLB LOAD      ACCESS:    1322065  HIT:    1322065  MISS:          0
cpu0_ITLB RFO       ACCESS:          0  HIT:          0  MISS:          0
cpu0_ITLB PREFETCH  ACCESS:          0  HIT:          0  MISS:          0
cpu0_ITLB WRITEBACK ACCESS:          0  HIT:          0  MISS:          0
cpu0_L1I TOTAL     ACCESS:     476748  HIT:     476748  MISS:          0
cpu0_L1I LOAD      ACCESS:     476748  HIT:     476748  MISS:          0
cpu0_L1I RFO       ACCESS:          0  HIT:          0  MISS:          0
cpu0_L1I PREFETCH  ACCESS:          0  HIT:          0  MISS:          0
cpu0_L1I WRITEBACK ACCESS:          0  HIT:          0  MISS:          0
cpu0_STLB TOTAL     ACCESS:       7933  HIT:       7696  MISS:        237
cpu0_STLB LOAD      ACCESS:       7933  HIT:       7696  MISS:        237
cpu0_STLB RFO       ACCESS:          0  HIT:          0  MISS:          0
cpu0_STLB PREFETCH  ACCESS:          0  HIT:          0  MISS:          0
cpu0_STLB WRITEBACK ACCESS:          0  HIT:          0  MISS:          0
cpu0_L1D TOTAL     ACCESS:    6498818  HIT:    6275727  MISS:     223091
cpu0_L1D LOAD      ACCESS:    4892338  HIT:    4669423  MISS:     222915
cpu0_L1D RFO       ACCESS:    1606243  HIT:    1606243  MISS:          0
cpu0_L1D PREFETCH  ACCESS:          0  HIT:          0  MISS:          0
cpu0_L1D WRITEBACK ACCESS:          0  HIT:          0  MISS:          0
cpu0_L2C TOTAL     ACCESS:     295435  HIT:     283208  MISS:      12227
cpu0_L2C LOAD      ACCESS:     222915  HIT:     210694  MISS:      12221
cpu0_L2C RFO       ACCESS:          0  HIT:          0  MISS:          0
cpu0_L2C PREFETCH  ACCESS:          0  HIT:          0  MISS:          0
cpu0_L2C WRITEBACK ACCESS:      72344  HIT:      72344  MISS:          0
LLC TOTAL     ACCESS:      12880  HIT:       1043  MISS:      11837
LLC LOAD      ACCESS:      12221  HIT:        592  MISS:      11629
LLC RFO       ACCESS:          0  HIT:          0  MISS:          0
LLC PREFETCH  ACCESS:          0  HIT:          0  MISS:          0
LLC WRITEBACK ACCESS:        653  HIT:        448  MISS:        205
Heartbeat CPU 0 instructions: 76000001 cycles: 29000639 heartbeat IPC: 1.57785 cumulative IPC: 1.57812 (Simulation time: 0 hr 48 min 18 sec) 

Region of Interest Statistics
cpu0_DTLB TOTAL     ACCESS:    5374118  HIT:    5365673  MISS:       8445
cpu0_DTLB LOAD      ACCESS:    4620868  HIT:    4612423  MISS:       8445
cpu0_DTLB RFO       ACCESS:     753250  HIT:     753250  MISS:          0
cpu0_DTLB PREFETCH  ACCESS:          0  HIT:          0  MISS:          0
cpu0_DTLB WRITEBACK ACCESS:          0  HIT:          0  MISS:          0
cpu0_ITLB TOTAL     ACCESS:    1432744  HIT:    1432744  MISS:          0
cpu0_ITLB LOAD      ACCESS:    1432744  HIT:    1432744  MISS:          0
cpu0_ITLB RFO       ACCESS:          0  HIT:          0  MISS:          0
cpu0_ITLB PREFETCH  ACCESS:          0  HIT:          0  MISS:          0
cpu0_ITLB WRITEBACK ACCESS:          0  HIT:          0  MISS:          0
cpu0_L1I TOTAL     ACCESS:     516753  HIT:     516753  MISS:          0
cpu0_L1I LOAD      ACCESS:     516753  HIT:     516753  MISS:          0
cpu0_L1I RFO       ACCESS:          0  HIT:          0  MISS:          0
cpu0_L1I PREFETCH  ACCESS:          0  HIT:          0  MISS:          0
cpu0_L1I WRITEBACK ACCESS:          0  HIT:          0  MISS:          0
cpu0_STLB TOTAL     ACCESS:       8445  HIT:       8187  MISS:        258
cpu0_STLB LOAD      ACCESS:       8445  HIT:       8187  MISS:        258
cpu0_STLB RFO       ACCESS:          0  HIT:          0  MISS:          0
cpu0_STLB PREFETCH  ACCESS:          0  HIT:          0  MISS:          0
cpu0_STLB WRITEBACK ACCESS:          0  HIT:          0  MISS:          0
cpu0_L1D TOTAL     ACCESS:    7040201  HIT:    6798584  MISS:     241617
cpu0_L1D LOAD      ACCESS:    5299952  HIT:    5058527  MISS:     241425
cpu0_L1D RFO       ACCESS:    1739991  HIT:    1739991  MISS:          0
cpu0_L1D PREFETCH  ACCESS:          0  HIT:          0  MISS:          0
cpu0_L1D WRITEBACK ACCESS:          0  HIT:          0  MISS:          0
cpu0_L2C TOTAL     ACCESS:     319964  HIT:     306728  MISS:      13236
cpu0_L2C LOAD      ACCESS:     241425  HIT:     228196  MISS:      13229
cpu0_L2C RFO       ACCESS:          0  HIT:          0  MISS:          0
cpu0_L2C PREFETCH  ACCESS:          0  HIT:          0  MISS:          0
cpu0_L2C WRITEBACK ACCESS:      78347  HIT:      78347  MISS:          0
LLC TOTAL     ACCESS:      13947  HIT:       1135  MISS:      12812
LLC LOAD      ACCESS:      13229  HIT:        645  MISS:      12584
LLC RFO       ACCESS:          0  HIT:          0  MISS:          0
LLC PREFETCH  ACCESS:          0  HIT:          0  MISS:          0
LLC WRITEBACK ACCESS:        711  HIT:        486  MISS:        225
Heartbeat CPU 0 instructions: 78000004 cycles: 30269395 heartbeat IPC: 1.57635 cumulative IPC: 1.578 (Simulation time: 0 hr 49 min 55 sec) 

Region of Interest Statistics
cpu0_DTLB TOTAL     ACCESS:    5787234  HIT:    5778353  MISS:       8881
cpu0_DTLB LOAD      ACCESS:    4976097  HIT:    4967216  MISS:       8881
cpu0_DTLB RFO       ACCESS:     811137  HIT:     811137  MISS:          0
cpu0_DTLB PREFETCH  ACCESS:          0  HIT:          0  MISS:          0
cpu0_DTLB WRITEBACK ACCESS:          0  HIT:          0  MISS:          0
cpu0_ITLB TOTAL     ACCESS:    1543820  HIT:    1543820  MISS:          0
cpu0_ITLB LOAD      ACCESS:    1543820  HIT:    1543820  MISS:          0
cpu0_ITLB RFO       ACCESS:          0  HIT:          0  MISS:          0
cpu0_ITLB PREFETCH  ACCESS:          0  HIT:          0  MISS:          0
cpu0_ITLB WRITEBACK ACCESS:          0  HIT:          0  MISS:          0
cpu0_L1I TOTAL     ACCESS:     556516  HIT:     556516  MISS:          0
cpu0_L1I LOAD      ACCESS:     556516  HIT:     556516  MISS:          0
cpu0_L1I RFO       ACCESS:          0  HIT:          0  MISS:          0
cpu0_L1I PREFETCH  ACCESS:          0  HIT:          0  MISS:          0
cpu0_L1I WRITEBACK ACCESS:          0  HIT:          0  MISS:          0
cpu0_STLB TOTAL     ACCESS:       8881  HIT:       8601  MISS:        280
cpu0_STLB LOAD      ACCESS:       8881  HIT:       8601  MISS:        280
cpu0_STLB RFO       ACCESS:          0  HIT:          0  MISS:          0
cpu0_STLB PREFETCH  ACCESS:          0  HIT:          0  MISS:          0
cpu0_STLB WRITEBACK ACCESS:          0  HIT:          0  MISS:          0
cpu0_L1D TOTAL     ACCESS:    7581528  HIT:    7321436  MISS:     260092
cpu0_L1D LOAD      ACCESS:    5707533  HIT:    5447649  MISS:     259884
cpu0_L1D RFO       ACCESS:    1873715  HIT:    1873715  MISS:          0
cpu0_L1D PREFETCH  ACCESS:          0  HIT:          0  MISS:          0
cpu0_L1D WRITEBACK ACCESS:          0  HIT:          0  MISS:          0
cpu0_L2C TOTAL     ACCESS:     344381  HIT:     330154  MISS:      14227
cpu0_L2C LOAD      ACCESS:     259884  HIT:     245664  MISS:      14220
cpu0_L2C RFO       ACCESS:          0  HIT:          0  MISS:          0
cpu0_L2C PREFETCH  ACCESS:          0  HIT:          0  MISS:          0
cpu0_L2C WRITEBACK ACCESS:      84289  HIT:      84289  MISS:          0
LLC TOTAL     ACCESS:      14994  HIT:       1226  MISS:      13768
LLC LOAD      ACCESS:      14220  HIT:        699  MISS:      13521
LLC RFO       ACCESS:          0  HIT:          0  MISS:          0
LLC PREFETCH  ACCESS:          0  HIT:          0  MISS:          0
LLC WRITEBACK ACCESS:        767  HIT:        523  MISS:        244
Heartbeat CPU 0 instructions: 80000003 cycles: 31544584 heartbeat IPC: 1.56839 cumulative IPC: 1.57735 (Simulation time: 0 hr 51 min 32 sec) 

Region of Interest Statistics
cpu0_DTLB TOTAL     ACCESS:    6200808  HIT:    6191515  MISS:       9293
cpu0_DTLB LOAD      ACCESS:    5331715  HIT:    5322422  MISS:       9293
cpu0_DTLB RFO       ACCESS:     869093  HIT:     869093  MISS:          0
cpu0_DTLB PREFETCH  ACCESS:          0  HIT:          0  MISS:          0
cpu0_DTLB WRITEBACK ACCESS:          0  HIT:          0  MISS:          0
cpu0_ITLB TOTAL     ACCESS:    1655692  HIT:    1655692  MISS:          0
cpu0_ITLB LOAD      ACCESS:    1655692  HIT:    1655692  MISS:          0
cpu0_ITLB RFO       ACCESS:          0  HIT:          0  MISS:          0
cpu0_ITLB PREFETCH  ACCESS:          0  HIT:          0  MISS:          0
cpu0_ITLB WRITEBACK ACCESS:          0  HIT:          0  MISS:          0
cpu0_L1I TOTAL     ACCESS:     595049  HIT:     595049  MISS:          0
cpu0_L1I LOAD      ACCESS:     595049  HIT:     595049  MISS:          0
cpu0_L1I RFO       ACCESS:          0  HIT:          0  MISS:          0
cpu0_L1I PREFETCH  ACCESS:          0  HIT:          0  MISS:          0
cpu0_L1I WRITEBACK ACCESS:          0  HIT:          0  MISS:          0
cpu0_STLB TOTAL     ACCESS:       9293  HIT:       8988  MISS:        305
cpu0_STLB LOAD      ACCESS:       9293  HIT:       8988  MISS:        305
cpu0_STLB RFO       ACCESS:          0  HIT:          0  MISS:          0
cpu0_STLB PREFETCH  ACCESS:          0  HIT:          0  MISS:          0
cpu0_STLB WRITEBACK ACCESS:          0  HIT:          0  MISS:          0
cpu0_L1D TOTAL     ACCESS:    8123389  HIT:    7844789  MISS:     278600
cpu0_L1D LOAD      ACCESS:    6115583  HIT:    5837208  MISS:     278375
cpu0_L1D RFO       ACCESS:    2007501  HIT:    2007501  MISS:          0
cpu0_L1D PREFETCH  ACCESS:          0  HIT:          0  MISS:          0
cpu0_L1D WRITEBACK ACCESS:          0  HIT:          0  MISS:          0
cpu0_L2C TOTAL     ACCESS:     368862  HIT:     353648  MISS:      15214
cpu0_L2C LOAD      ACCESS:     278375  HIT:     263169  MISS:      15206
cpu0_L2C RFO       ACCESS:          0  HIT:          0  MISS:          0
cpu0_L2C PREFETCH  ACCESS:          0  HIT:          0  MISS:          0
cpu0_L2C WRITEBACK ACCESS:      90262  HIT:      90262  MISS:          0
LLC TOTAL     ACCESS:      16010  HIT:       1271  MISS:      14739
LLC LOAD      ACCESS:      15206  HIT:        727  MISS:      14479
LLC RFO       ACCESS:          0  HIT:          0  MISS:          0
LLC PREFETCH  ACCESS:          0  HIT:          0  MISS:          0
LLC WRITEBACK ACCESS:        796  HIT:        540  MISS:        256
Heartbeat CPU 0 instructions: 82000004 cycles: 32821922 heartbeat IPC: 1.56576 cumulative IPC: 1.57662 (Simulation time: 0 hr 53 min 5 sec) 

Region of Interest Statistics
cpu0_DTLB TOTAL     ACCESS:    6612793  HIT:    6603085  MISS:       9708
cpu0_DTLB LOAD      ACCESS:    5685599  HIT:    5675891  MISS:       9708
cpu0_DTLB RFO       ACCESS:     927194  HIT:     927194  MISS:          0
cpu0_DTLB PREFETCH  ACCESS:          0  HIT:          0  MISS:          0
cpu0_DTLB WRITEBACK ACCESS:          0  HIT:          0  MISS:          0
cpu0_ITLB TOTAL     ACCESS:    1772519  HIT:    1772519  MISS:          0
cpu0_ITLB LOAD      ACCESS:    1772519  HIT:    1772519  MISS:          0
cpu0_ITLB RFO       ACCESS:          0  HIT:          0  MISS:          0
cpu0_ITLB PREFETCH  ACCESS:          0  HIT:          0  MISS:          0
cpu0_ITLB WRITEBACK ACCESS:          0  HIT:          0  MISS:          0
cpu0_L1I TOTAL     ACCESS:     633008  HIT:     633008  MISS:          0
cpu0_L1I LOAD      ACCESS:     633008  HIT:     633008  MISS:          0
cpu0_L1I RFO       ACCESS:          0  HIT:          0  MISS:          0
cpu0_L1I PREFETCH  ACCESS:          0  HIT:          0  MISS:          0
cpu0_L1I WRITEBACK ACCESS:          0  HIT:          0  MISS:          0
cpu0_STLB TOTAL     ACCESS:       9708  HIT:       9381  MISS:        327
cpu0_STLB LOAD      ACCESS:       9708  HIT:       9381  MISS:        327
cpu0_STLB RFO       ACCESS:          0  HIT:          0  MISS:          0
cpu0_STLB PREFETCH  ACCESS:          0  HIT:          0  MISS:          0
cpu0_STLB WRITEBACK ACCESS:          0  HIT:          0  MISS:          0
cpu0_L1D TOTAL     ACCESS:    8662951  HIT:    8365748  MISS:     297203
cpu0_L1D LOAD      ACCESS:    6521563  HIT:    6224602  MISS:     296961
cpu0_L1D RFO       ACCESS:    2141061  HIT:    2141061  MISS:          0
cpu0_L1D PREFETCH  ACCESS:          0  HIT:          0  MISS:          0
cpu0_L1D WRITEBACK ACCESS:          0  HIT:          0  MISS:          0
cpu0_L2C TOTAL     ACCESS:     393410  HIT:     377275  MISS:      16135
cpu0_L2C LOAD      ACCESS:     296961  HIT:     280839  MISS:      16122
cpu0_L2C RFO       ACCESS:          0  HIT:          0  MISS:          0
cpu0_L2C PREFETCH  ACCESS:          0  HIT:          0  MISS:          0
cpu0_L2C WRITEBACK ACCESS:      96207  HIT:      96207  MISS:          0
LLC TOTAL     ACCESS:      16963  HIT:       1293  MISS:      15670
LLC LOAD      ACCESS:      16122  HIT:        733  MISS:      15389
LLC RFO       ACCESS:          0  HIT:          0  MISS:          0
LLC PREFETCH  ACCESS:          0  HIT:          0  MISS:          0
LLC WRITEBACK ACCESS:        828  HIT:        555  MISS:        273
Heartbeat CPU 0 instructions: 84000000 cycles: 34105749 heartbeat IPC: 1.55784 cumulative IPC: 1.57551 (Simulation time: 0 hr 54 min 37 sec) 

Region of Interest Statistics
cpu0_DTLB TOTAL     ACCESS:    7024649  HIT:    7014337  MISS:      10312
cpu0_DTLB LOAD      ACCESS:    6039329  HIT:    6029017  MISS:      10312
cpu0_DTLB RFO       ACCESS:     985320  HIT:     985320  MISS:          0
cpu0_DTLB PREFETCH  ACCESS:          0  HIT:          0  MISS:          0
cpu0_DTLB WRITEBACK ACCESS:          0  HIT:          0  MISS:          0
cpu0_ITLB TOTAL     ACCESS:    1888026  HIT:    1888026  MISS:          0
cpu0_ITLB LOAD      ACCESS:    1888026  HIT:    1888026  MISS:          0
cpu0_ITLB RFO       ACCESS:          0  HIT:          0  MISS:          0
cpu0_ITLB PREFETCH  ACCESS:          0  HIT:          0  MISS:          0
cpu0_ITLB WRITEBACK ACCESS:          0  HIT:          0  MISS:          0
cpu0_L1I TOTAL     ACCESS:     671628  HIT:     671628  MISS:          0
cpu0_L1I LOAD      ACCESS:     671628  HIT:     671628  MISS:          0
cpu0_L1I RFO       ACCESS:          0  HIT:          0  MISS:          0
cpu0_L1I PREFETCH  ACCESS:          0  HIT:          0  MISS:          0
cpu0_L1I WRITEBACK ACCESS:          0  HIT:          0  MISS:          0
cpu0_STLB TOTAL     ACCESS:      10312  HIT:       9955  MISS:        357
cpu0_STLB LOAD      ACCESS:      10312  HIT:       9955  MISS:        357
cpu0_STLB RFO       ACCESS:          0  HIT:          0  MISS:          0
cpu0_STLB PREFETCH  ACCESS:          0  HIT:          0  MISS:          0
cpu0_STLB WRITEBACK ACCESS:          0  HIT:          0  MISS:          0
cpu0_L1D TOTAL     ACCESS:    9202607  HIT:    8886502  MISS:     316105
cpu0_L1D LOAD      ACCESS:    6927540  HIT:    6611699  MISS:     315841
cpu0_L1D RFO       ACCESS:    2274710  HIT:    2274710  MISS:          0
cpu0_L1D PREFETCH  ACCESS:          0  HIT:          0  MISS:          0
cpu0_L1D WRITEBACK ACCESS:          0  HIT:          0  MISS:          0
cpu0_L2C TOTAL     ACCESS:     418365  HIT:     401277  MISS:      17088
cpu0_L2C LOAD      ACCESS:     315841  HIT:     298769  MISS:      17072
cpu0_L2C RFO       ACCESS:          0  HIT:          0  MISS:          0
cpu0_L2C PREFETCH  ACCESS:          0  HIT:          0  MISS:          0
cpu0_L2C WRITEBACK ACCESS:     102260  HIT:     102260  MISS:          0
LLC TOTAL     ACCESS:      17979  HIT:       1327  MISS:      16652
LLC LOAD      ACCESS:      17072  HIT:        747  MISS:      16325
LLC RFO       ACCESS:          0  HIT:          0  MISS:          0
LLC PREFETCH  ACCESS:          0  HIT:          0  MISS:          0
LLC WRITEBACK ACCESS:        891  HIT:        574  MISS:        317
Heartbeat CPU 0 instructions: 86000001 cycles: 35398292 heartbeat IPC: 1.54734 cumulative IPC: 1.57391 (Simulation time: 0 hr 56 min 17 sec) 

Region of Interest Statistics
cpu0_DTLB TOTAL     ACCESS:    7439139  HIT:    7428418  MISS:      10721
cpu0_DTLB LOAD      ACCESS:    6395815  HIT:    6385094  MISS:      10721
cpu0_DTLB RFO       ACCESS:    1043324  HIT:    1043324  MISS:          0
cpu0_DTLB PREFETCH  ACCESS:          0  HIT:          0  MISS:          0
cpu0_DTLB WRITEBACK ACCESS:          0  HIT:          0  MISS:          0
cpu0_ITLB TOTAL     ACCESS:    1999212  HIT:    1999212  MISS:          0
cpu0_ITLB LOAD      ACCESS:    1999212  HIT:    1999212  MISS:          0
cpu0_ITLB RFO       ACCESS:          0  HIT:          0  MISS:          0
cpu0_ITLB PREFETCH  ACCESS:          0  HIT:          0  MISS:          0
cpu0_ITLB WRITEBACK ACCESS:          0  HIT:          0  MISS:          0
cpu0_L1I TOTAL     ACCESS:     711051  HIT:     711051  MISS:          0
cpu0_L1I LOAD      ACCESS:     711051  HIT:     711051  MISS:          0
cpu0_L1I RFO       ACCESS:          0  HIT:          0  MISS:          0
cpu0_L1I PREFETCH  ACCESS:          0  HIT:          0  MISS:          0
cpu0_L1I WRITEBACK ACCESS:          0  HIT:          0  MISS:          0
cpu0_STLB TOTAL     ACCESS:      10721  HIT:      10335  MISS:        386
cpu0_STLB LOAD      ACCESS:      10721  HIT:      10335  MISS:        386
cpu0_STLB RFO       ACCESS:          0  HIT:          0  MISS:          0
cpu0_STLB PREFETCH  ACCESS:          0  HIT:          0  MISS:          0
cpu0_STLB WRITEBACK ACCESS:          0  HIT:          0  MISS:          0
cpu0_L1D TOTAL     ACCESS:    9744852  HIT:    9410044  MISS:     334808
cpu0_L1D LOAD      ACCESS:    7335837  HIT:    7001314  MISS:     334523
cpu0_L1D RFO       ACCESS:    2408629  HIT:    2408629  MISS:          0
cpu0_L1D PREFETCH  ACCESS:          0  HIT:          0  MISS:          0
cpu0_L1D WRITEBACK ACCESS:          0  HIT:          0  MISS:          0
cpu0_L2C TOTAL     ACCESS:     443085  HIT:     424859  MISS:      18226
cpu0_L2C LOAD      ACCESS:     334523  HIT:     316314  MISS:      18209
cpu0_L2C RFO       ACCESS:          0  HIT:          0  MISS:          0
cpu0_L2C PREFETCH  ACCESS:          0  HIT:          0  MISS:          0
cpu0_L2C WRITEBACK ACCESS:     108277  HIT:     108277  MISS:          0
LLC TOTAL     ACCESS:      19182  HIT:       1372  MISS:      17810
LLC LOAD      ACCESS:      18209  HIT:        770  MISS:      17439
LLC RFO       ACCESS:          0  HIT:          0  MISS:          0
LLC PREFETCH  ACCESS:          0  HIT:          0  MISS:          0
LLC WRITEBACK ACCESS:        956  HIT:        595  MISS:        361
Heartbeat CPU 0 instructions: 88000000 cycles: 36684137 heartbeat IPC: 1.5554 cumulative IPC: 1.57293 (Simulation time: 0 hr 57 min 54 sec) 

Region of Interest Statistics
cpu0_DTLB TOTAL     ACCESS:    7851677  HIT:    7840627  MISS:      11050
cpu0_DTLB LOAD      ACCESS:    6750241  HIT:    6739191  MISS:      11050
cpu0_DTLB RFO       ACCESS:    1101436  HIT:    1101436  MISS:          0
cpu0_DTLB PREFETCH  ACCESS:          0  HIT:          0  MISS:          0
cpu0_DTLB WRITEBACK ACCESS:          0  HIT:          0  MISS:          0
cpu0_ITLB TOTAL     ACCESS:    2116120  HIT:    2116120  MISS:          0
cpu0_ITLB LOAD      ACCESS:    2116120  HIT:    2116120  MISS:          0
cpu0_ITLB RFO       ACCESS:          0  HIT:          0  MISS:          0
cpu0_ITLB PREFETCH  ACCESS:          0  HIT:          0  MISS:          0
cpu0_ITLB WRITEBACK ACCESS:          0  HIT:          0  MISS:          0
cpu0_L1I TOTAL     ACCESS:     748479  HIT:     748479  MISS:          0
cpu0_L1I LOAD      ACCESS:     748479  HIT:     748479  MISS:          0
cpu0_L1I RFO       ACCESS:          0  HIT:          0  MISS:          0
cpu0_L1I PREFETCH  ACCESS:          0  HIT:          0  MISS:          0
cpu0_L1I WRITEBACK ACCESS:          0  HIT:          0  MISS:          0
cpu0_STLB TOTAL     ACCESS:      11050  HIT:      10635  MISS:        415
cpu0_STLB LOAD      ACCESS:      11050  HIT:      10635  MISS:        415
cpu0_STLB RFO       ACCESS:          0  HIT:          0  MISS:          0
cpu0_STLB PREFETCH  ACCESS:          0  HIT:          0  MISS:          0
cpu0_STLB WRITEBACK ACCESS:          0  HIT:          0  MISS:          0
cpu0_L1D TOTAL     ACCESS:   10285141  HIT:    9931675  MISS:     353466
cpu0_L1D LOAD      ACCESS:    7742453  HIT:    7389294  MISS:     353159
cpu0_L1D RFO       ACCESS:    2542273  HIT:    2542273  MISS:          0
cpu0_L1D PREFETCH  ACCESS:          0  HIT:          0  MISS:          0
cpu0_L1D WRITEBACK ACCESS:          0  HIT:          0  MISS:          0
cpu0_L2C TOTAL     ACCESS:     467719  HIT:     448543  MISS:      19176
cpu0_L2C LOAD      ACCESS:     353159  HIT:     334001  MISS:      19158
cpu0_L2C RFO       ACCESS:          0  HIT:          0  MISS:          0
cpu0_L2C PREFETCH  ACCESS:          0  HIT:          0  MISS:          0
cpu0_L2C WRITEBACK ACCESS:     114253  HIT:     114253  MISS:          0
LLC TOTAL     ACCESS:      20174  HIT:       1401  MISS:      18773
LLC LOAD      ACCESS:      19158  HIT:        787  MISS:      18371
LLC RFO       ACCESS:          0  HIT:          0  MISS:          0
LLC PREFETCH  ACCESS:          0  HIT:          0  MISS:          0
LLC WRITEBACK ACCESS:        998  HIT:        607  MISS:        391
Heartbeat CPU 0 instructions: 90000002 cycles: 37980452 heartbeat IPC: 1.54284 cumulative IPC: 1.5714 (Simulation time: 0 hr 59 min 26 sec) 

Region of Interest Statistics
cpu0_DTLB TOTAL     ACCESS:    8262415  HIT:    8250986  MISS:      11429
cpu0_DTLB LOAD      ACCESS:    7103142  HIT:    7091713  MISS:      11429
cpu0_DTLB RFO       ACCESS:    1159273  HIT:    1159273  MISS:          0
cpu0_DTLB PREFETCH  ACCESS:          0  HIT:          0  MISS:          0
cpu0_DTLB WRITEBACK ACCESS:          0  HIT:          0  MISS:          0
cpu0_ITLB TOTAL     ACCESS:    2240082  HIT:    2240082  MISS:          0
cpu0_ITLB LOAD      ACCESS:    2240082  HIT:    2240082  MISS:          0
cpu0_ITLB RFO       ACCESS:          0  HIT:          0  MISS:          0
cpu0_ITLB PREFETCH  ACCESS:          0  HIT:          0  MISS:          0
cpu0_ITLB WRITEBACK ACCESS:          0  HIT:          0  MISS:          0
cpu0_L1I TOTAL     ACCESS:     783444  HIT:     783444  MISS:          0
cpu0_L1I LOAD      ACCESS:     783444  HIT:     783444  MISS:          0
cpu0_L1I RFO       ACCESS:          0  HIT:          0  MISS:          0
cpu0_L1I PREFETCH  ACCESS:          0  HIT:          0  MISS:          0
cpu0_L1I WRITEBACK ACCESS:          0  HIT:          0  MISS:          0
cpu0_STLB TOTAL     ACCESS:      11429  HIT:      10980  MISS:        449
cpu0_STLB LOAD      ACCESS:      11429  HIT:      10980  MISS:        449
cpu0_STLB RFO       ACCESS:          0  HIT:          0  MISS:          0
cpu0_STLB PREFETCH  ACCESS:          0  HIT:          0  MISS:          0
cpu0_STLB WRITEBACK ACCESS:          0  HIT:          0  MISS:          0
cpu0_L1D TOTAL     ACCESS:   10823266  HIT:   10454006  MISS:     369260
cpu0_L1D LOAD      ACCESS:    8147157  HIT:    7778221  MISS:     368936
cpu0_L1D RFO       ACCESS:    2675660  HIT:    2675660  MISS:          0
cpu0_L1D PREFETCH  ACCESS:          0  HIT:          0  MISS:          0
cpu0_L1D WRITEBACK ACCESS:          0  HIT:          0  MISS:          0
cpu0_L2C TOTAL     ACCESS:     488395  HIT:     468304  MISS:      20091
cpu0_L2C LOAD      ACCESS:     368936  HIT:     348870  MISS:      20066
cpu0_L2C RFO       ACCESS:          0  HIT:          0  MISS:          0
cpu0_L2C PREFETCH  ACCESS:          0  HIT:          0  MISS:          0
cpu0_L2C WRITEBACK ACCESS:     119135  HIT:     119135  MISS:          0
LLC TOTAL     ACCESS:      21136  HIT:       1416  MISS:      19720
LLC LOAD      ACCESS:      20066  HIT:        788  MISS:      19278
LLC RFO       ACCESS:          0  HIT:          0  MISS:          0
LLC PREFETCH  ACCESS:          0  HIT:          0  MISS:          0
LLC WRITEBACK ACCESS:       1045  HIT:        620  MISS:        425
Heartbeat CPU 0 instructions: 92000004 cycles: 39539481 heartbeat IPC: 1.28285 cumulative IPC: 1.55474 (Simulation time: 1 hr 1 min 16 sec) 

Region of Interest Statistics
cpu0_DTLB TOTAL     ACCESS:    8676748  HIT:    8664809  MISS:      11939
cpu0_DTLB LOAD      ACCESS:    7459394  HIT:    7447455  MISS:      11939
cpu0_DTLB RFO       ACCESS:    1217354  HIT:    1217354  MISS:          0
cpu0_DTLB PREFETCH  ACCESS:          0  HIT:          0  MISS:          0
cpu0_DTLB WRITEBACK ACCESS:          0  HIT:          0  MISS:          0
cpu0_ITLB TOTAL     ACCESS:    2350748  HIT:    2350748  MISS:          0
cpu0_ITLB LOAD      ACCESS:    2350748  HIT:    2350748  MISS:          0
cpu0_ITLB RFO       ACCESS:          0  HIT:          0  MISS:          0
cpu0_ITLB PREFETCH  ACCESS:          0  HIT:          0  MISS:          0
cpu0_ITLB WRITEBACK ACCESS:          0  HIT:          0  MISS:          0
cpu0_L1I TOTAL     ACCESS:     823182  HIT:     823182  MISS:          0
cpu0_L1I LOAD      ACCESS:     823182  HIT:     823182  MISS:          0
cpu0_L1I RFO       ACCESS:          0  HIT:          0  MISS:          0
cpu0_L1I PREFETCH  ACCESS:          0  HIT:          0  MISS:          0
cpu0_L1I WRITEBACK ACCESS:          0  HIT:          0  MISS:          0
cpu0_STLB TOTAL     ACCESS:      11939  HIT:      11353  MISS:        586
cpu0_STLB LOAD      ACCESS:      11939  HIT:      11353  MISS:        586
cpu0_STLB RFO       ACCESS:          0  HIT:          0  MISS:          0
cpu0_STLB PREFETCH  ACCESS:          0  HIT:          0  MISS:          0
cpu0_STLB WRITEBACK ACCESS:          0  HIT:          0  MISS:          0
cpu0_L1D TOTAL     ACCESS:   11363776  HIT:   10975956  MISS:     387820
cpu0_L1D LOAD      ACCESS:    8553646  HIT:    8166174  MISS:     387472
cpu0_L1D RFO       ACCESS:    2809544  HIT:    2809544  MISS:          0
cpu0_L1D PREFETCH  ACCESS:          0  HIT:          0  MISS:          0
cpu0_L1D WRITEBACK ACCESS:          0  HIT:          0  MISS:          0
cpu0_L2C TOTAL     ACCESS:     512944  HIT:     489165  MISS:      23779
cpu0_L2C LOAD      ACCESS:     387472  HIT:     363722  MISS:      23750
cpu0_L2C RFO       ACCESS:          0  HIT:          0  MISS:          0
cpu0_L2C PREFETCH  ACCESS:          0  HIT:          0  MISS:          0
cpu0_L2C WRITEBACK ACCESS:     125124  HIT:     125124  MISS:          0
LLC TOTAL     ACCESS:      25045  HIT:       1504  MISS:      23541
LLC LOAD      ACCESS:      23750  HIT:        800  MISS:      22950
LLC RFO       ACCESS:          0  HIT:          0  MISS:          0
LLC PREFETCH  ACCESS:          0  HIT:          0  MISS:          0
LLC WRITEBACK ACCESS:       1266  HIT:        694  MISS:        572
Heartbeat CPU 0 instructions: 94000004 cycles: 40859334 heartbeat IPC: 1.51532 cumulative IPC: 1.55291 (Simulation time: 1 hr 2 min 56 sec) 

Region of Interest Statistics
cpu0_DTLB TOTAL     ACCESS:    9087950  HIT:    9075209  MISS:      12741
cpu0_DTLB LOAD      ACCESS:    7812500  HIT:    7799759  MISS:      12741
cpu0_DTLB RFO       ACCESS:    1275450  HIT:    1275450  MISS:          0
cpu0_DTLB PREFETCH  ACCESS:          0  HIT:          0  MISS:          0
cpu0_DTLB WRITEBACK ACCESS:          0  HIT:          0  MISS:          0
cpu0_ITLB TOTAL     ACCESS:    2468650  HIT:    2468650  MISS:          0
cpu0_ITLB LOAD      ACCESS:    2468650  HIT:    2468650  MISS:          0
cpu0_ITLB RFO       ACCESS:          0  HIT:          0  MISS:          0
cpu0_ITLB PREFETCH  ACCESS:          0  HIT:          0  MISS:          0
cpu0_ITLB WRITEBACK ACCESS:          0  HIT:          0  MISS:          0
cpu0_L1I TOTAL     ACCESS:     861010  HIT:     861010  MISS:          0
cpu0_L1I LOAD      ACCESS:     861010  HIT:     861010  MISS:          0
cpu0_L1I RFO       ACCESS:          0  HIT:          0  MISS:          0
cpu0_L1I PREFETCH  ACCESS:          0  HIT:          0  MISS:          0
cpu0_L1I WRITEBACK ACCESS:          0  HIT:          0  MISS:          0
cpu0_STLB TOTAL     ACCESS:      12741  HIT:      12130  MISS:        611
cpu0_STLB LOAD      ACCESS:      12741  HIT:      12130  MISS:        611
cpu0_STLB RFO       ACCESS:          0  HIT:          0  MISS:          0
cpu0_STLB PREFETCH  ACCESS:          0  HIT:          0  MISS:          0
cpu0_STLB WRITEBACK ACCESS:          0  HIT:          0  MISS:          0
cpu0_L1D TOTAL     ACCESS:   11902827  HIT:   11496459  MISS:     406368
cpu0_L1D LOAD      ACCESS:    8959066  HIT:    8553065  MISS:     406001
cpu0_L1D RFO       ACCESS:    2943150  HIT:    2943150  MISS:          0
cpu0_L1D PREFETCH  ACCESS:          0  HIT:          0  MISS:          0
cpu0_L1D WRITEBACK ACCESS:          0  HIT:          0  MISS:          0
cpu0_L2C TOTAL     ACCESS:     537528  HIT:     512508  MISS:      25020
cpu0_L2C LOAD      ACCESS:     406001  HIT:     381010  MISS:      24991
cpu0_L2C RFO       ACCESS:          0  HIT:          0  MISS:          0
cpu0_L2C PREFETCH  ACCESS:          0  HIT:          0  MISS:          0
cpu0_L2C WRITEBACK ACCESS:     131160  HIT:     131160  MISS:          0
LLC TOTAL     ACCESS:      26445  HIT:       1568  MISS:      24877
LLC LOAD      ACCESS:      24991  HIT:        821  MISS:      24170
LLC RFO       ACCESS:          0  HIT:          0  MISS:          0
LLC PREFETCH  ACCESS:          0  HIT:          0  MISS:          0
LLC WRITEBACK ACCESS:       1425  HIT:        737  MISS:        688
Heartbeat CPU 0 instructions: 96000001 cycles: 42168795 heartbeat IPC: 1.52734 cumulative IPC: 1.55178 (Simulation time: 1 hr 4 min 35 sec) 

Region of Interest Statistics
cpu0_DTLB TOTAL     ACCESS:    9500145  HIT:    9486619  MISS:      13526
cpu0_DTLB LOAD      ACCESS:    8166583  HIT:    8153057  MISS:      13526
cpu0_DTLB RFO       ACCESS:    1333562  HIT:    1333562  MISS:          0
cpu0_DTLB PREFETCH  ACCESS:          0  HIT:          0  MISS:          0
cpu0_DTLB WRITEBACK ACCESS:          0  HIT:          0  MISS:          0
cpu0_ITLB TOTAL     ACCESS:    2584054  HIT:    2584054  MISS:          0
cpu0_ITLB LOAD      ACCESS:    2584054  HIT:    2584054  MISS:          0
cpu0_ITLB RFO       ACCESS:          0  HIT:          0  MISS:          0
cpu0_ITLB PREFETCH  ACCESS:          0  HIT:          0  MISS:          0
cpu0_ITLB WRITEBACK ACCESS:          0  HIT:          0  MISS:          0
cpu0_L1I TOTAL     ACCESS:     899318  HIT:     899318  MISS:          0
cpu0_L1I LOAD      ACCESS:     899318  HIT:     899318  MISS:          0
cpu0_L1I RFO       ACCESS:          0  HIT:          0  MISS:          0
cpu0_L1I PREFETCH  ACCESS:          0  HIT:          0  MISS:          0
cpu0_L1I WRITEBACK ACCESS:          0  HIT:          0  MISS:          0
cpu0_STLB TOTAL     ACCESS:      13526  HIT:      12888  MISS:        638
cpu0_STLB LOAD      ACCESS:      13526  HIT:      12888  MISS:        638
cpu0_STLB RFO       ACCESS:          0  HIT:          0  MISS:          0
cpu0_STLB PREFETCH  ACCESS:          0  HIT:          0  MISS:          0
cpu0_STLB WRITEBACK ACCESS:          0  HIT:          0  MISS:          0
cpu0_L1D TOTAL     ACCESS:   12443205  HIT:   12018443  MISS:     424762
cpu0_L1D LOAD      ACCESS:    9365722  HIT:    8941345  MISS:     424377
cpu0_L1D RFO       ACCESS:    3076845  HIT:    3076845  MISS:          0
cpu0_L1D PREFETCH  ACCESS:          0  HIT:          0  MISS:          0
cpu0_L1D WRITEBACK ACCESS:          0  HIT:          0  MISS:          0
cpu0_L2C TOTAL     ACCESS:     561952  HIT:     535715  MISS:      26237
cpu0_L2C LOAD      ACCESS:     424377  HIT:     398169  MISS:      26208
cpu0_L2C RFO       ACCESS:          0  HIT:          0  MISS:          0
cpu0_L2C PREFETCH  ACCESS:          0  HIT:          0  MISS:          0
cpu0_L2C WRITEBACK ACCESS:     137190  HIT:     137190  MISS:          0
LLC TOTAL     ACCESS:      27736  HIT:       1641  MISS:      26095
LLC LOAD      ACCESS:      26208  HIT:        862  MISS:      25346
LLC RFO       ACCESS:          0  HIT:          0  MISS:          0
LLC PREFETCH  ACCESS:          0  HIT:          0  MISS:          0
LLC WRITEBACK ACCESS:       1499  HIT:        769  MISS:        730
Heartbeat CPU 0 instructions: 98000004 cycles: 43510049 heartbeat IPC: 1.49114 cumulative IPC: 1.54915 (Simulation time: 1 hr 6 min 15 sec) 

Region of Interest Statistics
cpu0_DTLB TOTAL     ACCESS:    9912659  HIT:    9898330  MISS:      14329
cpu0_DTLB LOAD      ACCESS:    8520906  HIT:    8506577  MISS:      14329
cpu0_DTLB RFO       ACCESS:    1391753  HIT:    1391753  MISS:          0
cpu0_DTLB PREFETCH  ACCESS:          0  HIT:          0  MISS:          0
cpu0_DTLB WRITEBACK ACCESS:          0  HIT:          0  MISS:          0
cpu0_ITLB TOTAL     ACCESS:    2696745  HIT:    2696745  MISS:          0
cpu0_ITLB LOAD      ACCESS:    2696745  HIT:    2696745  MISS:          0
cpu0_ITLB RFO       ACCESS:          0  HIT:          0  MISS:          0
cpu0_ITLB PREFETCH  ACCESS:          0  HIT:          0  MISS:          0
cpu0_ITLB WRITEBACK ACCESS:          0  HIT:          0  MISS:          0
cpu0_L1I TOTAL     ACCESS:     939020  HIT:     939020  MISS:          0
cpu0_L1I LOAD      ACCESS:     939020  HIT:     939020  MISS:          0
cpu0_L1I RFO       ACCESS:          0  HIT:          0  MISS:          0
cpu0_L1I PREFETCH  ACCESS:          0  HIT:          0  MISS:          0
cpu0_L1I WRITEBACK ACCESS:          0  HIT:          0  MISS:          0
cpu0_STLB TOTAL     ACCESS:      14329  HIT:      13662  MISS:        667
cpu0_STLB LOAD      ACCESS:      14329  HIT:      13662  MISS:        667
cpu0_STLB RFO       ACCESS:          0  HIT:          0  MISS:          0
cpu0_STLB PREFETCH  ACCESS:          0  HIT:          0  MISS:          0
cpu0_STLB WRITEBACK ACCESS:          0  HIT:          0  MISS:          0
cpu0_L1D TOTAL     ACCESS:   12983736  HIT:   12540306  MISS:     443430
cpu0_L1D LOAD      ACCESS:    9772452  HIT:    9329428  MISS:     443024
cpu0_L1D RFO       ACCESS:    3210617  HIT:    3210617  MISS:          0
cpu0_L1D PREFETCH  ACCESS:          0  HIT:          0  MISS:          0
cpu0_L1D WRITEBACK ACCESS:          0  HIT:          0  MISS:          0
cpu0_L2C TOTAL     ACCESS:     586686  HIT:     558935  MISS:      27751
cpu0_L2C LOAD      ACCESS:     443024  HIT:     415302  MISS:      27722
cpu0_L2C RFO       ACCESS:          0  HIT:          0  MISS:          0
cpu0_L2C PREFETCH  ACCESS:          0  HIT:          0  MISS:          0
cpu0_L2C WRITEBACK ACCESS:     143256  HIT:     143256  MISS:          0
LLC TOTAL     ACCESS:      29381  HIT:       1770  MISS:      27611
LLC LOAD      ACCESS:      27722  HIT:        921  MISS:      26801
LLC RFO       ACCESS:          0  HIT:          0  MISS:          0
LLC PREFETCH  ACCESS:          0  HIT:          0  MISS:          0
LLC WRITEBACK ACCESS:       1630  HIT:        839  MISS:        791
Heartbeat CPU 0 instructions: 100000001 cycles: 44819969 heartbeat IPC: 1.52681 cumulative IPC: 1.54825 (Simulation time: 1 hr 7 min 55 sec) 

Region of Interest Statistics
cpu0_DTLB TOTAL     ACCESS:   10325271  HIT:   10310081  MISS:      15190
cpu0_DTLB LOAD      ACCESS:    8875534  HIT:    8860344  MISS:      15190
cpu0_DTLB RFO       ACCESS:    1449737  HIT:    1449737  MISS:          0
cpu0_DTLB PREFETCH  ACCESS:          0  HIT:          0  MISS:          0
cpu0_DTLB WRITEBACK ACCESS:          0  HIT:          0  MISS:          0
cpu0_ITLB TOTAL     ACCESS:    2809188  HIT:    2809188  MISS:          0
cpu0_ITLB LOAD      ACCESS:    2809188  HIT:    2809188  MISS:          0
cpu0_ITLB RFO       ACCESS:          0  HIT:          0  MISS:          0
cpu0_ITLB PREFETCH  ACCESS:          0  HIT:          0  MISS:          0
cpu0_ITLB WRITEBACK ACCESS:          0  HIT:          0  MISS:          0
cpu0_L1I TOTAL     ACCESS:     978731  HIT:     978731  MISS:          0
cpu0_L1I LOAD      ACCESS:     978731  HIT:     978731  MISS:          0
cpu0_L1I RFO       ACCESS:          0  HIT:          0  MISS:          0
cpu0_L1I PREFETCH  ACCESS:          0  HIT:          0  MISS:          0
cpu0_L1I WRITEBACK ACCESS:          0  HIT:          0  MISS:          0
cpu0_STLB TOTAL     ACCESS:      15190  HIT:      14499  MISS:        691
cpu0_STLB LOAD      ACCESS:      15190  HIT:      14499  MISS:        691
cpu0_STLB RFO       ACCESS:          0  HIT:          0  MISS:          0
cpu0_STLB PREFETCH  ACCESS:          0  HIT:          0  MISS:          0
cpu0_STLB WRITEBACK ACCESS:          0  HIT:          0  MISS:          0
cpu0_L1D TOTAL     ACCESS:   13524378  HIT:   13062361  MISS:     462017
cpu0_L1D LOAD      ACCESS:   10179332  HIT:    9717741  MISS:     461591
cpu0_L1D RFO       ACCESS:    3344355  HIT:    3344355  MISS:          0
cpu0_L1D PREFETCH  ACCESS:          0  HIT:          0  MISS:          0
cpu0_L1D WRITEBACK ACCESS:          0  HIT:          0  MISS:          0
cpu0_L2C TOTAL     ACCESS:     611345  HIT:     582249  MISS:      29096
cpu0_L2C LOAD      ACCESS:     461591  HIT:     432524  MISS:      29067
cpu0_L2C RFO       ACCESS:          0  HIT:          0  MISS:          0
cpu0_L2C PREFETCH  ACCESS:          0  HIT:          0  MISS:          0
cpu0_L2C WRITEBACK ACCESS:     149328  HIT:     149328  MISS:          0
LLC TOTAL     ACCESS:      30869  HIT:       1980  MISS:      28889
LLC LOAD      ACCESS:      29067  HIT:       1053  MISS:      28014
LLC RFO       ACCESS:          0  HIT:          0  MISS:          0
LLC PREFETCH  ACCESS:          0  HIT:          0  MISS:          0
LLC WRITEBACK ACCESS:       1773  HIT:        917  MISS:        856
Heartbeat CPU 0 instructions: 102000001 cycles: 46121209 heartbeat IPC: 1.537 cumulative IPC: 1.54781 (Simulation time: 1 hr 9 min 30 sec) 

Region of Interest Statistics
cpu0_DTLB TOTAL     ACCESS:   10737036  HIT:   10720968  MISS:      16068
cpu0_DTLB LOAD      ACCESS:    9229383  HIT:    9213315  MISS:      16068
cpu0_DTLB RFO       ACCESS:    1507653  HIT:    1507653  MISS:          0
cpu0_DTLB PREFETCH  ACCESS:          0  HIT:          0  MISS:          0
cpu0_DTLB WRITEBACK ACCESS:          0  HIT:          0  MISS:          0
cpu0_ITLB TOTAL     ACCESS:    2922521  HIT:    2922521  MISS:          0
cpu0_ITLB LOAD      ACCESS:    2922521  HIT:    2922521  MISS:          0
cpu0_ITLB RFO       ACCESS:          0  HIT:          0  MISS:          0
cpu0_ITLB PREFETCH  ACCESS:          0  HIT:          0  MISS:          0
cpu0_ITLB WRITEBACK ACCESS:          0  HIT:          0  MISS:          0
cpu0_L1I TOTAL     ACCESS:    1018164  HIT:    1018164  MISS:          0
cpu0_L1I LOAD      ACCESS:    1018164  HIT:    1018164  MISS:          0
cpu0_L1I RFO       ACCESS:          0  HIT:          0  MISS:          0
cpu0_L1I PREFETCH  ACCESS:          0  HIT:          0  MISS:          0
cpu0_L1I WRITEBACK ACCESS:          0  HIT:          0  MISS:          0
cpu0_STLB TOTAL     ACCESS:      16068  HIT:      15354  MISS:        714
cpu0_STLB LOAD      ACCESS:      16068  HIT:      15354  MISS:        714
cpu0_STLB RFO       ACCESS:          0  HIT:          0  MISS:          0
cpu0_STLB PREFETCH  ACCESS:          0  HIT:          0  MISS:          0
cpu0_STLB WRITEBACK ACCESS:          0  HIT:          0  MISS:          0
cpu0_L1D TOTAL     ACCESS:   14064231  HIT:   13583548  MISS:     480683
cpu0_L1D LOAD      ACCESS:   10585568  HIT:   10105331  MISS:     480237
cpu0_L1D RFO       ACCESS:    3477949  HIT:    3477949  MISS:          0
cpu0_L1D PREFETCH  ACCESS:          0  HIT:          0  MISS:          0
cpu0_L1D WRITEBACK ACCESS:          0  HIT:          0  MISS:          0
cpu0_L2C TOTAL     ACCESS:     636081  HIT:     605779  MISS:      30302
cpu0_L2C LOAD      ACCESS:     480237  HIT:     449964  MISS:      30273
cpu0_L2C RFO       ACCESS:          0  HIT:          0  MISS:          0
cpu0_L2C PREFETCH  ACCESS:          0  HIT:          0  MISS:          0
cpu0_L2C WRITEBACK ACCESS:     155398  HIT:     155398  MISS:          0
LLC TOTAL     ACCESS:      32169  HIT:       2128  MISS:      30041
LLC LOAD      ACCESS:      30273  HIT:       1142  MISS:      29131
LLC RFO       ACCESS:          0  HIT:          0  MISS:          0
LLC PREFETCH  ACCESS:          0  HIT:          0  MISS:          0
LLC WRITEBACK ACCESS:       1867  HIT:        976  MISS:        891
Heartbeat CPU 0 instructions: 104000000 cycles: 47423646 heartbeat IPC: 1.53558 cumulative IPC: 1.54736 (Simulation time: 1 hr 11 min 5 sec) 

Region of Interest Statistics
cpu0_DTLB TOTAL     ACCESS:   11148718  HIT:   11131867  MISS:      16851
cpu0_DTLB LOAD      ACCESS:    9583164  HIT:    9566313  MISS:      16851
cpu0_DTLB RFO       ACCESS:    1565554  HIT:    1565554  MISS:          0
cpu0_DTLB PREFETCH  ACCESS:          0  HIT:          0  MISS:          0
cpu0_DTLB WRITEBACK ACCESS:          0  HIT:          0  MISS:          0
cpu0_ITLB TOTAL     ACCESS:    3037388  HIT:    3037388  MISS:          0
cpu0_ITLB LOAD      ACCESS:    3037388  HIT:    3037388  MISS:          0
cpu0_ITLB RFO       ACCESS:          0  HIT:          0  MISS:          0
cpu0_ITLB PREFETCH  ACCESS:          0  HIT:          0  MISS:          0
cpu0_ITLB WRITEBACK ACCESS:          0  HIT:          0  MISS:          0
cpu0_L1I TOTAL     ACCESS:    1057024  HIT:    1057024  MISS:          0
cpu0_L1I LOAD      ACCESS:    1057024  HIT:    1057024  MISS:          0
cpu0_L1I RFO       ACCESS:          0  HIT:          0  MISS:          0
cpu0_L1I PREFETCH  ACCESS:          0  HIT:          0  MISS:          0
cpu0_L1I WRITEBACK ACCESS:          0  HIT:          0  MISS:          0
cpu0_STLB TOTAL     ACCESS:      16851  HIT:      16119  MISS:        732
cpu0_STLB LOAD      ACCESS:      16851  HIT:      16119  MISS:        732
cpu0_STLB RFO       ACCESS:          0  HIT:          0  MISS:          0
cpu0_STLB PREFETCH  ACCESS:          0  HIT:          0  MISS:          0
cpu0_STLB WRITEBACK ACCESS:          0  HIT:          0  MISS:          0
cpu0_L1D TOTAL     ACCESS:   14604102  HIT:   14104669  MISS:     499433
cpu0_L1D LOAD      ACCESS:   10991833  HIT:   10492861  MISS:     498972
cpu0_L1D RFO       ACCESS:    3611537  HIT:    3611537  MISS:          0
cpu0_L1D PREFETCH  ACCESS:          0  HIT:          0  MISS:          0
cpu0_L1D WRITEBACK ACCESS:          0  HIT:          0  MISS:          0
cpu0_L2C TOTAL     ACCESS:     660916  HIT:     629400  MISS:      31516
cpu0_L2C LOAD      ACCESS:     498972  HIT:     467485  MISS:      31487
cpu0_L2C RFO       ACCESS:          0  HIT:          0  MISS:          0
cpu0_L2C PREFETCH  ACCESS:          0  HIT:          0  MISS:          0
cpu0_L2C WRITEBACK ACCESS:     161483  HIT:     161483  MISS:          0
LLC TOTAL     ACCESS:      33533  HIT:       2335  MISS:      31198
LLC LOAD      ACCESS:      31487  HIT:       1260  MISS:      30227
LLC RFO       ACCESS:          0  HIT:          0  MISS:          0
LLC PREFETCH  ACCESS:          0  HIT:          0  MISS:          0
LLC WRITEBACK ACCESS:       2017  HIT:       1065  MISS:        952
Heartbeat CPU 0 instructions: 106000000 cycles: 48722697 heartbeat IPC: 1.53959 cumulative IPC: 1.54708 (Simulation time: 1 hr 12 min 43 sec) 

Region of Interest Statistics
cpu0_DTLB TOTAL     ACCESS:   11560312  HIT:   11542596  MISS:      17716
cpu0_DTLB LOAD      ACCESS:    9936622  HIT:    9918907  MISS:      17715
cpu0_DTLB RFO       ACCESS:    1623690  HIT:    1623689  MISS:          1
cpu0_DTLB PREFETCH  ACCESS:          0  HIT:          0  MISS:          0
cpu0_DTLB WRITEBACK ACCESS:          0  HIT:          0  MISS:          0
cpu0_ITLB TOTAL     ACCESS:    3154887  HIT:    3154887  MISS:          0
cpu0_ITLB LOAD      ACCESS:    3154887  HIT:    3154887  MISS:          0
cpu0_ITLB RFO       ACCESS:          0  HIT:          0  MISS:          0
cpu0_ITLB PREFETCH  ACCESS:          0  HIT:          0  MISS:          0
cpu0_ITLB WRITEBACK ACCESS:          0  HIT:          0  MISS:          0
cpu0_L1I TOTAL     ACCESS:    1094788  HIT:    1094788  MISS:          0
cpu0_L1I LOAD      ACCESS:    1094788  HIT:    1094788  MISS:          0
cpu0_L1I RFO       ACCESS:          0  HIT:          0  MISS:          0
cpu0_L1I PREFETCH  ACCESS:          0  HIT:          0  MISS:          0
cpu0_L1I WRITEBACK ACCESS:          0  HIT:          0  MISS:          0
cpu0_STLB TOTAL     ACCESS:      17716  HIT:      16961  MISS:        755
cpu0_STLB LOAD      ACCESS:      17715  HIT:      16960  MISS:        755
cpu0_STLB RFO       ACCESS:          1  HIT:          1  MISS:          0
cpu0_STLB PREFETCH  ACCESS:          0  HIT:          0  MISS:          0
cpu0_STLB WRITEBACK ACCESS:          0  HIT:          0  MISS:          0
cpu0_L1D TOTAL     ACCESS:   15143725  HIT:   14625706  MISS:     518019
cpu0_L1D LOAD      ACCESS:   11397825  HIT:   10880285  MISS:     517540
cpu0_L1D RFO       ACCESS:    3745145  HIT:    3745145  MISS:          0
cpu0_L1D PREFETCH  ACCESS:          0  HIT:          0  MISS:          0
cpu0_L1D WRITEBACK ACCESS:          0  HIT:          0  MISS:          0
cpu0_L2C TOTAL     ACCESS:     685550  HIT:     652861  MISS:      32689
cpu0_L2C LOAD      ACCESS:     517540  HIT:     484880  MISS:      32660
cpu0_L2C RFO       ACCESS:          0  HIT:          0  MISS:          0
cpu0_L2C PREFETCH  ACCESS:          0  HIT:          0  MISS:          0
cpu0_L2C WRITEBACK ACCESS:     167531  HIT:     167531  MISS:          0
[...]

ChampSim completed all CPUs

Region of Interest Statistics

CPU 0 cumulative IPC: 1.5627 instructions: 1500000001 cycles: 959876973
cpu0_DTLB TOTAL     ACCESS:  309632260  HIT:  309098718  MISS:     533542
cpu0_DTLB LOAD      ACCESS:  266155132  HIT:  265622055  MISS:     533077
cpu0_DTLB RFO       ACCESS:   43477128  HIT:   43476663  MISS:        465
cpu0_DTLB PREFETCH  ACCESS:          0  HIT:          0  MISS:          0
cpu0_DTLB WRITEBACK ACCESS:          0  HIT:          0  MISS:          0
cpu0_DTLB TRANSLATION ACCESS:          0  HIT:          0  MISS:          0
cpu0_DTLB PREFETCH  REQUESTED:          0  ISSUED:          0  USEFUL:          0  USELESS:          0
cpu0_DTLB AVERAGE MISS LATENCY: 14.4796 cycles
cpu0_ITLB TOTAL     ACCESS:   84234483  HIT:   84234483  MISS:          0
cpu0_ITLB LOAD      ACCESS:   84234483  HIT:   84234483  MISS:          0
cpu0_ITLB RFO       ACCESS:          0  HIT:          0  MISS:          0
cpu0_ITLB PREFETCH  ACCESS:          0  HIT:          0  MISS:          0
cpu0_ITLB WRITEBACK ACCESS:          0  HIT:          0  MISS:          0
cpu0_ITLB TRANSLATION ACCESS:          0  HIT:          0  MISS:          0
cpu0_ITLB PREFETCH  REQUESTED:          0  ISSUED:          0  USEFUL:          0  USELESS:          0
cpu0_ITLB AVERAGE MISS LATENCY: -nan cycles
cpu0_L1I TOTAL     ACCESS:   29377790  HIT:   29377790  MISS:          0
cpu0_L1I LOAD      ACCESS:   29377790  HIT:   29377790  MISS:          0
cpu0_L1I RFO       ACCESS:          0  HIT:          0  MISS:          0
cpu0_L1I PREFETCH  ACCESS:          0  HIT:          0  MISS:          0
cpu0_L1I WRITEBACK ACCESS:          0  HIT:          0  MISS:          0
cpu0_L1I TRANSLATION ACCESS:          0  HIT:          0  MISS:          0
cpu0_L1I PREFETCH  REQUESTED:          0  ISSUED:          0  USEFUL:          0  USELESS:          0
cpu0_L1I AVERAGE MISS LATENCY: -nan cycles
cpu0_STLB TOTAL     ACCESS:     533542  HIT:     519200  MISS:      14342
cpu0_STLB LOAD      ACCESS:     533077  HIT:     518735  MISS:      14342
cpu0_STLB RFO       ACCESS:        465  HIT:        465  MISS:          0
cpu0_STLB PREFETCH  ACCESS:          0  HIT:          0  MISS:          0
cpu0_STLB WRITEBACK ACCESS:          0  HIT:          0  MISS:          0
cpu0_STLB TRANSLATION ACCESS:          0  HIT:          0  MISS:          0
cpu0_STLB PREFETCH  REQUESTED:          0  ISSUED:          0  USEFUL:          0  USELESS:          0
cpu0_STLB AVERAGE MISS LATENCY: 203.841 cycles
cpu0_L1D TOTAL     ACCESS:  405684239  HIT:  391802425  MISS:   13881814
cpu0_L1D LOAD      ACCESS:  305348176  HIT:  291477627  MISS:   13870549
cpu0_L1D RFO       ACCESS:  100321722  HIT:  100321722  MISS:          0
cpu0_L1D PREFETCH  ACCESS:          0  HIT:          0  MISS:          0
cpu0_L1D WRITEBACK ACCESS:          0  HIT:          0  MISS:          0
cpu0_L1D TRANSLATION ACCESS:      14341  HIT:       3076  MISS:      11265
cpu0_L1D PREFETCH  REQUESTED:          0  ISSUED:          0  USEFUL:          0  USELESS:          0
cpu0_L1D AVERAGE MISS LATENCY: 17.551 cycles
cpu0_L2C TOTAL     ACCESS:   18381179  HIT:   17501168  MISS:     880011
cpu0_L2C LOAD      ACCESS:   13870547  HIT:   12991156  MISS:     879391
cpu0_L2C RFO       ACCESS:          0  HIT:          0  MISS:          0
cpu0_L2C PREFETCH  ACCESS:          0  HIT:          0  MISS:          0
cpu0_L2C WRITEBACK ACCESS:    4499367  HIT:    4499367  MISS:          0
cpu0_L2C TRANSLATION ACCESS:      11265  HIT:      10645  MISS:        620
cpu0_L2C PREFETCH  REQUESTED:          0  ISSUED:          0  USEFUL:          0  USELESS:          0
cpu0_L2C AVERAGE MISS LATENCY: 103.243 cycles
LLC TOTAL     ACCESS:     952816  HIT:     182402  MISS:     770414
LLC LOAD      ACCESS:     879389  HIT:     120826  MISS:     758563
LLC RFO       ACCESS:          0  HIT:          0  MISS:          0
LLC PREFETCH  ACCESS:          0  HIT:          0  MISS:          0
LLC WRITEBACK ACCESS:      72807  HIT:      61198  MISS:      11609
LLC TRANSLATION ACCESS:        620  HIT:        378  MISS:        242
LLC PREFETCH  REQUESTED:          0  ISSUED:          0  USEFUL:          0  USELESS:          0
LLC AVERAGE MISS LATENCY: 93.9427 cycles
~~~~~~~~~~Reuse Distance Profiler output~~~~~~~~~~
0	30038496	8697904
1	8111360	4645536
2	14570320	11222768
3	14032400	11805776
4	19533040	16559504
5	20197920	15923232
6	18198832	16898496
7	14468288	7900448
8	11797168	10949360
9	10475440	9581312
10	4131472	3411008
11	5298864	4168048
12	6478176	5581904
13	4495664	3402496
14	4352032	3256144
15	4409584	2019664
16	6427904	3708656
17	7186816	5600464
18	5834944	3913040
19	6319440	2764416
20	4320960	2166848
21	4095728	2289648
22	7084656	3903120
23	10297184	5345728
24	7126976	5526320
25	4669824	3433216
26	8622176	5541728
27	6929648	5604064
28	9284704	3881072
29	8971264	4612304
30	9760816	8271424
31	10465328	8641136
32	14107744	11920576
33	13751648	13556288
34	9313472	9159888
35	5761888	5642704
36	3489168	3393216
37	1935408	1842048
38	1356384	1249824
39	1238512	1128368
40	1149424	1055072
41	1167424	1070752
42	1153520	1045072
43	1281312	1154032
44	1286656	1129984
45	1567616	1407632
46	1157984	1049296
47	932336	820768
48	903408	741152
49	777984	641344
50	761376	624208
51	834688	680064
52	828688	726272
53	914048	833040
54	997056	942784
55	870288	830784
56	823424	783536
57	902544	858000
58	1172720	1116352
59	1586752	1502432
60	1381728	1315296
61	864704	800432
62	736400	637360
63	704368	598192
64	1270816	1107568
66	1264720	1191472
68	1148944	1130368
70	973616	957520
72	1028320	1005040
74	946848	919760
76	846336	824096
78	676912	656144
80	440864	422976
82	280480	257440
84	282944	235504
86	333728	268432
88	317264	272704
90	312848	278112
92	199632	183488
94	270304	252176
96	206384	184576
98	137776	111312
100	101264	82928
102	73328	64400
104	62288	58000
106	72208	69808
108	83456	80144
110	101952	97616
112	88304	82368
114	76048	67184
116	77504	66544
118	92544	77296
120	93456	74144
122	72944	54672
124	63040	53024
126	58896	50768
128	116592	102816
132	73472	64320
136	67504	63984
140	75920	71120
144	79680	71920
148	75984	63680
152	103152	80912
156	98816	83856
160	86464	78736
164	59472	49760
168	45840	40736
172	65408	61920
176	83408	77728
180	60496	51600
184	67184	50336
188	76624	60784
192	71344	65072
196	59616	52832
200	37344	33792
204	43776	42400
208	55632	53136
212	48304	43264
216	41936	33824
220	45824	36896
224	42976	38176
228	44448	39056
232	35040	31232
236	34080	32400
240	37968	36336
244	37472	34528
248	35040	29264
252	40256	30944
256	79600	70032
264	61088	55600
272	67088	63520
280	57968	47440
288	70368	62672
296	54064	48624
304	54688	52112
312	49488	41344
320	58128	51088
328	51904	46336
336	47360	45072
344	44656	39408
352	53232	45456
360	46128	41520
368	39456	37504
376	42608	37952
384	47728	39808
392	46064	41328
400	36272	34560
408	38048	34864
416	38608	31952
424	41248	37600
432	30496	28832
440	34416	31616
448	34640	28144
456	39648	35808
464	29664	27536
472	34656	32432
480	35520	28720
488	37888	33664
496	28080	26288
504	31360	29792
512	59232	52272
528	52416	49344
544	61024	53072
560	51072	47664
576	51504	45456
592	48912	45664
608	47616	42160
624	45696	42640
640	46576	40928
656	44928	41616
672	41232	37136
688	39984	37344
704	38464	34896
720	40832	37392
736	35392	32176
752	36656	33488
768	33712	30976
784	35904	32304
800	32400	29968
816	36096	32256
832	29728	27808
848	32528	29280
864	30000	28256
880	32480	28592
896	27504	25808
912	31520	27664
928	25744	24576
944	28080	25328
960	25152	23952
976	28256	25840
992	24352	23024
1008	25504	23104
1024	49440	45328
1056	47184	43584
1088	45376	41904
1120	44512	41040
1152	42272	38928
1184	41696	38688
1216	42272	38784
1248	40304	36912
1280	39328	36144
1312	39808	36448
1344	38496	35776
1376	36480	33728
1408	34896	31856
1440	35648	32528
1472	34112	31104
1504	33936	31200
1536	33584	30976
1568	31920	29280
1600	32256	29504
1632	28624	26480
1664	27968	25792
1696	27968	25952
1728	26912	24928
1760	26912	25056
1792	25792	23904
1824	24656	22864
1856	23744	22000
1888	23456	21888
1920	23040	21184
1952	22848	21104
1984	22144	20752
2016	21360	19968
2048	39568	36992
2112	39840	36768
2176	37904	35280
2240	38512	36048
2304	36352	34016
2368	35616	33248
2432	34320	31840
2496	33664	31632
2560	33200	30992
2624	31008	29088
2688	30656	28320
2752	30592	28704
2816	29536	27472
2880	27920	26336
2944	26864	25008
3008	27120	25376
3072	27680	25952
3136	27040	25504
3200	25904	24288
3264	25824	24608
3328	25600	24112
3392	24368	23280
3456	24960	23712
3520	24624	23296
3584	24944	23296
3648	22848	21600
3712	23760	22320
3776	22896	21648
3840	21936	20912
3904	22480	21264
3968	22448	21072
4032	22960	22000
4096	45056	42544
4224	41984	40000
4352	42272	40048
4480	39344	37200
4608	38784	36912
4736	37120	35200
4864	38000	36176
4992	37328	35600
5120	33728	32640
5248	34512	33376
5376	34864	33504
5504	33920	32928
5632	33408	32304
5760	31824	31056
5888	30960	29888
6016	29360	28688
6144	30144	29456
6272	27392	26832
6400	27792	27392
6528	27824	27216
6656	26304	25920
6784	26448	26032
6912	25632	25248
7040	25696	25280
7168	24880	24576
7296	23680	23344
7424	24304	24016
7552	23632	23328
7680	24192	24016
7808	22240	22032
7936	21408	21280
8064	21008	20880
8192	42704	42400
8448	39168	38800
8704	38224	38032
8960	36448	36352
9216	34416	34320
9472	35664	35520
9728	34224	34112
9984	31824	31696
10240	31696	31664
10496	31616	31552
10752	29376	29328
11008	30016	30016
11264	28752	28720
11520	27968	27952
11776	26544	26528
12032	25488	25456
12288	25776	25728
12544	23728	23712
12800	23408	23392
13056	22944	22928
13312	22960	22960
13568	22656	22656
13824	22336	22320
14080	21168	21152
14336	20528	20528
14592	19328	19328
14848	19200	19200
15104	20432	20432
15360	18448	18448
15616	18304	18304
15872	18640	18640
16128	16768	16768
16384	34592	34592
16896	31792	31792
17408	30000	30000
17920	31552	31552
18432	28480	28480
18944	28656	28656
19456	30480	30480
19968	28448	28448
20480	27552	27552
20992	26736	26736
21504	27392	27392
22016	26640	26640
22528	25760	25760
23040	26800	26800
23552	26656	26656
24064	28224	28224
24576	27760	27760
25088	26896	26896
25600	31488	31488
26112	32416	32416
26624	35008	35008
27136	35232	35232
27648	31088	31088
28160	37296	37296
28672	37088	37088
29184	34592	34592
29696	40032	40032
30208	41136	41136
30720	41520	41520
31232	44848	44848
31744	50816	50816
32256	50672	50672
32768	103728	103728
33792	104848	104848
34816	116992	116992
35840	128752	128752
36864	124304	124304
37888	131136	131136
38912	133136	133136
39936	142384	142384
40960	154704	154704
41984	164672	164672
43008	148816	148816
44032	144064	144064
45056	142912	142912
46080	141600	141600
47104	146352	146352
48128	132192	132192
49152	137152	137152
50176	130208	130208
51200	131584	131584
52224	147552	147552
53248	162032	162032
54272	152320	152320
55296	159328	159328
56320	153488	153488
57344	168816	168816
58368	173328	173328
59392	180784	180784
60416	183584	183584
61440	180032	180032
62464	193648	193648
63488	195008	195008
64512	188608	188608
65536	389312	389312
67584	405616	405616
69632	374368	374368
71680	375152	375152
73728	395008	395008
75776	428144	428144
77824	475344	475344
79872	488672	488672
81920	464608	464608
83968	472240	472240
86016	476560	476560
88064	423056	423056
90112	352176	352176
92160	347728	347728
94208	331792	331792
96256	268928	268928
98304	210784	210784
100352	199552	199552
102400	162400	162400
104448	125232	125232
106496	75472	75472
108544	29344	29344
110592	16352	16352
112640	14576	14576
114688	7920	7920
116736	5616	5616
118784	5616	5616
120832	5040	5040
122880	4960	4960
124928	5360	5360
126976	4976	4976
129024	5872	5872
131072	10832	10832
135168	10064	10064
139264	9856	9856
143360	10256	10256
147456	10064	10064
151552	10064	10064
155648	12320	12320
159744	12112	12112
163840	11904	11904
167936	13472	13472
172032	11856	11856
176128	11920	11920
180224	10208	10208
184320	10416	10416
188416	10928	10928
192512	9744	9744
196608	6800	6800
200704	8352	8352
204800	6288	6288
208896	5504	5504
212992	4400	4400
217088	4032	4032
221184	3856	3856
225280	3184	3184
229376	3520	3520
233472	3744	3744
237568	4192	4192
241664	4000	4000
245760	4144	4144
249856	3872	3872
253952	4336	4336
258048	3936	3936
262144	6928	6928
270336	6240	6240
278528	6736	6736
286720	6256	6256
294912	7248	7248
303104	6704	6704
311296	5952	5952
319488	4896	4896
327680	4608	4608
335872	5936	5936
344064	4912	4912
352256	4512	4512
360448	4256	4256
368640	3600	3600
376832	4336	4336
385024	3920	3920
393216	4304	4304
401408	4448	4448
409600	3504	3504
417792	3408	3408
425984	3376	3376
434176	2912	2912
442368	3344	3344
450560	2832	2832
458752	2608	2608
466944	2752	2752
475136	2896	2896
483328	2512	2512
491520	2768	2768
499712	1664	1664
507904	2672	2672
516096	2496	2496
524288	4320	4320
540672	3616	3616
557056	3648	3648
573440	3904	3904
589824	3792	3792
606208	3648	3648
622592	3328	3328
638976	2416	2416
655360	3232	3232
671744	2560	2560
688128	3296	3296
704512	2464	2464
720896	2288	2288
737280	2336	2336
753664	2672	2672
770048	1984	1984
786432	2496	2496
802816	1968	1968
819200	2592	2592
835584	2160	2160
851968	2032	2032
868352	1920	1920
884736	2192	2192
901120	1664	1664
917504	1904	1904
933888	1712	1712
950272	2096	2096
966656	1744	1744
983040	1792	1792
999424	1408	1408
1015808	1040	1040
1032192	1568	1568
1048576	3520	3520
1081344	2448	2448
1114112	2944	2944
1146880	2800	2800
1179648	2144	2144
1212416	2880	2880
1245184	1984	1984
1277952	2448	2448
1310720	2304	2304
1343488	1808	1808
1376256	1904	1904
1409024	1488	1488
1441792	1728	1728
1474560	1776	1776
1507328	2080	2080
1540096	1808	1808
1572864	1792	1792
1605632	1776	1776
1638400	1568	1568
1671168	1280	1280
1703936	1360	1360
1736704	1744	1744
1769472	1648	1648
1802240	1440	1440
1835008	1312	1312
1867776	1328	1328
1900544	1424	1424
1933312	1072	1072
1966080	1136	1136
1998848	1056	1056
2031616	1008	1008
2064384	1072	1072
2097152	1792	1792
2162688	2000	2000
2228224	1936	1936
2293760	1568	1568
2359296	1808	1808
2424832	2000	2000
2490368	1424	1424
2555904	1552	1552
2621440	1760	1760
2686976	1440	1440
2752512	1600	1600
2818048	1568	1568
2883584	1648	1648
2949120	1168	1168
3014656	1184	1184
3080192	1200	1200
3145728	1360	1360
3211264	1264	1264
3276800	848	848
3342336	1056	1056
3407872	848	848
3473408	672	672
3538944	976	976
3604480	720	720
3670016	544	544
3735552	848	848
3801088	528	528
3866624	496	496
3932160	656	656
3997696	592	592
4063232	464	464
4128768	576	576
4194304	1024	1024
4325376	1072	1072
4456448	912	912
4587520	960	960
4718592	672	672
4849664	704	704
4980736	928	928
5111808	784	784
5242880	640	640
5373952	624	624
5505024	592	592
5636096	416	416
5767168	576	576
5898240	448	448
6029312	512	512
6160384	560	560
6291456	528	528
6422528	432	432
6553600	512	512
6684672	400	400
6815744	688	688
6946816	528	528
7077888	624	624
7208960	352	352
7340032	416	416
7471104	352	352
7602176	400	400
7733248	160	160
7864320	320	320
7995392	256	256
8126464	224	224
8257536	240	240
8388608	448	448
8650752	640	640
8912896	784	784
9175040	624	624
9437184	496	496
9699328	592	592
9961472	464	464
10223616	656	656
10485760	736	736
10747904	496	496
11010048	416	416
11272192	528	528
11534336	464	464
11796480	560	560
12058624	464	464
12320768	432	432
12582912	464	464
12845056	208	208
13107200	464	464
13369344	512	512
13631488	272	272
13893632	384	384
14155776	272	272
14417920	288	288
14680064	304	304
14942208	320	320
15204352	272	272
15466496	416	416
15728640	336	336
15990784	320	320
16252928	272	272
16515072	208	208
16777216	528	528
17301504	640	640
17825792	816	816
18350080	688	688
18874368	816	816
19398656	848	848
19922944	672	672
20447232	304	304
20971520	512	512
21495808	512	512
22020096	432	432
22544384	528	528
23068672	608	608
23592960	432	432
24117248	464	464
24641536	512	512
25165824	400	400
25690112	480	480
26214400	272	272
26738688	352	352
27262976	352	352
27787264	272	272
28311552	208	208
28835840	256	256
29360128	336	336
29884416	224	224
30408704	80	80
30932992	144	144
31457280	304	304
31981568	144	144
32505856	160	160
33030144	176	176
33554432	288	288
34603008	288	288
35651584	368	368
36700160	240	240
37748736	240	240
38797312	480	480
39845888	464	464
40894464	480	480
41943040	496	496
42991616	240	240
44040192	320	320
45088768	256	256
46137344	256	256
47185920	304	304
48234496	128	128
49283072	112	112
50331648	240	240
51380224	224	224
52428800	208	208
53477376	128	128
54525952	32	32
55574528	272	272
56623104	176	176
57671680	160	160
58720256	80	80
59768832	192	192
60817408	224	224
61865984	160	160
62914560	240	240
63963136	304	304
65011712	208	208
66060288	176	176
67108864	192	192
69206016	448	448
71303168	256	256
73400320	304	304
75497472	304	304
77594624	496	496
79691776	416	416
81788928	240	240
83886080	144	144
85983232	48	48
88080384	48	48
90177536	96	96
92274688	144	144
94371840	48	48
96468992	64	64
98566144	112	112
100663296	16	16
102760448	80	80
104857600	32	32
106954752	48	48
109051904	16	16
111149056	64	64
113246208	96	96
115343360	32	32
117440512	32	32
119537664	0	0
121634816	0	0
123731968	0	0
125829120	16	16
127926272	0	0
130023424	0	0
132120576	0	0
134217728	144	144
138412032	288	288
142606336	352	352
146800640	336	336
150994944	48	48
155189248	48	48
159383552	80	80
163577856	0	0
167772160	96	96
171966464	208	208
176160768	288	288
180355072	0	0
184549376	96	96
188743680	160	160
192937984	80	80
197132288	96	96
201326592	128	128
205520896	16	16
209715200	80	80
213909504	128	128
218103808	80	80
222298112	176	176
226492416	96	96
230686720	32	32
234881024	32	32
239075328	16	16
243269632	0	0
247463936	16	16
251658240	144	144
255852544	80	80
260046848	144	144
264241152	80	80
268435456	80	80
276824064	128	128
285212672	96	96
293601280	176	176
301989888	16	16
310378496	272	272
318767104	80	80
327155712	0	0
335544320	0	0
343932928	0	0
352321536	0	0
360710144	0	0
369098752	0	0
377487360	0	0
385875968	0	0
394264576	0	0
402653184	0	0
411041792	0	0
419430400	0	0
427819008	0	0
436207616	0	0
444596224	0	0
452984832	0	0
461373440	0	0
469762048	0	0
478150656	0	0
486539264	0	0
494927872	0	0
503316480	0	0
511705088	0	0
520093696	0	0
528482304	0	0
536870912	0	0
553648128	0	0
570425344	0	0
587202560	0	0
603979776	0	0
620756992	0	0
637534208	0	0
654311424	0	0
671088640	0	0
687865856	0	0
704643072	0	0
721420288	0	0
738197504	0	0
754974720	0	0
771751936	0	0
788529152	0	0
805306368	0	0
822083584	0	0
838860800	0	0
855638016	0	0
872415232	0	0
889192448	0	0
905969664	0	0
922746880	0	0
939524096	0	0
956301312	0	0
973078528	0	0
989855744	0	0
1006632960	0	0
1023410176	0	0
1040187392	0	0
1056964608	0	0
1073741824	0	0
1107296256	0	0
1140850688	0	0
1174405120	0	0
1207959552	0	0
1241513984	0	0
1275068416	0	0
1308622848	0	0
1342177280	0	0
1375731712	0	0
1409286144	0	0
1442840576	0	0
1476395008	0	0
1509949440	0	0
1543503872	0	0
1577058304	0	0
1610612736	0	0
1644167168	0	0
1677721600	0	0
1711276032	0	0
1744830464	0	0
1778384896	0	0
1811939328	0	0
1845493760	0	0
1879048192	0	0
1912602624	0	0
1946157056	0	0
1979711488	0	0
2013265920	0	0
2046820352	0	0
2080374784	0	0
2113929216	0	0
2147483648	0	0
2214592512	0	0
2281701376	0	0
2348810240	0	0
2415919104	0	0
2483027968	0	0
2550136832	0	0
2617245696	0	0
2684354560	0	0
2751463424	0	0
2818572288	0	0
2885681152	0	0
2952790016	0	0
3019898880	0	0
3087007744	0	0
3154116608	0	0
3221225472	0	0
3288334336	0	0
3355443200	0	0
3422552064	0	0
3489660928	0	0
3556769792	0	0
3623878656	0	0
3690987520	0	0
3758096384	0	0
3825205248	0	0
3892314112	0	0
3959422976	0	0
4026531840	0	0
4093640704	0	0
4160749568	0	0
4227858432	0	0
~~~~~~~~~~Reuse Distance Profiler output end~~~~~~~~~~

Sampler size:45838

DRAM Statistics
 CHANNEL 0
 RQ ROW_BUFFER_HIT:     511338  ROW_BUFFER_MISS:     247467
 DBUS AVG_CONGESTED_CYCLE:    3.48639
 WQ ROW_BUFFER_HIT:        497  ROW_BUFFER_MISS:      20748  FULL:          0


CPU 0 Branch Prediction Accuracy: 98.2486% MPKI: 1.67344 Average ROB Occupancy at Mispredict: 202.692
Branch type MPKI
BRANCH_DIRECT_JUMP: 1.33333e-06
BRANCH_INDIRECT: 0
BRANCH_CONDITIONAL: 1.67344
BRANCH_DIRECT_CALL: 0
BRANCH_INDIRECT_CALL: 0
BRANCH_RETURN: 0

