
*** ChampSim Multicore Out-of-Order Simulator ***

Warmup Instructions: 50000000
Simulation Instructions: 1500000000
Number of CPUs: 1
Off-chip DRAM Size: 4 GiB Channels: 1 Width: 64-bit Data Rate: 3200 MT/s

VirtualMemory physical capacity: 8588881920 num_ppages: 2096895
VirtualMemory page size: 4096 log2_page_size: 12

CPU 0 runs /s/traces/champsim_traces/649.fotonik3d_s-7084B.champsimtrace.xz
CPU 0 Bimodal branch predictor
Basic BTB sets: 1024 ways: 8 indirect buffer size: 4096 RAS size: 64
Initializing LRU.
Initializing LRU.
Initializing LRU.
Initializing LRU.
Initializing rdLRU.
Initializing LRU.
Heartbeat CPU 0 instructions: 2000000 cycles: 651456 heartbeat IPC: 3.07005 cumulative IPC: 3.07005 (Simulation time: 0 hr 1 min 34 sec) 
Heartbeat CPU 0 instructions: 4000003 cycles: 1302777 heartbeat IPC: 3.07069 cumulative IPC: 3.07037 (Simulation time: 0 hr 3 min 0 sec) 
Heartbeat CPU 0 instructions: 6000004 cycles: 1954100 heartbeat IPC: 3.07067 cumulative IPC: 3.07047 (Simulation time: 0 hr 4 min 25 sec) 
Heartbeat CPU 0 instructions: 8000000 cycles: 2605434 heartbeat IPC: 3.07062 cumulative IPC: 3.07051 (Simulation time: 0 hr 5 min 53 sec) 
Heartbeat CPU 0 instructions: 10000004 cycles: 3256752 heartbeat IPC: 3.0707 cumulative IPC: 3.07055 (Simulation time: 0 hr 7 min 29 sec) 
Heartbeat CPU 0 instructions: 12000001 cycles: 3908071 heartbeat IPC: 3.07069 cumulative IPC: 3.07057 (Simulation time: 0 hr 9 min 6 sec) 
Heartbeat CPU 0 instructions: 14000000 cycles: 4559391 heartbeat IPC: 3.07069 cumulative IPC: 3.07059 (Simulation time: 0 hr 10 min 41 sec) 
Heartbeat CPU 0 instructions: 16000000 cycles: 5210736 heartbeat IPC: 3.07057 cumulative IPC: 3.07058 (Simulation time: 0 hr 12 min 11 sec) 
Heartbeat CPU 0 instructions: 18000003 cycles: 5862059 heartbeat IPC: 3.07068 cumulative IPC: 3.07059 (Simulation time: 0 hr 13 min 48 sec) 
Heartbeat CPU 0 instructions: 20000003 cycles: 6513377 heartbeat IPC: 3.0707 cumulative IPC: 3.0706 (Simulation time: 0 hr 15 min 16 sec) 
Heartbeat CPU 0 instructions: 22000003 cycles: 7164698 heartbeat IPC: 3.07068 cumulative IPC: 3.07061 (Simulation time: 0 hr 16 min 48 sec) 
Heartbeat CPU 0 instructions: 24000000 cycles: 7816041 heartbeat IPC: 3.07057 cumulative IPC: 3.07061 (Simulation time: 0 hr 18 min 23 sec) 
Heartbeat CPU 0 instructions: 26000004 cycles: 8467356 heartbeat IPC: 3.07072 cumulative IPC: 3.07062 (Simulation time: 0 hr 19 min 55 sec) 
Heartbeat CPU 0 instructions: 28000002 cycles: 9118673 heartbeat IPC: 3.0707 cumulative IPC: 3.07062 (Simulation time: 0 hr 21 min 28 sec) 
Heartbeat CPU 0 instructions: 30000001 cycles: 9769996 heartbeat IPC: 3.07067 cumulative IPC: 3.07063 (Simulation time: 0 hr 23 min 3 sec) 
Heartbeat CPU 0 instructions: 32000001 cycles: 10421336 heartbeat IPC: 3.07059 cumulative IPC: 3.07062 (Simulation time: 0 hr 24 min 35 sec) 
Heartbeat CPU 0 instructions: 34000004 cycles: 11072655 heartbeat IPC: 3.0707 cumulative IPC: 3.07063 (Simulation time: 0 hr 26 min 10 sec) 
Heartbeat CPU 0 instructions: 36000001 cycles: 11723982 heartbeat IPC: 3.07065 cumulative IPC: 3.07063 (Simulation time: 0 hr 27 min 42 sec) 
Heartbeat CPU 0 instructions: 38000003 cycles: 12375308 heartbeat IPC: 3.07066 cumulative IPC: 3.07063 (Simulation time: 0 hr 29 min 14 sec) 
Heartbeat CPU 0 instructions: 40000000 cycles: 13026639 heartbeat IPC: 3.07063 cumulative IPC: 3.07063 (Simulation time: 0 hr 30 min 45 sec) 
Heartbeat CPU 0 instructions: 42000003 cycles: 13677964 heartbeat IPC: 3.07067 cumulative IPC: 3.07063 (Simulation time: 0 hr 32 min 17 sec) 
Heartbeat CPU 0 instructions: 44000003 cycles: 14329287 heartbeat IPC: 3.07067 cumulative IPC: 3.07063 (Simulation time: 0 hr 33 min 48 sec) 
Heartbeat CPU 0 instructions: 46000001 cycles: 14980624 heartbeat IPC: 3.0706 cumulative IPC: 3.07063 (Simulation time: 0 hr 35 min 19 sec) 
Heartbeat CPU 0 instructions: 48000002 cycles: 15631940 heartbeat IPC: 3.07071 cumulative IPC: 3.07064 (Simulation time: 0 hr 36 min 46 sec) 
Heartbeat CPU 0 instructions: 50000003 cycles: 16283259 heartbeat IPC: 3.07069 cumulative IPC: 3.07064 (Simulation time: 0 hr 38 min 13 sec) 

Warmup complete CPU 0 instructions: 50000003 cycles: 16283259 (Simulation time: 0 hr 38 min 13 sec) 

Heartbeat CPU 0 instructions: 52000002 cycles: 19344775 heartbeat IPC: 0.653271 cumulative IPC: 0.653271 (Simulation time: 0 hr 42 min 7 sec) 

Region of Interest Statistics
cpu0_DTLB TOTAL     ACCESS:     512995  HIT:     509922  MISS:       3073
cpu0_DTLB LOAD      ACCESS:     452648  HIT:     449673  MISS:       2975
cpu0_DTLB RFO       ACCESS:      60347  HIT:      60249  MISS:         98
cpu0_DTLB PREFETCH  ACCESS:          0  HIT:          0  MISS:          0
cpu0_DTLB WRITEBACK ACCESS:          0  HIT:          0  MISS:          0
cpu0_ITLB TOTAL     ACCESS:       6020  HIT:       6020  MISS:          0
cpu0_ITLB LOAD      ACCESS:       6020  HIT:       6020  MISS:          0
cpu0_ITLB RFO       ACCESS:          0  HIT:          0  MISS:          0
cpu0_ITLB PREFETCH  ACCESS:          0  HIT:          0  MISS:          0
cpu0_ITLB WRITEBACK ACCESS:          0  HIT:          0  MISS:          0
cpu0_STLB TOTAL     ACCESS:       3073  HIT:       2520  MISS:        553
cpu0_STLB LOAD      ACCESS:       2975  HIT:       2422  MISS:        553
cpu0_STLB RFO       ACCESS:         98  HIT:         98  MISS:          0
cpu0_STLB PREFETCH  ACCESS:          0  HIT:          0  MISS:          0
cpu0_STLB WRITEBACK ACCESS:          0  HIT:          0  MISS:          0
cpu0_L1D TOTAL     ACCESS:     506483  HIT:     473518  MISS:      32965
cpu0_L1D LOAD      ACCESS:     407554  HIT:     374747  MISS:      32807
cpu0_L1D RFO       ACCESS:      98377  HIT:      98377  MISS:          0
cpu0_L1D PREFETCH  ACCESS:          0  HIT:          0  MISS:          0
cpu0_L1D WRITEBACK ACCESS:          0  HIT:          0  MISS:          0
cpu0_L2C TOTAL     ACCESS:      43351  HIT:      10543  MISS:      32808
cpu0_L2C LOAD      ACCESS:      32807  HIT:          0  MISS:      32807
cpu0_L2C RFO       ACCESS:          0  HIT:          0  MISS:          0
cpu0_L2C PREFETCH  ACCESS:          0  HIT:          0  MISS:          0
cpu0_L2C WRITEBACK ACCESS:      10386  HIT:      10386  MISS:          0
LLC TOTAL     ACCESS:      43476  HIT:       7381  MISS:      36095
LLC LOAD      ACCESS:      32807  HIT:          0  MISS:      32807
LLC RFO       ACCESS:          0  HIT:          0  MISS:          0
LLC PREFETCH  ACCESS:          0  HIT:          0  MISS:          0
LLC WRITEBACK ACCESS:      10668  HIT:       7381  MISS:       3287
Heartbeat CPU 0 instructions: 54000002 cycles: 22348329 heartbeat IPC: 0.665878 cumulative IPC: 0.659514 (Simulation time: 0 hr 46 min 2 sec) 

Region of Interest Statistics
cpu0_DTLB TOTAL     ACCESS:    1025141  HIT:    1015462  MISS:       9679
cpu0_DTLB LOAD      ACCESS:     904067  HIT:     894945  MISS:       9122
cpu0_DTLB RFO       ACCESS:     121074  HIT:     120517  MISS:        557
cpu0_DTLB PREFETCH  ACCESS:          0  HIT:          0  MISS:          0
cpu0_DTLB WRITEBACK ACCESS:          0  HIT:          0  MISS:          0
cpu0_ITLB TOTAL     ACCESS:      12071  HIT:      12071  MISS:          0
cpu0_ITLB LOAD      ACCESS:      12071  HIT:      12071  MISS:          0
cpu0_ITLB RFO       ACCESS:          0  HIT:          0  MISS:          0
cpu0_ITLB PREFETCH  ACCESS:          0  HIT:          0  MISS:          0
cpu0_ITLB WRITEBACK ACCESS:          0  HIT:          0  MISS:          0
cpu0_STLB TOTAL     ACCESS:       9679  HIT:       8583  MISS:       1096
cpu0_STLB LOAD      ACCESS:       9122  HIT:       8026  MISS:       1096
cpu0_STLB RFO       ACCESS:        557  HIT:        557  MISS:          0
cpu0_STLB PREFETCH  ACCESS:          0  HIT:          0  MISS:          0
cpu0_STLB WRITEBACK ACCESS:          0  HIT:          0  MISS:          0
cpu0_L1D TOTAL     ACCESS:    1013802  HIT:     947951  MISS:      65851
cpu0_L1D LOAD      ACCESS:     815966  HIT:     750419  MISS:      65547
cpu0_L1D RFO       ACCESS:     196741  HIT:     196741  MISS:          0
cpu0_L1D PREFETCH  ACCESS:          0  HIT:          0  MISS:          0
cpu0_L1D WRITEBACK ACCESS:          0  HIT:          0  MISS:          0
cpu0_L2C TOTAL     ACCESS:      86623  HIT:      21074  MISS:      65549
cpu0_L2C LOAD      ACCESS:      65547  HIT:          0  MISS:      65547
cpu0_L2C RFO       ACCESS:          0  HIT:          0  MISS:          0
cpu0_L2C PREFETCH  ACCESS:          0  HIT:          0  MISS:          0
cpu0_L2C WRITEBACK ACCESS:      20772  HIT:      20772  MISS:          0
LLC TOTAL     ACCESS:      86493  HIT:      14776  MISS:      71717
LLC LOAD      ACCESS:      65547  HIT:          0  MISS:      65547
LLC RFO       ACCESS:          0  HIT:          0  MISS:          0
LLC PREFETCH  ACCESS:          0  HIT:          0  MISS:          0
LLC WRITEBACK ACCESS:      20944  HIT:      14776  MISS:       6168
Heartbeat CPU 0 instructions: 56000000 cycles: 25393796 heartbeat IPC: 0.656713 cumulative IPC: 0.658578 (Simulation time: 0 hr 49 min 56 sec) 

Region of Interest Statistics
cpu0_DTLB TOTAL     ACCESS:    1535887  HIT:    1515331  MISS:      20556
cpu0_DTLB LOAD      ACCESS:    1354626  HIT:    1335298  MISS:      19328
cpu0_DTLB RFO       ACCESS:     181261  HIT:     180033  MISS:       1228
cpu0_DTLB PREFETCH  ACCESS:          0  HIT:          0  MISS:          0
cpu0_DTLB WRITEBACK ACCESS:          0  HIT:          0  MISS:          0
cpu0_ITLB TOTAL     ACCESS:      18082  HIT:      18082  MISS:          0
cpu0_ITLB LOAD      ACCESS:      18082  HIT:      18082  MISS:          0
cpu0_ITLB RFO       ACCESS:          0  HIT:          0  MISS:          0
cpu0_ITLB PREFETCH  ACCESS:          0  HIT:          0  MISS:          0
cpu0_ITLB WRITEBACK ACCESS:          0  HIT:          0  MISS:          0
cpu0_STLB TOTAL     ACCESS:      20556  HIT:      18915  MISS:       1641
cpu0_STLB LOAD      ACCESS:      19328  HIT:      17687  MISS:       1641
cpu0_STLB RFO       ACCESS:       1228  HIT:       1228  MISS:          0
cpu0_STLB PREFETCH  ACCESS:          0  HIT:          0  MISS:          0
cpu0_STLB WRITEBACK ACCESS:          0  HIT:          0  MISS:          0
cpu0_L1D TOTAL     ACCESS:    1521337  HIT:    1422574  MISS:      98763
cpu0_L1D LOAD      ACCESS:    1224627  HIT:    1126328  MISS:      98299
cpu0_L1D RFO       ACCESS:     295070  HIT:     295070  MISS:          0
cpu0_L1D PREFETCH  ACCESS:          0  HIT:          0  MISS:          0
cpu0_L1D WRITEBACK ACCESS:          0  HIT:          0  MISS:          0
cpu0_L2C TOTAL     ACCESS:     129919  HIT:      31625  MISS:      98294
cpu0_L2C LOAD      ACCESS:      98299  HIT:          9  MISS:      98290
cpu0_L2C RFO       ACCESS:          0  HIT:          0  MISS:          0
cpu0_L2C PREFETCH  ACCESS:          0  HIT:          0  MISS:          0
cpu0_L2C WRITEBACK ACCESS:      31156  HIT:      31155  MISS:          1
LLC TOTAL     ACCESS:     129643  HIT:      22372  MISS:     107271
LLC LOAD      ACCESS:      98290  HIT:          2  MISS:      98288
LLC RFO       ACCESS:          0  HIT:          0  MISS:          0
LLC PREFETCH  ACCESS:          0  HIT:          0  MISS:          0
LLC WRITEBACK ACCESS:      31350  HIT:      22370  MISS:       8980
Heartbeat CPU 0 instructions: 58000003 cycles: 28471498 heartbeat IPC: 0.649836 cumulative IPC: 0.65637 (Simulation time: 0 hr 53 min 53 sec) 

Region of Interest Statistics
cpu0_DTLB TOTAL     ACCESS:    2047043  HIT:    2016535  MISS:      30508
cpu0_DTLB LOAD      ACCESS:    1805230  HIT:    1776787  MISS:      28443
cpu0_DTLB RFO       ACCESS:     241813  HIT:     239748  MISS:       2065
cpu0_DTLB PREFETCH  ACCESS:          0  HIT:          0  MISS:          0
cpu0_DTLB WRITEBACK ACCESS:          0  HIT:          0  MISS:          0
cpu0_ITLB TOTAL     ACCESS:      24089  HIT:      24089  MISS:          0
cpu0_ITLB LOAD      ACCESS:      24089  HIT:      24089  MISS:          0
cpu0_ITLB RFO       ACCESS:          0  HIT:          0  MISS:          0
cpu0_ITLB PREFETCH  ACCESS:          0  HIT:          0  MISS:          0
cpu0_ITLB WRITEBACK ACCESS:          0  HIT:          0  MISS:          0
cpu0_STLB TOTAL     ACCESS:      30508  HIT:      28321  MISS:       2187
cpu0_STLB LOAD      ACCESS:      28443  HIT:      26256  MISS:       2187
cpu0_STLB RFO       ACCESS:       2065  HIT:       2065  MISS:          0
cpu0_STLB PREFETCH  ACCESS:          0  HIT:          0  MISS:          0
cpu0_STLB WRITEBACK ACCESS:          0  HIT:          0  MISS:          0
cpu0_L1D TOTAL     ACCESS:    2031783  HIT:    1900118  MISS:     131665
cpu0_L1D LOAD      ACCESS:    1636197  HIT:    1505149  MISS:     131048
cpu0_L1D RFO       ACCESS:     393400  HIT:     393400  MISS:          0
cpu0_L1D PREFETCH  ACCESS:          0  HIT:          0  MISS:          0
cpu0_L1D WRITEBACK ACCESS:          0  HIT:          0  MISS:          0
cpu0_L2C TOTAL     ACCESS:     173222  HIT:      42188  MISS:     131034
cpu0_L2C LOAD      ACCESS:     131048  HIT:         19  MISS:     131029
cpu0_L2C RFO       ACCESS:          0  HIT:          0  MISS:          0
cpu0_L2C PREFETCH  ACCESS:          0  HIT:          0  MISS:          0
cpu0_L2C WRITEBACK ACCESS:      41557  HIT:      41556  MISS:          1
LLC TOTAL     ACCESS:     172880  HIT:      29988  MISS:     142892
LLC LOAD      ACCESS:     131029  HIT:          3  MISS:     131026
LLC RFO       ACCESS:          0  HIT:          0  MISS:          0
LLC PREFETCH  ACCESS:          0  HIT:          0  MISS:          0
LLC WRITEBACK ACCESS:      41847  HIT:      29985  MISS:      11862
Heartbeat CPU 0 instructions: 60000001 cycles: 31497834 heartbeat IPC: 0.660864 cumulative IPC: 0.657264 (Simulation time: 0 hr 57 min 44 sec) 

Region of Interest Statistics
cpu0_DTLB TOTAL     ACCESS:    2558665  HIT:    2523202  MISS:      35463
cpu0_DTLB LOAD      ACCESS:    2255935  HIT:    2222936  MISS:      32999
cpu0_DTLB RFO       ACCESS:     302730  HIT:     300266  MISS:       2464
cpu0_DTLB PREFETCH  ACCESS:          0  HIT:          0  MISS:          0
cpu0_DTLB WRITEBACK ACCESS:          0  HIT:          0  MISS:          0
cpu0_ITLB TOTAL     ACCESS:      30101  HIT:      30101  MISS:          0
cpu0_ITLB LOAD      ACCESS:      30101  HIT:      30101  MISS:          0
cpu0_ITLB RFO       ACCESS:          0  HIT:          0  MISS:          0
cpu0_ITLB PREFETCH  ACCESS:          0  HIT:          0  MISS:          0
cpu0_ITLB WRITEBACK ACCESS:          0  HIT:          0  MISS:          0
cpu0_STLB TOTAL     ACCESS:      35463  HIT:      32732  MISS:       2731
cpu0_STLB LOAD      ACCESS:      32999  HIT:      30268  MISS:       2731
cpu0_STLB RFO       ACCESS:       2464  HIT:       2464  MISS:          0
cpu0_STLB PREFETCH  ACCESS:          0  HIT:          0  MISS:          0
cpu0_STLB WRITEBACK ACCESS:          0  HIT:          0  MISS:          0
cpu0_L1D TOTAL     ACCESS:    2543035  HIT:    2378464  MISS:     164571
cpu0_L1D LOAD      ACCESS:    2048576  HIT:    1884790  MISS:     163786
cpu0_L1D RFO       ACCESS:     491729  HIT:     491729  MISS:          0
cpu0_L1D PREFETCH  ACCESS:          0  HIT:          0  MISS:          0
cpu0_L1D WRITEBACK ACCESS:          0  HIT:          0  MISS:          0
cpu0_L2C TOTAL     ACCESS:     216498  HIT:      52725  MISS:     163773
cpu0_L2C LOAD      ACCESS:     163786  HIT:         19  MISS:     163767
cpu0_L2C RFO       ACCESS:          0  HIT:          0  MISS:          0
cpu0_L2C PREFETCH  ACCESS:          0  HIT:          0  MISS:          0
cpu0_L2C WRITEBACK ACCESS:      51927  HIT:      51926  MISS:          1
LLC TOTAL     ACCESS:     216038  HIT:      37431  MISS:     178607
LLC LOAD      ACCESS:     163767  HIT:          3  MISS:     163764
LLC RFO       ACCESS:          0  HIT:          0  MISS:          0
LLC PREFETCH  ACCESS:          0  HIT:          0  MISS:          0
LLC WRITEBACK ACCESS:      52266  HIT:      37428  MISS:      14838
Heartbeat CPU 0 instructions: 62000002 cycles: 34552232 heartbeat IPC: 0.654794 cumulative IPC: 0.656851 (Simulation time: 1 hr 1 min 37 sec) 

Region of Interest Statistics
cpu0_DTLB TOTAL     ACCESS:    3071131  HIT:    3034785  MISS:      36346
cpu0_DTLB LOAD      ACCESS:    2707366  HIT:    2673509  MISS:      33857
cpu0_DTLB RFO       ACCESS:     363765  HIT:     361276  MISS:       2489
cpu0_DTLB PREFETCH  ACCESS:          0  HIT:          0  MISS:          0
cpu0_DTLB WRITEBACK ACCESS:          0  HIT:          0  MISS:          0
cpu0_ITLB TOTAL     ACCESS:      36173  HIT:      36173  MISS:          0
cpu0_ITLB LOAD      ACCESS:      36173  HIT:      36173  MISS:          0
cpu0_ITLB RFO       ACCESS:          0  HIT:          0  MISS:          0
cpu0_ITLB PREFETCH  ACCESS:          0  HIT:          0  MISS:          0
cpu0_ITLB WRITEBACK ACCESS:          0  HIT:          0  MISS:          0
cpu0_STLB TOTAL     ACCESS:      36346  HIT:      33069  MISS:       3277
cpu0_STLB LOAD      ACCESS:      33857  HIT:      30580  MISS:       3277
cpu0_STLB RFO       ACCESS:       2489  HIT:       2489  MISS:          0
cpu0_STLB PREFETCH  ACCESS:          0  HIT:          0  MISS:          0
cpu0_STLB WRITEBACK ACCESS:          0  HIT:          0  MISS:          0
cpu0_L1D TOTAL     ACCESS:    3054781  HIT:    2857322  MISS:     197459
cpu0_L1D LOAD      ACCESS:    2461412  HIT:    2264885  MISS:     196527
cpu0_L1D RFO       ACCESS:     590093  HIT:     590093  MISS:          0
cpu0_L1D PREFETCH  ACCESS:          0  HIT:          0  MISS:          0
cpu0_L1D WRITEBACK ACCESS:          0  HIT:          0  MISS:          0
cpu0_L2C TOTAL     ACCESS:     259782  HIT:      63267  MISS:     196515
cpu0_L2C LOAD      ACCESS:     196527  HIT:         19  MISS:     196508
cpu0_L2C RFO       ACCESS:          0  HIT:          0  MISS:          0
cpu0_L2C PREFETCH  ACCESS:          0  HIT:          0  MISS:          0
cpu0_L2C WRITEBACK ACCESS:      62323  HIT:      62322  MISS:          1
LLC TOTAL     ACCESS:     259137  HIT:      44655  MISS:     214482
LLC LOAD      ACCESS:     196508  HIT:          3  MISS:     196505
LLC RFO       ACCESS:          0  HIT:          0  MISS:          0
LLC PREFETCH  ACCESS:          0  HIT:          0  MISS:          0
LLC WRITEBACK ACCESS:      62623  HIT:      44652  MISS:      17971
Heartbeat CPU 0 instructions: 64000004 cycles: 37569605 heartbeat IPC: 0.662829 cumulative IPC: 0.657699 (Simulation time: 1 hr 5 min 29 sec) 

Region of Interest Statistics
cpu0_DTLB TOTAL     ACCESS:    3583525  HIT:    3546466  MISS:      37059
cpu0_DTLB LOAD      ACCESS:    3158722  HIT:    3124174  MISS:      34548
cpu0_DTLB RFO       ACCESS:     424803  HIT:     422292  MISS:       2511
cpu0_DTLB PREFETCH  ACCESS:          0  HIT:          0  MISS:          0
cpu0_DTLB WRITEBACK ACCESS:          0  HIT:          0  MISS:          0
cpu0_ITLB TOTAL     ACCESS:      42174  HIT:      42174  MISS:          0
cpu0_ITLB LOAD      ACCESS:      42174  HIT:      42174  MISS:          0
cpu0_ITLB RFO       ACCESS:          0  HIT:          0  MISS:          0
cpu0_ITLB PREFETCH  ACCESS:          0  HIT:          0  MISS:          0
cpu0_ITLB WRITEBACK ACCESS:          0  HIT:          0  MISS:          0
cpu0_STLB TOTAL     ACCESS:      37059  HIT:      33236  MISS:       3823
cpu0_STLB LOAD      ACCESS:      34548  HIT:      30725  MISS:       3823
cpu0_STLB RFO       ACCESS:       2511  HIT:       2511  MISS:          0
cpu0_STLB PREFETCH  ACCESS:          0  HIT:          0  MISS:          0
cpu0_STLB WRITEBACK ACCESS:          0  HIT:          0  MISS:          0
cpu0_L1D TOTAL     ACCESS:    3566183  HIT:    3335822  MISS:     230361
cpu0_L1D LOAD      ACCESS:    2873938  HIT:    2644669  MISS:     229269
cpu0_L1D RFO       ACCESS:     688423  HIT:     688423  MISS:          0
cpu0_L1D PREFETCH  ACCESS:          0  HIT:          0  MISS:          0
cpu0_L1D WRITEBACK ACCESS:          0  HIT:          0  MISS:          0
cpu0_L2C TOTAL     ACCESS:     303062  HIT:      73810  MISS:     229252
cpu0_L2C LOAD      ACCESS:     229269  HIT:         25  MISS:     229244
cpu0_L2C RFO       ACCESS:          0  HIT:          0  MISS:          0
cpu0_L2C PREFETCH  ACCESS:          0  HIT:          0  MISS:          0
cpu0_L2C WRITEBACK ACCESS:      72701  HIT:      72700  MISS:          1
LLC TOTAL     ACCESS:     302000  HIT:      52132  MISS:     249868
LLC LOAD      ACCESS:     229244  HIT:          3  MISS:     229241
LLC RFO       ACCESS:          0  HIT:          0  MISS:          0
LLC PREFETCH  ACCESS:          0  HIT:          0  MISS:          0
LLC WRITEBACK ACCESS:      72749  HIT:      52129  MISS:      20620
Heartbeat CPU 0 instructions: 66000004 cycles: 40618352 heartbeat IPC: 0.656007 cumulative IPC: 0.657487 (Simulation time: 1 hr 9 min 22 sec) 

Region of Interest Statistics
cpu0_DTLB TOTAL     ACCESS:    4095840  HIT:    4058230  MISS:      37610
cpu0_DTLB LOAD      ACCESS:    3609944  HIT:    3574845  MISS:      35099
cpu0_DTLB RFO       ACCESS:     485896  HIT:     483385  MISS:       2511
cpu0_DTLB PREFETCH  ACCESS:          0  HIT:          0  MISS:          0
cpu0_DTLB WRITEBACK ACCESS:          0  HIT:          0  MISS:          0
cpu0_ITLB TOTAL     ACCESS:      48195  HIT:      48195  MISS:          0
cpu0_ITLB LOAD      ACCESS:      48195  HIT:      48195  MISS:          0
cpu0_ITLB RFO       ACCESS:          0  HIT:          0  MISS:          0
cpu0_ITLB PREFETCH  ACCESS:          0  HIT:          0  MISS:          0
cpu0_ITLB WRITEBACK ACCESS:          0  HIT:          0  MISS:          0
cpu0_STLB TOTAL     ACCESS:      37610  HIT:      33245  MISS:       4365
cpu0_STLB LOAD      ACCESS:      35099  HIT:      30734  MISS:       4365
cpu0_STLB RFO       ACCESS:       2511  HIT:       2511  MISS:          0
cpu0_STLB PREFETCH  ACCESS:          0  HIT:          0  MISS:          0
cpu0_STLB WRITEBACK ACCESS:          0  HIT:          0  MISS:          0
cpu0_L1D TOTAL     ACCESS:    4075315  HIT:    3812035  MISS:     263280
cpu0_L1D LOAD      ACCESS:    3284198  HIT:    3022177  MISS:     262021
cpu0_L1D RFO       ACCESS:     786753  HIT:     786753  MISS:          0
cpu0_L1D PREFETCH  ACCESS:          0  HIT:          0  MISS:          0
cpu0_L1D WRITEBACK ACCESS:          0  HIT:          0  MISS:          0
cpu0_L2C TOTAL     ACCESS:     346363  HIT:      84368  MISS:     261995
cpu0_L2C LOAD      ACCESS:     262021  HIT:         38  MISS:     261983
cpu0_L2C RFO       ACCESS:          0  HIT:          0  MISS:          0
cpu0_L2C PREFETCH  ACCESS:          0  HIT:          0  MISS:          0
cpu0_L2C WRITEBACK ACCESS:      83083  HIT:      83082  MISS:          1
LLC TOTAL     ACCESS:     345257  HIT:      59228  MISS:     286029
LLC LOAD      ACCESS:     261983  HIT:          3  MISS:     261980
LLC RFO       ACCESS:          0  HIT:          0  MISS:          0
LLC PREFETCH  ACCESS:          0  HIT:          0  MISS:          0
LLC WRITEBACK ACCESS:      83263  HIT:      59225  MISS:      24038
Heartbeat CPU 0 instructions: 68000001 cycles: 43670761 heartbeat IPC: 0.655219 cumulative IPC: 0.657234 (Simulation time: 1 hr 13 min 16 sec) 

Region of Interest Statistics
cpu0_DTLB TOTAL     ACCESS:    4608481  HIT:    4569750  MISS:      38731
cpu0_DTLB LOAD      ACCESS:    4061542  HIT:    4025322  MISS:      36220
cpu0_DTLB RFO       ACCESS:     546939  HIT:     544428  MISS:       2511
cpu0_DTLB PREFETCH  ACCESS:          0  HIT:          0  MISS:          0
cpu0_DTLB WRITEBACK ACCESS:          0  HIT:          0  MISS:          0
cpu0_ITLB TOTAL     ACCESS:      54200  HIT:      54200  MISS:          0
cpu0_ITLB LOAD      ACCESS:      54200  HIT:      54200  MISS:          0
cpu0_ITLB RFO       ACCESS:          0  HIT:          0  MISS:          0
cpu0_ITLB PREFETCH  ACCESS:          0  HIT:          0  MISS:          0
cpu0_ITLB WRITEBACK ACCESS:          0  HIT:          0  MISS:          0
cpu0_STLB TOTAL     ACCESS:      38731  HIT:      33820  MISS:       4911
cpu0_STLB LOAD      ACCESS:      36220  HIT:      31309  MISS:       4911
cpu0_STLB RFO       ACCESS:       2511  HIT:       2511  MISS:          0
cpu0_STLB PREFETCH  ACCESS:          0  HIT:          0  MISS:          0
cpu0_STLB WRITEBACK ACCESS:          0  HIT:          0  MISS:          0
cpu0_L1D TOTAL     ACCESS:    4583433  HIT:    4287199  MISS:     296234
cpu0_L1D LOAD      ACCESS:    3693439  HIT:    3398682  MISS:     294757
cpu0_L1D RFO       ACCESS:     885084  HIT:     885084  MISS:          0
cpu0_L1D PREFETCH  ACCESS:          0  HIT:          0  MISS:          0
cpu0_L1D WRITEBACK ACCESS:          0  HIT:          0  MISS:          0
cpu0_L2C TOTAL     ACCESS:     389715  HIT:      94984  MISS:     294731
cpu0_L2C LOAD      ACCESS:     294757  HIT:         38  MISS:     294719
cpu0_L2C RFO       ACCESS:          0  HIT:          0  MISS:          0
cpu0_L2C PREFETCH  ACCESS:          0  HIT:          0  MISS:          0
cpu0_L2C WRITEBACK ACCESS:      93481  HIT:      93480  MISS:          1
LLC TOTAL     ACCESS:     388429  HIT:      66502  MISS:     321927
LLC LOAD      ACCESS:     294719  HIT:          3  MISS:     294716
LLC RFO       ACCESS:          0  HIT:          0  MISS:          0
LLC PREFETCH  ACCESS:          0  HIT:          0  MISS:          0
LLC WRITEBACK ACCESS:      93699  HIT:      66499  MISS:      27200
Heartbeat CPU 0 instructions: 70000001 cycles: 46599954 heartbeat IPC: 0.682782 cumulative IPC: 0.659702 (Simulation time: 1 hr 17 min 2 sec) 

Region of Interest Statistics
cpu0_DTLB TOTAL     ACCESS:    5120754  HIT:    5081464  MISS:      39290
cpu0_DTLB LOAD      ACCESS:    4513317  HIT:    4476538  MISS:      36779
cpu0_DTLB RFO       ACCESS:     607437  HIT:     604926  MISS:       2511
cpu0_DTLB PREFETCH  ACCESS:          0  HIT:          0  MISS:          0
cpu0_DTLB WRITEBACK ACCESS:          0  HIT:          0  MISS:          0
cpu0_ITLB TOTAL     ACCESS:      60265  HIT:      60265  MISS:          0
cpu0_ITLB LOAD      ACCESS:      60265  HIT:      60265  MISS:          0
cpu0_ITLB RFO       ACCESS:          0  HIT:          0  MISS:          0
cpu0_ITLB PREFETCH  ACCESS:          0  HIT:          0  MISS:          0
cpu0_ITLB WRITEBACK ACCESS:          0  HIT:          0  MISS:          0
cpu0_STLB TOTAL     ACCESS:      39290  HIT:      33824  MISS:       5466
cpu0_STLB LOAD      ACCESS:      36779  HIT:      31313  MISS:       5466
cpu0_STLB RFO       ACCESS:       2511  HIT:       2511  MISS:          0
cpu0_STLB PREFETCH  ACCESS:          0  HIT:          0  MISS:          0
cpu0_STLB WRITEBACK ACCESS:          0  HIT:          0  MISS:          0
cpu0_L1D TOTAL     ACCESS:    5089423  HIT:    4760148  MISS:     329275
cpu0_L1D LOAD      ACCESS:    4100464  HIT:    3772897  MISS:     327567
cpu0_L1D RFO       ACCESS:     983494  HIT:     983494  MISS:          0
cpu0_L1D PREFETCH  ACCESS:          0  HIT:          0  MISS:          0
cpu0_L1D WRITEBACK ACCESS:          0  HIT:          0  MISS:          0
cpu0_L2C TOTAL     ACCESS:     433150  HIT:     105605  MISS:     327545
cpu0_L2C LOAD      ACCESS:     327567  HIT:         38  MISS:     327529
cpu0_L2C RFO       ACCESS:          0  HIT:          0  MISS:          0
cpu0_L2C PREFETCH  ACCESS:          0  HIT:          0  MISS:          0
cpu0_L2C WRITEBACK ACCESS:     103875  HIT:     103874  MISS:          1
LLC TOTAL     ACCESS:     431629  HIT:      73757  MISS:     357872
LLC LOAD      ACCESS:     327529  HIT:          3  MISS:     327526
LLC RFO       ACCESS:          0  HIT:          0  MISS:          0
LLC PREFETCH  ACCESS:          0  HIT:          0  MISS:          0
LLC WRITEBACK ACCESS:     104085  HIT:      73754  MISS:      30331
Heartbeat CPU 0 instructions: 72000001 cycles: 49531056 heartbeat IPC: 0.682337 cumulative IPC: 0.661698 (Simulation time: 1 hr 20 min 53 sec) 

Region of Interest Statistics
cpu0_DTLB TOTAL     ACCESS:    5632831  HIT:    5592644  MISS:      40187
cpu0_DTLB LOAD      ACCESS:    4964870  HIT:    4927219  MISS:      37651
cpu0_DTLB RFO       ACCESS:     667961  HIT:     665425  MISS:       2536
cpu0_DTLB PREFETCH  ACCESS:          0  HIT:          0  MISS:          0
cpu0_DTLB WRITEBACK ACCESS:          0  HIT:          0  MISS:          0
cpu0_ITLB TOTAL     ACCESS:      66265  HIT:      66265  MISS:          0
cpu0_ITLB LOAD      ACCESS:      66265  HIT:      66265  MISS:          0
cpu0_ITLB RFO       ACCESS:          0  HIT:          0  MISS:          0
cpu0_ITLB PREFETCH  ACCESS:          0  HIT:          0  MISS:          0
cpu0_ITLB WRITEBACK ACCESS:          0  HIT:          0  MISS:          0
cpu0_STLB TOTAL     ACCESS:      40187  HIT:      34179  MISS:       6008
cpu0_STLB LOAD      ACCESS:      37651  HIT:      31643  MISS:       6008
cpu0_STLB RFO       ACCESS:       2536  HIT:       2536  MISS:          0
cpu0_STLB PREFETCH  ACCESS:          0  HIT:          0  MISS:          0
cpu0_STLB WRITEBACK ACCESS:          0  HIT:          0  MISS:          0
cpu0_L1D TOTAL     ACCESS:    5595403  HIT:    5233164  MISS:     362239
cpu0_L1D LOAD      ACCESS:    4507571  HIT:    4147265  MISS:     360306
cpu0_L1D RFO       ACCESS:    1081825  HIT:    1081825  MISS:          0
cpu0_L1D PREFETCH  ACCESS:          0  HIT:          0  MISS:          0
cpu0_L1D WRITEBACK ACCESS:          0  HIT:          0  MISS:          0
cpu0_L2C TOTAL     ACCESS:     476472  HIT:     116187  MISS:     360285
cpu0_L2C LOAD      ACCESS:     360306  HIT:         38  MISS:     360268
cpu0_L2C RFO       ACCESS:          0  HIT:          0  MISS:          0
cpu0_L2C PREFETCH  ACCESS:          0  HIT:          0  MISS:          0
cpu0_L2C WRITEBACK ACCESS:     114233  HIT:     114232  MISS:          1
LLC TOTAL     ACCESS:     474767  HIT:      81362  MISS:     393405
LLC LOAD      ACCESS:     360268  HIT:          3  MISS:     360265
LLC RFO       ACCESS:          0  HIT:          0  MISS:          0
LLC PREFETCH  ACCESS:          0  HIT:          0  MISS:          0
LLC WRITEBACK ACCESS:     114483  HIT:      81359  MISS:      33124
Heartbeat CPU 0 instructions: 74000004 cycles: 52454213 heartbeat IPC: 0.684193 cumulative IPC: 0.663516 (Simulation time: 1 hr 24 min 38 sec) 

Region of Interest Statistics
cpu0_DTLB TOTAL     ACCESS:    6145027  HIT:    6103782  MISS:      41245
cpu0_DTLB LOAD      ACCESS:    5416544  HIT:    5377848  MISS:      38696
cpu0_DTLB RFO       ACCESS:     728483  HIT:     725934  MISS:       2549
cpu0_DTLB PREFETCH  ACCESS:          0  HIT:          0  MISS:          0
cpu0_DTLB WRITEBACK ACCESS:          0  HIT:          0  MISS:          0
cpu0_ITLB TOTAL     ACCESS:      72270  HIT:      72270  MISS:          0
cpu0_ITLB LOAD      ACCESS:      72270  HIT:      72270  MISS:          0
cpu0_ITLB RFO       ACCESS:          0  HIT:          0  MISS:          0
cpu0_ITLB PREFETCH  ACCESS:          0  HIT:          0  MISS:          0
cpu0_ITLB WRITEBACK ACCESS:          0  HIT:          0  MISS:          0
cpu0_STLB TOTAL     ACCESS:      41245  HIT:      34690  MISS:       6555
cpu0_STLB LOAD      ACCESS:      38696  HIT:      32141  MISS:       6555
cpu0_STLB RFO       ACCESS:       2549  HIT:       2549  MISS:          0
cpu0_STLB PREFETCH  ACCESS:          0  HIT:          0  MISS:          0
cpu0_STLB WRITEBACK ACCESS:          0  HIT:          0  MISS:          0
cpu0_L1D TOTAL     ACCESS:    6104488  HIT:    5709267  MISS:     395221
cpu0_L1D LOAD      ACCESS:    4917778  HIT:    4524730  MISS:     393048
cpu0_L1D RFO       ACCESS:    1180156  HIT:    1180156  MISS:          0
cpu0_L1D PREFETCH  ACCESS:          0  HIT:          0  MISS:          0
cpu0_L1D WRITEBACK ACCESS:          0  HIT:          0  MISS:          0
cpu0_L2C TOTAL     ACCESS:     519860  HIT:     126836  MISS:     393024
cpu0_L2C LOAD      ACCESS:     393048  HIT:         41  MISS:     393007
cpu0_L2C RFO       ACCESS:          0  HIT:          0  MISS:          0
cpu0_L2C PREFETCH  ACCESS:          0  HIT:          0  MISS:          0
cpu0_L2C WRITEBACK ACCESS:     124639  HIT:     124638  MISS:          1
LLC TOTAL     ACCESS:     517924  HIT:      88717  MISS:     429207
LLC LOAD      ACCESS:     393007  HIT:          3  MISS:     393004
LLC RFO       ACCESS:          0  HIT:          0  MISS:          0
LLC PREFETCH  ACCESS:          0  HIT:          0  MISS:          0
LLC WRITEBACK ACCESS:     124901  HIT:      88714  MISS:      36187
Heartbeat CPU 0 instructions: 76000003 cycles: 55372457 heartbeat IPC: 0.685343 cumulative IPC: 0.665145 (Simulation time: 1 hr 28 min 19 sec) 

Region of Interest Statistics
cpu0_DTLB TOTAL     ACCESS:    6657056  HIT:    6614791  MISS:      42265
cpu0_DTLB LOAD      ACCESS:    5868126  HIT:    5828433  MISS:      39693
cpu0_DTLB RFO       ACCESS:     788930  HIT:     786358  MISS:       2572
cpu0_DTLB PREFETCH  ACCESS:          0  HIT:          0  MISS:          0
cpu0_DTLB WRITEBACK ACCESS:          0  HIT:          0  MISS:          0
cpu0_ITLB TOTAL     ACCESS:      78273  HIT:      78273  MISS:          0
cpu0_ITLB LOAD      ACCESS:      78273  HIT:      78273  MISS:          0
cpu0_ITLB RFO       ACCESS:          0  HIT:          0  MISS:          0
cpu0_ITLB PREFETCH  ACCESS:          0  HIT:          0  MISS:          0
cpu0_ITLB WRITEBACK ACCESS:          0  HIT:          0  MISS:          0
cpu0_STLB TOTAL     ACCESS:      42265  HIT:      35168  MISS:       7097
cpu0_STLB LOAD      ACCESS:      39693  HIT:      32596  MISS:       7097
cpu0_STLB RFO       ACCESS:       2572  HIT:       2572  MISS:          0
cpu0_STLB PREFETCH  ACCESS:          0  HIT:          0  MISS:          0
cpu0_STLB WRITEBACK ACCESS:          0  HIT:          0  MISS:          0
cpu0_L1D TOTAL     ACCESS:    6613766  HIT:    6185570  MISS:     428196
cpu0_L1D LOAD      ACCESS:    5328183  HIT:    4902402  MISS:     425781
cpu0_L1D RFO       ACCESS:    1278486  HIT:    1278486  MISS:          0
cpu0_L1D PREFETCH  ACCESS:          0  HIT:          0  MISS:          0
cpu0_L1D WRITEBACK ACCESS:          0  HIT:          0  MISS:          0
cpu0_L2C TOTAL     ACCESS:     563223  HIT:     137466  MISS:     425757
cpu0_L2C LOAD      ACCESS:     425781  HIT:         41  MISS:     425740
cpu0_L2C RFO       ACCESS:          0  HIT:          0  MISS:          0
cpu0_L2C PREFETCH  ACCESS:          0  HIT:          0  MISS:          0
cpu0_L2C WRITEBACK ACCESS:     135027  HIT:     135026  MISS:          1
LLC TOTAL     ACCESS:     560951  HIT:      95812  MISS:     465139
LLC LOAD      ACCESS:     425740  HIT:          3  MISS:     425737
LLC RFO       ACCESS:          0  HIT:          0  MISS:          0
LLC PREFETCH  ACCESS:          0  HIT:          0  MISS:          0
LLC WRITEBACK ACCESS:     135195  HIT:      95809  MISS:      39386
Heartbeat CPU 0 instructions: 78000004 cycles: 58293977 heartbeat IPC: 0.684575 cumulative IPC: 0.666497 (Simulation time: 1 hr 32 min 5 sec) 

Region of Interest Statistics
cpu0_DTLB TOTAL     ACCESS:    7169178  HIT:    7126033  MISS:      43145
cpu0_DTLB LOAD      ACCESS:    6319680  HIT:    6279128  MISS:      40552
cpu0_DTLB RFO       ACCESS:     849498  HIT:     846905  MISS:       2593
cpu0_DTLB PREFETCH  ACCESS:          0  HIT:          0  MISS:          0
cpu0_DTLB WRITEBACK ACCESS:          0  HIT:          0  MISS:          0
cpu0_ITLB TOTAL     ACCESS:      84338  HIT:      84338  MISS:          0
cpu0_ITLB LOAD      ACCESS:      84338  HIT:      84338  MISS:          0
cpu0_ITLB RFO       ACCESS:          0  HIT:          0  MISS:          0
cpu0_ITLB PREFETCH  ACCESS:          0  HIT:          0  MISS:          0
cpu0_ITLB WRITEBACK ACCESS:          0  HIT:          0  MISS:          0
cpu0_STLB TOTAL     ACCESS:      43145  HIT:      35504  MISS:       7641
cpu0_STLB LOAD      ACCESS:      40552  HIT:      32911  MISS:       7641
cpu0_STLB RFO       ACCESS:       2593  HIT:       2593  MISS:          0
cpu0_STLB PREFETCH  ACCESS:          0  HIT:          0  MISS:          0
cpu0_STLB WRITEBACK ACCESS:          0  HIT:          0  MISS:          0
cpu0_L1D TOTAL     ACCESS:    7123137  HIT:    6661976  MISS:     461161
cpu0_L1D LOAD      ACCESS:    5738649  HIT:    5280128  MISS:     458521
cpu0_L1D RFO       ACCESS:    1376848  HIT:    1376848  MISS:          0
cpu0_L1D PREFETCH  ACCESS:          0  HIT:          0  MISS:          0
cpu0_L1D WRITEBACK ACCESS:          0  HIT:          0  MISS:          0
cpu0_L2C TOTAL     ACCESS:     606579  HIT:     148082  MISS:     458497
cpu0_L2C LOAD      ACCESS:     458521  HIT:         41  MISS:     458480
cpu0_L2C RFO       ACCESS:          0  HIT:          0  MISS:          0
cpu0_L2C PREFETCH  ACCESS:          0  HIT:          0  MISS:          0
cpu0_L2C WRITEBACK ACCESS:     145418  HIT:     145417  MISS:          1
LLC TOTAL     ACCESS:     604138  HIT:     103197  MISS:     500941
LLC LOAD      ACCESS:     458480  HIT:          3  MISS:     458477
LLC RFO       ACCESS:          0  HIT:          0  MISS:          0
LLC PREFETCH  ACCESS:          0  HIT:          0  MISS:          0
LLC WRITEBACK ACCESS:     145642  HIT:     103194  MISS:      42448
Heartbeat CPU 0 instructions: 80000004 cycles: 61197451 heartbeat IPC: 0.68883 cumulative IPC: 0.66794 (Simulation time: 1 hr 35 min 52 sec) 

Region of Interest Statistics
cpu0_DTLB TOTAL     ACCESS:    7681384  HIT:    7637692  MISS:      43692
cpu0_DTLB LOAD      ACCESS:    6771410  HIT:    6730311  MISS:      41099
cpu0_DTLB RFO       ACCESS:     909974  HIT:     907381  MISS:       2593
cpu0_DTLB PREFETCH  ACCESS:          0  HIT:          0  MISS:          0
cpu0_DTLB WRITEBACK ACCESS:          0  HIT:          0  MISS:          0
cpu0_ITLB TOTAL     ACCESS:      90326  HIT:      90326  MISS:          0
cpu0_ITLB LOAD      ACCESS:      90326  HIT:      90326  MISS:          0
cpu0_ITLB RFO       ACCESS:          0  HIT:          0  MISS:          0
cpu0_ITLB PREFETCH  ACCESS:          0  HIT:          0  MISS:          0
cpu0_ITLB WRITEBACK ACCESS:          0  HIT:          0  MISS:          0
cpu0_STLB TOTAL     ACCESS:      43692  HIT:      35504  MISS:       8188
cpu0_STLB LOAD      ACCESS:      41099  HIT:      32911  MISS:       8188
cpu0_STLB RFO       ACCESS:       2593  HIT:       2593  MISS:          0
cpu0_STLB PREFETCH  ACCESS:          0  HIT:          0  MISS:          0
cpu0_STLB WRITEBACK ACCESS:          0  HIT:          0  MISS:          0
cpu0_L1D TOTAL     ACCESS:    7632463  HIT:    7138327  MISS:     494136
cpu0_L1D LOAD      ACCESS:    6149098  HIT:    5657840  MISS:     491258
cpu0_L1D RFO       ACCESS:    1475178  HIT:    1475178  MISS:          0
cpu0_L1D PREFETCH  ACCESS:          0  HIT:          0  MISS:          0
cpu0_L1D WRITEBACK ACCESS:          0  HIT:          0  MISS:          0
cpu0_L2C TOTAL     ACCESS:     649924  HIT:     158689  MISS:     491235
cpu0_L2C LOAD      ACCESS:     491258  HIT:         41  MISS:     491217
cpu0_L2C RFO       ACCESS:          0  HIT:          0  MISS:          0
cpu0_L2C PREFETCH  ACCESS:          0  HIT:          0  MISS:          0
cpu0_L2C WRITEBACK ACCESS:     155788  HIT:     155787  MISS:          1
LLC TOTAL     ACCESS:     647382  HIT:     110964  MISS:     536418
LLC LOAD      ACCESS:     491217  HIT:          3  MISS:     491214
LLC RFO       ACCESS:          0  HIT:          0  MISS:          0
LLC PREFETCH  ACCESS:          0  HIT:          0  MISS:          0
LLC WRITEBACK ACCESS:     156148  HIT:     110961  MISS:      45187
Heartbeat CPU 0 instructions: 82000002 cycles: 64136582 heartbeat IPC: 0.680473 cumulative IPC: 0.66871 (Simulation time: 1 hr 39 min 37 sec) 

Region of Interest Statistics
cpu0_DTLB TOTAL     ACCESS:    8193405  HIT:    8149137  MISS:      44268
cpu0_DTLB LOAD      ACCESS:    7222931  HIT:    7181259  MISS:      41672
cpu0_DTLB RFO       ACCESS:     970474  HIT:     967878  MISS:       2596
cpu0_DTLB PREFETCH  ACCESS:          0  HIT:          0  MISS:          0
cpu0_DTLB WRITEBACK ACCESS:          0  HIT:          0  MISS:          0
cpu0_ITLB TOTAL     ACCESS:      96342  HIT:      96342  MISS:          0
cpu0_ITLB LOAD      ACCESS:      96342  HIT:      96342  MISS:          0
cpu0_ITLB RFO       ACCESS:          0  HIT:          0  MISS:          0
cpu0_ITLB PREFETCH  ACCESS:          0  HIT:          0  MISS:          0
cpu0_ITLB WRITEBACK ACCESS:          0  HIT:          0  MISS:          0
cpu0_STLB TOTAL     ACCESS:      44268  HIT:      35534  MISS:       8734
cpu0_STLB LOAD      ACCESS:      41672  HIT:      32938  MISS:       8734
cpu0_STLB RFO       ACCESS:       2596  HIT:       2596  MISS:          0
cpu0_STLB PREFETCH  ACCESS:          0  HIT:          0  MISS:          0
cpu0_STLB WRITEBACK ACCESS:          0  HIT:          0  MISS:          0
cpu0_L1D TOTAL     ACCESS:    8140574  HIT:    7613482  MISS:     527092
cpu0_L1D LOAD      ACCESS:    6558332  HIT:    6034337  MISS:     523995
cpu0_L1D RFO       ACCESS:    1573509  HIT:    1573509  MISS:          0
cpu0_L1D PREFETCH  ACCESS:          0  HIT:          0  MISS:          0
cpu0_L1D WRITEBACK ACCESS:          0  HIT:          0  MISS:          0
cpu0_L2C TOTAL     ACCESS:     693261  HIT:     169286  MISS:     523975
cpu0_L2C LOAD      ACCESS:     523995  HIT:         41  MISS:     523954
cpu0_L2C RFO       ACCESS:          0  HIT:          0  MISS:          0
cpu0_L2C PREFETCH  ACCESS:          0  HIT:          0  MISS:          0
cpu0_L2C WRITEBACK ACCESS:     166169  HIT:     166168  MISS:          1
LLC TOTAL     ACCESS:     690352  HIT:     117861  MISS:     572491
LLC LOAD      ACCESS:     523954  HIT:          3  MISS:     523951
LLC RFO       ACCESS:          0  HIT:          0  MISS:          0
LLC PREFETCH  ACCESS:          0  HIT:          0  MISS:          0
LLC WRITEBACK ACCESS:     166378  HIT:     117858  MISS:      48520
Heartbeat CPU 0 instructions: 84000000 cycles: 67029370 heartbeat IPC: 0.691374 cumulative IPC: 0.670002 (Simulation time: 1 hr 43 min 18 sec) 

Region of Interest Statistics
cpu0_DTLB TOTAL     ACCESS:    8705311  HIT:    8660474  MISS:      44837
cpu0_DTLB LOAD      ACCESS:    7674419  HIT:    7632181  MISS:      42238
cpu0_DTLB RFO       ACCESS:    1030892  HIT:    1028293  MISS:       2599
cpu0_DTLB PREFETCH  ACCESS:          0  HIT:          0  MISS:          0
cpu0_DTLB WRITEBACK ACCESS:          0  HIT:          0  MISS:          0
cpu0_ITLB TOTAL     ACCESS:     102344  HIT:     102344  MISS:          0
cpu0_ITLB LOAD      ACCESS:     102344  HIT:     102344  MISS:          0
cpu0_ITLB RFO       ACCESS:          0  HIT:          0  MISS:          0
cpu0_ITLB PREFETCH  ACCESS:          0  HIT:          0  MISS:          0
cpu0_ITLB WRITEBACK ACCESS:          0  HIT:          0  MISS:          0
cpu0_STLB TOTAL     ACCESS:      44837  HIT:      35558  MISS:       9279
cpu0_STLB LOAD      ACCESS:      42238  HIT:      32959  MISS:       9279
cpu0_STLB RFO       ACCESS:       2599  HIT:       2599  MISS:          0
cpu0_STLB PREFETCH  ACCESS:          0  HIT:          0  MISS:          0
cpu0_STLB WRITEBACK ACCESS:          0  HIT:          0  MISS:          0
cpu0_L1D TOTAL     ACCESS:    8645837  HIT:    8085807  MISS:     560030
cpu0_L1D LOAD      ACCESS:    6964721  HIT:    6407985  MISS:     556736
cpu0_L1D RFO       ACCESS:    1671838  HIT:    1671838  MISS:          0
cpu0_L1D PREFETCH  ACCESS:          0  HIT:          0  MISS:          0
cpu0_L1D WRITEBACK ACCESS:          0  HIT:          0  MISS:          0
cpu0_L2C TOTAL     ACCESS:     736581  HIT:     179866  MISS:     556715
cpu0_L2C LOAD      ACCESS:     556736  HIT:         44  MISS:     556692
cpu0_L2C RFO       ACCESS:          0  HIT:          0  MISS:          0
cpu0_L2C PREFETCH  ACCESS:          0  HIT:          0  MISS:          0
cpu0_L2C WRITEBACK ACCESS:     176551  HIT:     176550  MISS:          1
LLC TOTAL     ACCESS:     733450  HIT:     125610  MISS:     607840
LLC LOAD      ACCESS:     556692  HIT:          3  MISS:     556689
LLC RFO       ACCESS:          0  HIT:          0  MISS:          0
LLC PREFETCH  ACCESS:          0  HIT:          0  MISS:          0
LLC WRITEBACK ACCESS:     176736  HIT:     125607  MISS:      51129
Heartbeat CPU 0 instructions: 86000004 cycles: 69972079 heartbeat IPC: 0.679647 cumulative IPC: 0.670531 (Simulation time: 1 hr 47 min 5 sec) 

Region of Interest Statistics
cpu0_DTLB TOTAL     ACCESS:    9217259  HIT:    9171332  MISS:      45927
cpu0_DTLB LOAD      ACCESS:    8125590  HIT:    8082315  MISS:      43275
cpu0_DTLB RFO       ACCESS:    1091669  HIT:    1089017  MISS:       2652
cpu0_DTLB PREFETCH  ACCESS:          0  HIT:          0  MISS:          0
cpu0_DTLB WRITEBACK ACCESS:          0  HIT:          0  MISS:          0
cpu0_ITLB TOTAL     ACCESS:     108413  HIT:     108413  MISS:          0
cpu0_ITLB LOAD      ACCESS:     108413  HIT:     108413  MISS:          0
cpu0_ITLB RFO       ACCESS:          0  HIT:          0  MISS:          0
cpu0_ITLB PREFETCH  ACCESS:          0  HIT:          0  MISS:          0
cpu0_ITLB WRITEBACK ACCESS:          0  HIT:          0  MISS:          0
cpu0_STLB TOTAL     ACCESS:      45927  HIT:      36091  MISS:       9836
cpu0_STLB LOAD      ACCESS:      43275  HIT:      33439  MISS:       9836
cpu0_STLB RFO       ACCESS:       2652  HIT:       2652  MISS:          0
cpu0_STLB PREFETCH  ACCESS:          0  HIT:          0  MISS:          0
cpu0_STLB WRITEBACK ACCESS:          0  HIT:          0  MISS:          0
cpu0_L1D TOTAL     ACCESS:    9151829  HIT:    8558811  MISS:     593018
cpu0_L1D LOAD      ACCESS:    7371745  HIT:    6782204  MISS:     589541
cpu0_L1D RFO       ACCESS:    1770250  HIT:    1770250  MISS:          0
cpu0_L1D PREFETCH  ACCESS:          0  HIT:          0  MISS:          0
cpu0_L1D WRITEBACK ACCESS:          0  HIT:          0  MISS:          0
cpu0_L2C TOTAL     ACCESS:     779942  HIT:     190420  MISS:     589522
cpu0_L2C LOAD      ACCESS:     589541  HIT:         44  MISS:     589497
cpu0_L2C RFO       ACCESS:          0  HIT:          0  MISS:          0
cpu0_L2C PREFETCH  ACCESS:          0  HIT:          0  MISS:          0
cpu0_L2C WRITEBACK ACCESS:     186924  HIT:     186923  MISS:          1
LLC TOTAL     ACCESS:     776680  HIT:     132848  MISS:     643832
LLC LOAD      ACCESS:     589497  HIT:          3  MISS:     589494
LLC RFO       ACCESS:          0  HIT:          0  MISS:          0
LLC PREFETCH  ACCESS:          0  HIT:          0  MISS:          0
LLC WRITEBACK ACCESS:     187159  HIT:     132844  MISS:      54315
Heartbeat CPU 0 instructions: 88000001 cycles: 72859854 heartbeat IPC: 0.692574 cumulative IPC: 0.671656 (Simulation time: 1 hr 50 min 49 sec) 

Region of Interest Statistics
cpu0_DTLB TOTAL     ACCESS:    9728820  HIT:    9682300  MISS:      46520
cpu0_DTLB LOAD      ACCESS:    8576080  HIT:    8532216  MISS:      43864
cpu0_DTLB RFO       ACCESS:    1152740  HIT:    1150084  MISS:       2656
cpu0_DTLB PREFETCH  ACCESS:          0  HIT:          0  MISS:          0
cpu0_DTLB WRITEBACK ACCESS:          0  HIT:          0  MISS:          0
cpu0_ITLB TOTAL     ACCESS:     114423  HIT:     114423  MISS:          0
cpu0_ITLB LOAD      ACCESS:     114423  HIT:     114423  MISS:          0
cpu0_ITLB RFO       ACCESS:          0  HIT:          0  MISS:          0
cpu0_ITLB PREFETCH  ACCESS:          0  HIT:          0  MISS:          0
cpu0_ITLB WRITEBACK ACCESS:          0  HIT:          0  MISS:          0
cpu0_STLB TOTAL     ACCESS:      46520  HIT:      36139  MISS:      10381
cpu0_STLB LOAD      ACCESS:      43864  HIT:      33483  MISS:      10381
cpu0_STLB RFO       ACCESS:       2656  HIT:       2656  MISS:          0
cpu0_STLB PREFETCH  ACCESS:          0  HIT:          0  MISS:          0
cpu0_STLB WRITEBACK ACCESS:          0  HIT:          0  MISS:          0
cpu0_L1D TOTAL     ACCESS:    9657622  HIT:    9031710  MISS:     625912
cpu0_L1D LOAD      ACCESS:    7778664  HIT:    7156388  MISS:     622276
cpu0_L1D RFO       ACCESS:    1868579  HIT:    1868579  MISS:          0
cpu0_L1D PREFETCH  ACCESS:          0  HIT:          0  MISS:          0
cpu0_L1D WRITEBACK ACCESS:          0  HIT:          0  MISS:          0
cpu0_L2C TOTAL     ACCESS:     823231  HIT:     200972  MISS:     622259
cpu0_L2C LOAD      ACCESS:     622276  HIT:         44  MISS:     622232
cpu0_L2C RFO       ACCESS:          0  HIT:          0  MISS:          0
cpu0_L2C PREFETCH  ACCESS:          0  HIT:          0  MISS:          0
cpu0_L2C WRITEBACK ACCESS:     197319  HIT:     197318  MISS:          1
LLC TOTAL     ACCESS:     819773  HIT:     140407  MISS:     679366
LLC LOAD      ACCESS:     622232  HIT:          3  MISS:     622229
LLC RFO       ACCESS:          0  HIT:          0  MISS:          0
LLC PREFETCH  ACCESS:          0  HIT:          0  MISS:          0
LLC WRITEBACK ACCESS:     197515  HIT:     140403  MISS:      57112
Heartbeat CPU 0 instructions: 90000004 cycles: 75783684 heartbeat IPC: 0.684035 cumulative IPC: 0.672264 (Simulation time: 1 hr 54 min 30 sec) 

Region of Interest Statistics
cpu0_DTLB TOTAL     ACCESS:   10241289  HIT:   10194131  MISS:      47158
cpu0_DTLB LOAD      ACCESS:    9027344  HIT:    8982846  MISS:      44498
cpu0_DTLB RFO       ACCESS:    1213945  HIT:    1211285  MISS:       2660
cpu0_DTLB PREFETCH  ACCESS:          0  HIT:          0  MISS:          0
cpu0_DTLB WRITEBACK ACCESS:          0  HIT:          0  MISS:          0
cpu0_ITLB TOTAL     ACCESS:     120427  HIT:     120427  MISS:          0
cpu0_ITLB LOAD      ACCESS:     120427  HIT:     120427  MISS:          0
cpu0_ITLB RFO       ACCESS:          0  HIT:          0  MISS:          0
cpu0_ITLB PREFETCH  ACCESS:          0  HIT:          0  MISS:          0
cpu0_ITLB WRITEBACK ACCESS:          0  HIT:          0  MISS:          0
cpu0_STLB TOTAL     ACCESS:      47158  HIT:      36229  MISS:      10929
cpu0_STLB LOAD      ACCESS:      44498  HIT:      33569  MISS:      10929
cpu0_STLB RFO       ACCESS:       2660  HIT:       2660  MISS:          0
cpu0_STLB PREFETCH  ACCESS:          0  HIT:          0  MISS:          0
cpu0_STLB WRITEBACK ACCESS:          0  HIT:          0  MISS:          0
cpu0_L1D TOTAL     ACCESS:   10165656  HIT:    9506821  MISS:     658835
cpu0_L1D LOAD      ACCESS:    8187820  HIT:    7532799  MISS:     655021
cpu0_L1D RFO       ACCESS:    1966909  HIT:    1966909  MISS:          0
cpu0_L1D PREFETCH  ACCESS:          0  HIT:          0  MISS:          0
cpu0_L1D WRITEBACK ACCESS:          0  HIT:          0  MISS:          0
cpu0_L2C TOTAL     ACCESS:     866529  HIT:     211526  MISS:     655003
cpu0_L2C LOAD      ACCESS:     655021  HIT:         47  MISS:     654974
cpu0_L2C RFO       ACCESS:          0  HIT:          0  MISS:          0
cpu0_L2C PREFETCH  ACCESS:          0  HIT:          0  MISS:          0
cpu0_L2C WRITEBACK ACCESS:     207694  HIT:     207692  MISS:          2
LLC TOTAL     ACCESS:     862838  HIT:     147713  MISS:     715125
LLC LOAD      ACCESS:     654974  HIT:          4  MISS:     654970
LLC RFO       ACCESS:          0  HIT:          0  MISS:          0
LLC PREFETCH  ACCESS:          0  HIT:          0  MISS:          0
LLC WRITEBACK ACCESS:     207837  HIT:     147708  MISS:      60129
Heartbeat CPU 0 instructions: 92000001 cycles: 78683260 heartbeat IPC: 0.689755 cumulative IPC: 0.673077 (Simulation time: 1 hr 58 min 14 sec) 

Region of Interest Statistics
cpu0_DTLB TOTAL     ACCESS:   10753540  HIT:   10705743  MISS:      47797
cpu0_DTLB LOAD      ACCESS:    9478505  HIT:    9433372  MISS:      45133
cpu0_DTLB RFO       ACCESS:    1275035  HIT:    1272371  MISS:       2664
cpu0_DTLB PREFETCH  ACCESS:          0  HIT:          0  MISS:          0
cpu0_DTLB WRITEBACK ACCESS:          0  HIT:          0  MISS:          0
cpu0_ITLB TOTAL     ACCESS:     126444  HIT:     126444  MISS:          0
cpu0_ITLB LOAD      ACCESS:     126444  HIT:     126444  MISS:          0
cpu0_ITLB RFO       ACCESS:          0  HIT:          0  MISS:          0
cpu0_ITLB PREFETCH  ACCESS:          0  HIT:          0  MISS:          0
cpu0_ITLB WRITEBACK ACCESS:          0  HIT:          0  MISS:          0
cpu0_STLB TOTAL     ACCESS:      47797  HIT:      36325  MISS:      11472
cpu0_STLB LOAD      ACCESS:      45133  HIT:      33661  MISS:      11472
cpu0_STLB RFO       ACCESS:       2664  HIT:       2664  MISS:          0
cpu0_STLB PREFETCH  ACCESS:          0  HIT:          0  MISS:          0
cpu0_STLB WRITEBACK ACCESS:          0  HIT:          0  MISS:          0
cpu0_L1D TOTAL     ACCESS:   10675350  HIT:    9983588  MISS:     691762
cpu0_L1D LOAD      ACCESS:    8598642  HIT:    7910865  MISS:     687777
cpu0_L1D RFO       ACCESS:    2065238  HIT:    2065238  MISS:          0
cpu0_L1D PREFETCH  ACCESS:          0  HIT:          0  MISS:          0
cpu0_L1D WRITEBACK ACCESS:          0  HIT:          0  MISS:          0
cpu0_L2C TOTAL     ACCESS:     909854  HIT:     222114  MISS:     687740
cpu0_L2C LOAD      ACCESS:     687777  HIT:         66  MISS:     687711
cpu0_L2C RFO       ACCESS:          0  HIT:          0  MISS:          0
cpu0_L2C PREFETCH  ACCESS:          0  HIT:          0  MISS:          0
cpu0_L2C WRITEBACK ACCESS:     218092  HIT:     218090  MISS:          2
LLC TOTAL     ACCESS:     906115  HIT:     154930  MISS:     751185
LLC LOAD      ACCESS:     687711  HIT:          6  MISS:     687705
LLC RFO       ACCESS:          0  HIT:          0  MISS:          0
LLC PREFETCH  ACCESS:          0  HIT:          0  MISS:          0
LLC WRITEBACK ACCESS:     218377  HIT:     154923  MISS:      63454
Heartbeat CPU 0 instructions: 94000000 cycles: 81578268 heartbeat IPC: 0.690844 cumulative IPC: 0.673865 (Simulation time: 2 hr 1 min 55 sec) 

Region of Interest Statistics
cpu0_DTLB TOTAL     ACCESS:   11265742  HIT:   11217307  MISS:      48435
cpu0_DTLB LOAD      ACCESS:    9929530  HIT:    9883764  MISS:      45766
cpu0_DTLB RFO       ACCESS:    1336212  HIT:    1333543  MISS:       2669
cpu0_DTLB PREFETCH  ACCESS:          0  HIT:          0  MISS:          0
cpu0_DTLB WRITEBACK ACCESS:          0  HIT:          0  MISS:          0
cpu0_ITLB TOTAL     ACCESS:     132514  HIT:     132514  MISS:          0
cpu0_ITLB LOAD      ACCESS:     132514  HIT:     132514  MISS:          0
cpu0_ITLB RFO       ACCESS:          0  HIT:          0  MISS:          0
cpu0_ITLB PREFETCH  ACCESS:          0  HIT:          0  MISS:          0
cpu0_ITLB WRITEBACK ACCESS:          0  HIT:          0  MISS:          0
cpu0_STLB TOTAL     ACCESS:      48435  HIT:      36418  MISS:      12017
cpu0_STLB LOAD      ACCESS:      45766  HIT:      33749  MISS:      12017
cpu0_STLB RFO       ACCESS:       2669  HIT:       2669  MISS:          0
cpu0_STLB PREFETCH  ACCESS:          0  HIT:          0  MISS:          0
cpu0_STLB WRITEBACK ACCESS:          0  HIT:          0  MISS:          0
cpu0_L1D TOTAL     ACCESS:   11185461  HIT:   10460774  MISS:     724687
cpu0_L1D LOAD      ACCESS:    9009843  HIT:    8289317  MISS:     720526
cpu0_L1D RFO       ACCESS:    2163603  HIT:    2163603  MISS:          0
cpu0_L1D PREFETCH  ACCESS:          0  HIT:          0  MISS:          0
cpu0_L1D WRITEBACK ACCESS:          0  HIT:          0  MISS:          0
cpu0_L2C TOTAL     ACCESS:     953152  HIT:     232667  MISS:     720485
cpu0_L2C LOAD      ACCESS:     720526  HIT:         70  MISS:     720456
cpu0_L2C RFO       ACCESS:          0  HIT:          0  MISS:          0
cpu0_L2C PREFETCH  ACCESS:          0  HIT:          0  MISS:          0
cpu0_L2C WRITEBACK ACCESS:     228465  HIT:     228463  MISS:          2
LLC TOTAL     ACCESS:     949107  HIT:     162452  MISS:     786655
LLC LOAD      ACCESS:     720456  HIT:          6  MISS:     720450
LLC RFO       ACCESS:          0  HIT:          0  MISS:          0
LLC PREFETCH  ACCESS:          0  HIT:          0  MISS:          0
LLC WRITEBACK ACCESS:     228624  HIT:     162445  MISS:      66179
Heartbeat CPU 0 instructions: 96000002 cycles: 84452836 heartbeat IPC: 0.695757 cumulative IPC: 0.674788 (Simulation time: 2 hr 5 min 38 sec) 

Region of Interest Statistics
cpu0_DTLB TOTAL     ACCESS:   11777572  HIT:   11728535  MISS:      49037
cpu0_DTLB LOAD      ACCESS:   10380251  HIT:   10333886  MISS:      46365
cpu0_DTLB RFO       ACCESS:    1397321  HIT:    1394649  MISS:       2672
cpu0_DTLB PREFETCH  ACCESS:          0  HIT:          0  MISS:          0
cpu0_DTLB WRITEBACK ACCESS:          0  HIT:          0  MISS:          0
cpu0_ITLB TOTAL     ACCESS:     138525  HIT:     138525  MISS:          0
cpu0_ITLB LOAD      ACCESS:     138525  HIT:     138525  MISS:          0
cpu0_ITLB RFO       ACCESS:          0  HIT:          0  MISS:          0
cpu0_ITLB PREFETCH  ACCESS:          0  HIT:          0  MISS:          0
cpu0_ITLB WRITEBACK ACCESS:          0  HIT:          0  MISS:          0
cpu0_STLB TOTAL     ACCESS:      49037  HIT:      36477  MISS:      12560
cpu0_STLB LOAD      ACCESS:      46365  HIT:      33805  MISS:      12560
cpu0_STLB RFO       ACCESS:       2672  HIT:       2672  MISS:          0
cpu0_STLB PREFETCH  ACCESS:          0  HIT:          0  MISS:          0
cpu0_STLB WRITEBACK ACCESS:          0  HIT:          0  MISS:          0
cpu0_L1D TOTAL     ACCESS:   11695004  HIT:   10937404  MISS:     757600
cpu0_L1D LOAD      ACCESS:    9420514  HIT:    8667252  MISS:     753262
cpu0_L1D RFO       ACCESS:    2261932  HIT:    2261932  MISS:          0
cpu0_L1D PREFETCH  ACCESS:          0  HIT:          0  MISS:          0
cpu0_L1D WRITEBACK ACCESS:          0  HIT:          0  MISS:          0
cpu0_L2C TOTAL     ACCESS:     996440  HIT:     243217  MISS:     753223
cpu0_L2C LOAD      ACCESS:     753263  HIT:         70  MISS:     753193
cpu0_L2C RFO       ACCESS:          0  HIT:          0  MISS:          0
cpu0_L2C PREFETCH  ACCESS:          0  HIT:          0  MISS:          0
cpu0_L2C WRITEBACK ACCESS:     238839  HIT:     238837  MISS:          2
LLC TOTAL     ACCESS:     992226  HIT:     170030  MISS:     822196
LLC LOAD      ACCESS:     753193  HIT:          6  MISS:     753187
LLC RFO       ACCESS:          0  HIT:          0  MISS:          0
LLC PREFETCH  ACCESS:          0  HIT:          0  MISS:          0
LLC WRITEBACK ACCESS:     239005  HIT:     170023  MISS:      68982
Heartbeat CPU 0 instructions: 98000001 cycles: 87416151 heartbeat IPC: 0.674919 cumulative IPC: 0.674793 (Simulation time: 2 hr 9 min 29 sec) 

Region of Interest Statistics
cpu0_DTLB TOTAL     ACCESS:   12289984  HIT:   12240321  MISS:      49663
cpu0_DTLB LOAD      ACCESS:   10831416  HIT:   10784429  MISS:      46987
cpu0_DTLB RFO       ACCESS:    1458568  HIT:    1455892  MISS:       2676
cpu0_DTLB PREFETCH  ACCESS:          0  HIT:          0  MISS:          0
cpu0_DTLB WRITEBACK ACCESS:          0  HIT:          0  MISS:          0
cpu0_ITLB TOTAL     ACCESS:     144520  HIT:     144520  MISS:          0
cpu0_ITLB LOAD      ACCESS:     144520  HIT:     144520  MISS:          0
cpu0_ITLB RFO       ACCESS:          0  HIT:          0  MISS:          0
cpu0_ITLB PREFETCH  ACCESS:          0  HIT:          0  MISS:          0
cpu0_ITLB WRITEBACK ACCESS:          0  HIT:          0  MISS:          0
cpu0_STLB TOTAL     ACCESS:      49663  HIT:      36557  MISS:      13106
cpu0_STLB LOAD      ACCESS:      46987  HIT:      33881  MISS:      13106
cpu0_STLB RFO       ACCESS:       2676  HIT:       2676  MISS:          0
cpu0_STLB PREFETCH  ACCESS:          0  HIT:          0  MISS:          0
cpu0_STLB WRITEBACK ACCESS:          0  HIT:          0  MISS:          0
cpu0_L1D TOTAL     ACCESS:   12204377  HIT:   11413885  MISS:     790492
cpu0_L1D LOAD      ACCESS:    9831012  HIT:    9045016  MISS:     785996
cpu0_L1D RFO       ACCESS:    2360261  HIT:    2360261  MISS:          0
cpu0_L1D PREFETCH  ACCESS:          0  HIT:          0  MISS:          0
cpu0_L1D WRITEBACK ACCESS:          0  HIT:          0  MISS:          0
cpu0_L2C TOTAL     ACCESS:    1039733  HIT:     253776  MISS:     785957
cpu0_L2C LOAD      ACCESS:     785996  HIT:         70  MISS:     785926
cpu0_L2C RFO       ACCESS:          0  HIT:          0  MISS:          0
cpu0_L2C PREFETCH  ACCESS:          0  HIT:          0  MISS:          0
cpu0_L2C WRITEBACK ACCESS:     249241  HIT:     249239  MISS:          2
LLC TOTAL     ACCESS:    1035363  HIT:     177373  MISS:     857990
LLC LOAD      ACCESS:     785926  HIT:          6  MISS:     785920
LLC RFO       ACCESS:          0  HIT:          0  MISS:          0
LLC PREFETCH  ACCESS:          0  HIT:          0  MISS:          0
LLC WRITEBACK ACCESS:     249408  HIT:     177366  MISS:      72042
Heartbeat CPU 0 instructions: 100000002 cycles: 90308295 heartbeat IPC: 0.691529 cumulative IPC: 0.675447 (Simulation time: 2 hr 13 min 15 sec) 

Region of Interest Statistics
cpu0_DTLB TOTAL     ACCESS:   12802054  HIT:   12751703  MISS:      50351
cpu0_DTLB LOAD      ACCESS:   11282427  HIT:   11234758  MISS:      47669
cpu0_DTLB RFO       ACCESS:    1519627  HIT:    1516945  MISS:       2682
cpu0_DTLB PREFETCH  ACCESS:          0  HIT:          0  MISS:          0
cpu0_DTLB WRITEBACK ACCESS:          0  HIT:          0  MISS:          0
cpu0_ITLB TOTAL     ACCESS:     150534  HIT:     150534  MISS:          0
cpu0_ITLB LOAD      ACCESS:     150534  HIT:     150534  MISS:          0
cpu0_ITLB RFO       ACCESS:          0  HIT:          0  MISS:          0
cpu0_ITLB PREFETCH  ACCESS:          0  HIT:          0  MISS:          0
cpu0_ITLB WRITEBACK ACCESS:          0  HIT:          0  MISS:          0
cpu0_STLB TOTAL     ACCESS:      50351  HIT:      36702  MISS:      13649
cpu0_STLB LOAD      ACCESS:      47669  HIT:      34020  MISS:      13649
cpu0_STLB RFO       ACCESS:       2682  HIT:       2682  MISS:          0
cpu0_STLB PREFETCH  ACCESS:          0  HIT:          0  MISS:          0
cpu0_STLB WRITEBACK ACCESS:          0  HIT:          0  MISS:          0
cpu0_L1D TOTAL     ACCESS:   12710879  HIT:   11887457  MISS:     823422
cpu0_L1D LOAD      ACCESS:   10238639  HIT:    9419892  MISS:     818747
cpu0_L1D RFO       ACCESS:    2458593  HIT:    2458593  MISS:          0
cpu0_L1D PREFETCH  ACCESS:          0  HIT:          0  MISS:          0
cpu0_L1D WRITEBACK ACCESS:          0  HIT:          0  MISS:          0
cpu0_L2C TOTAL     ACCESS:    1083046  HIT:     264348  MISS:     818698
cpu0_L2C LOAD      ACCESS:     818747  HIT:         81  MISS:     818666
cpu0_L2C RFO       ACCESS:          0  HIT:          0  MISS:          0
cpu0_L2C PREFETCH  ACCESS:          0  HIT:          0  MISS:          0
cpu0_L2C WRITEBACK ACCESS:     259624  HIT:     259622  MISS:          2
LLC TOTAL     ACCESS:    1078434  HIT:     184781  MISS:     893653
LLC LOAD      ACCESS:     818666  HIT:          6  MISS:     818660
LLC RFO       ACCESS:          0  HIT:          0  MISS:          0
LLC PREFETCH  ACCESS:          0  HIT:          0  MISS:          0
LLC WRITEBACK ACCESS:     259738  HIT:     184774  MISS:      74964
Heartbeat CPU 0 instructions: 102000001 cycles: 93213646 heartbeat IPC: 0.688385 cumulative IPC: 0.675936 (Simulation time: 2 hr 16 min 53 sec) 

Region of Interest Statistics
cpu0_DTLB TOTAL     ACCESS:   13313962  HIT:   13263050  MISS:      50912
cpu0_DTLB LOAD      ACCESS:   11733236  HIT:   11685006  MISS:      48230
cpu0_DTLB RFO       ACCESS:    1580726  HIT:    1578044  MISS:       2682
cpu0_DTLB PREFETCH  ACCESS:          0  HIT:          0  MISS:          0
cpu0_DTLB WRITEBACK ACCESS:          0  HIT:          0  MISS:          0
cpu0_ITLB TOTAL     ACCESS:     156608  HIT:     156608  MISS:          0
cpu0_ITLB LOAD      ACCESS:     156608  HIT:     156608  MISS:          0
cpu0_ITLB RFO       ACCESS:          0  HIT:          0  MISS:          0
cpu0_ITLB PREFETCH  ACCESS:          0  HIT:          0  MISS:          0
cpu0_ITLB WRITEBACK ACCESS:          0  HIT:          0  MISS:          0
cpu0_STLB TOTAL     ACCESS:      50912  HIT:      36702  MISS:      14210
cpu0_STLB LOAD      ACCESS:      48230  HIT:      34020  MISS:      14210
cpu0_STLB RFO       ACCESS:       2682  HIT:       2682  MISS:          0
cpu0_STLB PREFETCH  ACCESS:          0  HIT:          0  MISS:          0
cpu0_STLB WRITEBACK ACCESS:          0  HIT:          0  MISS:          0
cpu0_L1D TOTAL     ACCESS:   13217016  HIT:   12360590  MISS:     856426
cpu0_L1D LOAD      ACCESS:   10645806  HIT:    9794224  MISS:     851582
cpu0_L1D RFO       ACCESS:    2557003  HIT:    2557003  MISS:          0
cpu0_L1D PREFETCH  ACCESS:          0  HIT:          0  MISS:          0
cpu0_L1D WRITEBACK ACCESS:          0  HIT:          0  MISS:          0
cpu0_L2C TOTAL     ACCESS:    1126450  HIT:     274933  MISS:     851517
cpu0_L2C LOAD      ACCESS:     851582  HIT:         99  MISS:     851483
cpu0_L2C RFO       ACCESS:          0  HIT:          0  MISS:          0
cpu0_L2C PREFETCH  ACCESS:          0  HIT:          0  MISS:          0
cpu0_L2C WRITEBACK ACCESS:     270024  HIT:     270022  MISS:          2
LLC TOTAL     ACCESS:    1121569  HIT:     191947  MISS:     929622
LLC LOAD      ACCESS:     851483  HIT:          6  MISS:     851477
LLC RFO       ACCESS:          0  HIT:          0  MISS:          0
LLC PREFETCH  ACCESS:          0  HIT:          0  MISS:          0
LLC WRITEBACK ACCESS:     270054  HIT:     191940  MISS:      78114
Heartbeat CPU 0 instructions: 104000001 cycles: 96095639 heartbeat IPC: 0.693964 cumulative IPC: 0.676587 (Simulation time: 2 hr 20 min 34 sec) 

Region of Interest Statistics
cpu0_DTLB TOTAL     ACCESS:   13828406  HIT:   13776950  MISS:      51456
cpu0_DTLB LOAD      ACCESS:   12187336  HIT:   12138562  MISS:      48774
cpu0_DTLB RFO       ACCESS:    1641070  HIT:    1638388  MISS:       2682
cpu0_DTLB PREFETCH  ACCESS:          0  HIT:          0  MISS:          0
cpu0_DTLB WRITEBACK ACCESS:          0  HIT:          0  MISS:          0
cpu0_ITLB TOTAL     ACCESS:     162635  HIT:     162635  MISS:          0
cpu0_ITLB LOAD      ACCESS:     162635  HIT:     162635  MISS:          0
cpu0_ITLB RFO       ACCESS:          0  HIT:          0  MISS:          0
cpu0_ITLB PREFETCH  ACCESS:          0  HIT:          0  MISS:          0
cpu0_ITLB WRITEBACK ACCESS:          0  HIT:          0  MISS:          0
cpu0_STLB TOTAL     ACCESS:      51456  HIT:      36702  MISS:      14754
cpu0_STLB LOAD      ACCESS:      48774  HIT:      34020  MISS:      14754
cpu0_STLB RFO       ACCESS:       2682  HIT:       2682  MISS:          0
cpu0_STLB PREFETCH  ACCESS:          0  HIT:          0  MISS:          0
cpu0_STLB WRITEBACK ACCESS:          0  HIT:          0  MISS:          0
cpu0_L1D TOTAL     ACCESS:   13724144  HIT:   12834814  MISS:     889330
cpu0_L1D LOAD      ACCESS:   11054059  HIT:   10169740  MISS:     884319
cpu0_L1D RFO       ACCESS:    2655334  HIT:    2655334  MISS:          0
cpu0_L1D PREFETCH  ACCESS:          0  HIT:          0  MISS:          0
cpu0_L1D WRITEBACK ACCESS:          0  HIT:          0  MISS:          0
cpu0_L2C TOTAL     ACCESS:    1169734  HIT:     285480  MISS:     884254
cpu0_L2C LOAD      ACCESS:     884319  HIT:         99  MISS:     884220
cpu0_L2C RFO       ACCESS:          0  HIT:          0  MISS:          0
cpu0_L2C PREFETCH  ACCESS:          0  HIT:          0  MISS:          0
cpu0_L2C WRITEBACK ACCESS:     280404  HIT:     280402  MISS:          2
LLC TOTAL     ACCESS:    1164745  HIT:     199590  MISS:     965155
LLC LOAD      ACCESS:     884220  HIT:          6  MISS:     884214
LLC RFO       ACCESS:          0  HIT:          0  MISS:          0
LLC PREFETCH  ACCESS:          0  HIT:          0  MISS:          0
LLC WRITEBACK ACCESS:     280493  HIT:     199583  MISS:      80910
Heartbeat CPU 0 instructions: 106000004 cycles: 99010036 heartbeat IPC: 0.686249 cumulative IPC: 0.676927 (Simulation time: 2 hr 24 min 14 sec) 

Region of Interest Statistics
cpu0_DTLB TOTAL     ACCESS:   14342683  HIT:   14290684  MISS:      51999
cpu0_DTLB LOAD      ACCESS:   12641310  HIT:   12591993  MISS:      49317
cpu0_DTLB RFO       ACCESS:    1701373  HIT:    1698691  MISS:       2682
cpu0_DTLB PREFETCH  ACCESS:          0  HIT:          0  MISS:          0
cpu0_DTLB WRITEBACK ACCESS:          0  HIT:          0  MISS:          0
cpu0_ITLB TOTAL     ACCESS:     168647  HIT:     168647  MISS:          0
cpu0_ITLB LOAD      ACCESS:     168647  HIT:     168647  MISS:          0
cpu0_ITLB RFO       ACCESS:          0  HIT:          0  MISS:          0
cpu0_ITLB PREFETCH  ACCESS:          0  HIT:          0  MISS:          0
cpu0_ITLB WRITEBACK ACCESS:          0  HIT:          0  MISS:          0
cpu0_STLB TOTAL     ACCESS:      51999  HIT:      36702  MISS:      15297
cpu0_STLB LOAD      ACCESS:      49317  HIT:      34020  MISS:      15297
cpu0_STLB RFO       ACCESS:       2682  HIT:       2682  MISS:          0
cpu0_STLB PREFETCH  ACCESS:          0  HIT:          0  MISS:          0
cpu0_STLB WRITEBACK ACCESS:          0  HIT:          0  MISS:          0
cpu0_L1D TOTAL     ACCESS:   14232646  HIT:   13310417  MISS:     922229
cpu0_L1D LOAD      ACCESS:   11463688  HIT:   10546631  MISS:     917057
cpu0_L1D RFO       ACCESS:    2753664  HIT:    2753664  MISS:          0
cpu0_L1D PREFETCH  ACCESS:          0  HIT:          0  MISS:          0
cpu0_L1D WRITEBACK ACCESS:          0  HIT:          0  MISS:          0
cpu0_L2C TOTAL     ACCESS:    1212996  HIT:     296000  MISS:     916996
cpu0_L2C LOAD      ACCESS:     917057  HIT:         99  MISS:     916958
cpu0_L2C RFO       ACCESS:          0  HIT:          0  MISS:          0
cpu0_L2C PREFETCH  ACCESS:          0  HIT:          0  MISS:          0
cpu0_L2C WRITEBACK ACCESS:     290767  HIT:     290765  MISS:          2
LLC TOTAL     ACCESS:    1208077  HIT:     206730  MISS:    1001347
LLC LOAD      ACCESS:     916958  HIT:          6  MISS:     916952
LLC RFO       ACCESS:          0  HIT:          0  MISS:          0
LLC PREFETCH  ACCESS:          0  HIT:          0  MISS:          0
LLC WRITEBACK ACCESS:     291083  HIT:     206723  MISS:      84360
Heartbeat CPU 0 instructions: 108000002 cycles: 101913949 heartbeat IPC: 0.688725 cumulative IPC: 0.677327 (Simulation time: 2 hr 27 min 54 sec) 

Region of Interest Statistics
cpu0_DTLB TOTAL     ACCESS:   14857079  HIT:   14804534  MISS:      52545
cpu0_DTLB LOAD      ACCESS:   13095372  HIT:   13045509  MISS:      49863
cpu0_DTLB RFO       ACCESS:    1761707  HIT:    1759025  MISS:       2682
cpu0_DTLB PREFETCH  ACCESS:          0  HIT:          0  MISS:          0
cpu0_DTLB WRITEBACK ACCESS:          0  HIT:          0  MISS:          0
cpu0_ITLB TOTAL     ACCESS:     174714  HIT:     174714  MISS:          0
cpu0_ITLB LOAD      ACCESS:     174714  HIT:     174714  MISS:          0
cpu0_ITLB RFO       ACCESS:          0  HIT:          0  MISS:          0
cpu0_ITLB PREFETCH  ACCESS:          0  HIT:          0  MISS:          0
cpu0_ITLB WRITEBACK ACCESS:          0  HIT:          0  MISS:          0
cpu0_STLB TOTAL     ACCESS:      52545  HIT:      36702  MISS:      15843
cpu0_STLB LOAD      ACCESS:      49863  HIT:      34020  MISS:      15843
cpu0_STLB RFO       ACCESS:       2682  HIT:       2682  MISS:          0
cpu0_STLB PREFETCH  ACCESS:          0  HIT:          0  MISS:          0
cpu0_STLB WRITEBACK ACCESS:          0  HIT:          0  MISS:          0
cpu0_L1D TOTAL     ACCESS:   14743377  HIT:   13788264  MISS:     955113
cpu0_L1D LOAD      ACCESS:   11875509  HIT:   10925714  MISS:     949795
cpu0_L1D RFO       ACCESS:    2852028  HIT:    2852028  MISS:          0
cpu0_L1D PREFETCH  ACCESS:          0  HIT:          0  MISS:          0
cpu0_L1D WRITEBACK ACCESS:          0  HIT:          0  MISS:          0
cpu0_L2C TOTAL     ACCESS:    1256274  HIT:     306539  MISS:     949735
cpu0_L2C LOAD      ACCESS:     949795  HIT:         99  MISS:     949696
cpu0_L2C RFO       ACCESS:          0  HIT:          0  MISS:          0
cpu0_L2C PREFETCH  ACCESS:          0  HIT:          0  MISS:          0
cpu0_L2C WRITEBACK ACCESS:     301161  HIT:     301159  MISS:          2
LLC TOTAL     ACCESS:    1251144  HIT:     214406  MISS:    1036738
LLC LOAD      ACCESS:     949696  HIT:          6  MISS:     949690
LLC RFO       ACCESS:          0  HIT:          0  MISS:          0
LLC PREFETCH  ACCESS:          0  HIT:          0  MISS:          0
LLC WRITEBACK ACCESS:     301411  HIT:     214399  MISS:      87012
Heartbeat CPU 0 instructions: 110000004 cycles: 104824788 heartbeat IPC: 0.687088 cumulative IPC: 0.677648 (Simulation time: 2 hr 31 min 40 sec) 

Region of Interest Statistics
cpu0_DTLB TOTAL     ACCESS:   15371058  HIT:   15317969  MISS:      53089
cpu0_DTLB LOAD      ACCESS:   13548993  HIT:   13498586  MISS:      50407
cpu0_DTLB RFO       ACCESS:    1822065  HIT:    1819383  MISS:       2682
cpu0_DTLB PREFETCH  ACCESS:          0  HIT:          0  MISS:          0
cpu0_DTLB WRITEBACK ACCESS:          0  HIT:          0  MISS:          0
cpu0_ITLB TOTAL     ACCESS:     180736  HIT:     180736  MISS:          0
cpu0_ITLB LOAD      ACCESS:     180736  HIT:     180736  MISS:          0
cpu0_ITLB RFO       ACCESS:          0  HIT:          0  MISS:          0
cpu0_ITLB PREFETCH  ACCESS:          0  HIT:          0  MISS:          0
cpu0_ITLB WRITEBACK ACCESS:          0  HIT:          0  MISS:          0
cpu0_STLB TOTAL     ACCESS:      53089  HIT:      36702  MISS:      16387
cpu0_STLB LOAD      ACCESS:      50407  HIT:      34020  MISS:      16387
cpu0_STLB RFO       ACCESS:       2682  HIT:       2682  MISS:          0
cpu0_STLB PREFETCH  ACCESS:          0  HIT:          0  MISS:          0
cpu0_STLB WRITEBACK ACCESS:          0  HIT:          0  MISS:          0
cpu0_L1D TOTAL     ACCESS:   15254625  HIT:   14266613  MISS:     988012
cpu0_L1D LOAD      ACCESS:   12287883  HIT:   11305352  MISS:     982531
cpu0_L1D RFO       ACCESS:    2950358  HIT:    2950358  MISS:          0
cpu0_L1D PREFETCH  ACCESS:          0  HIT:          0  MISS:          0
cpu0_L1D WRITEBACK ACCESS:          0  HIT:          0  MISS:          0
cpu0_L2C TOTAL     ACCESS:    1299570  HIT:     317098  MISS:     982472
cpu0_L2C LOAD      ACCESS:     982531  HIT:         99  MISS:     982432
cpu0_L2C RFO       ACCESS:          0  HIT:          0  MISS:          0
cpu0_L2C PREFETCH  ACCESS:          0  HIT:          0  MISS:          0
cpu0_L2C WRITEBACK ACCESS:     311558  HIT:     311556  MISS:          2
LLC TOTAL     ACCESS:    1294155  HIT:     221776  MISS:    1072379
LLC LOAD      ACCESS:     982432  HIT:          6  MISS:     982426
LLC RFO       ACCESS:          0  HIT:          0  MISS:          0
LLC PREFETCH  ACCESS:          0  HIT:          0  MISS:          0
LLC WRITEBACK ACCESS:     311685  HIT:     221769  MISS:      89916
Heartbeat CPU 0 instructions: 112000000 cycles: 107729416 heartbeat IPC: 0.688555 cumulative IPC: 0.677995 (Simulation time: 2 hr 35 min 22 sec) 

Region of Interest Statistics
cpu0_DTLB TOTAL     ACCESS:   15885469  HIT:   15831837  MISS:      53632
cpu0_DTLB LOAD      ACCESS:   14003098  HIT:   13952148  MISS:      50950
cpu0_DTLB RFO       ACCESS:    1882371  HIT:    1879689  MISS:       2682
cpu0_DTLB PREFETCH  ACCESS:          0  HIT:          0  MISS:          0
cpu0_DTLB WRITEBACK ACCESS:          0  HIT:          0  MISS:          0
cpu0_ITLB TOTAL     ACCESS:     186751  HIT:     186751  MISS:          0
cpu0_ITLB LOAD      ACCESS:     186751  HIT:     186751  MISS:          0
cpu0_ITLB RFO       ACCESS:          0  HIT:          0  MISS:          0
cpu0_ITLB PREFETCH  ACCESS:          0  HIT:          0  MISS:          0
cpu0_ITLB WRITEBACK ACCESS:          0  HIT:          0  MISS:          0
cpu0_STLB TOTAL     ACCESS:      53632  HIT:      36702  MISS:      16930
cpu0_STLB LOAD      ACCESS:      50950  HIT:      34020  MISS:      16930
cpu0_STLB RFO       ACCESS:       2682  HIT:       2682  MISS:          0
cpu0_STLB PREFETCH  ACCESS:          0  HIT:          0  MISS:          0
cpu0_STLB WRITEBACK ACCESS:          0  HIT:          0  MISS:          0
cpu0_L1D TOTAL     ACCESS:   15765314  HIT:   14744412  MISS:    1020902
cpu0_L1D LOAD      ACCESS:   12699700  HIT:   11684432  MISS:    1015268
cpu0_L1D RFO       ACCESS:    3048687  HIT:    3048687  MISS:          0
cpu0_L1D PREFETCH  ACCESS:          0  HIT:          0  MISS:          0
cpu0_L1D WRITEBACK ACCESS:          0  HIT:          0  MISS:          0
cpu0_L2C TOTAL     ACCESS:    1342850  HIT:     327641  MISS:    1015209
cpu0_L2C LOAD      ACCESS:    1015268  HIT:         99  MISS:    1015169
cpu0_L2C RFO       ACCESS:          0  HIT:          0  MISS:          0
cpu0_L2C PREFETCH  ACCESS:          0  HIT:          0  MISS:          0
cpu0_L2C WRITEBACK ACCESS:     321948  HIT:     321946  MISS:          2
LLC TOTAL     ACCESS:    1337407  HIT:     229244  MISS:    1108163
LLC LOAD      ACCESS:    1015169  HIT:          6  MISS:    1015163
LLC RFO       ACCESS:          0  HIT:          0  MISS:          0
LLC PREFETCH  ACCESS:          0  HIT:          0  MISS:          0
LLC WRITEBACK ACCESS:     322200  HIT:     229237  MISS:      92963
Heartbeat CPU 0 instructions: 114000003 cycles: 110627596 heartbeat IPC: 0.690089 cumulative IPC: 0.678366 (Simulation time: 2 hr 39 min 2 sec) 

Region of Interest Statistics
cpu0_DTLB TOTAL     ACCESS:   16400014  HIT:   16345837  MISS:      54177
cpu0_DTLB LOAD      ACCESS:   14457301  HIT:   14405806  MISS:      51495
cpu0_DTLB RFO       ACCESS:    1942713  HIT:    1940031  MISS:       2682
cpu0_DTLB PREFETCH  ACCESS:          0  HIT:          0  MISS:          0
cpu0_DTLB WRITEBACK ACCESS:          0  HIT:          0  MISS:          0
cpu0_ITLB TOTAL     ACCESS:     192777  HIT:     192777  MISS:          0
cpu0_ITLB LOAD      ACCESS:     192777  HIT:     192777  MISS:          0
cpu0_ITLB RFO       ACCESS:          0  HIT:          0  MISS:          0
cpu0_ITLB PREFETCH  ACCESS:          0  HIT:          0  MISS:          0
cpu0_ITLB WRITEBACK ACCESS:          0  HIT:          0  MISS:          0
cpu0_STLB TOTAL     ACCESS:      54177  HIT:      36702  MISS:      17475
cpu0_STLB LOAD      ACCESS:      51495  HIT:      34020  MISS:      17475
cpu0_STLB RFO       ACCESS:       2682  HIT:       2682  MISS:          0
cpu0_STLB PREFETCH  ACCESS:          0  HIT:          0  MISS:          0
cpu0_STLB WRITEBACK ACCESS:          0  HIT:          0  MISS:          0
cpu0_L1D TOTAL     ACCESS:   16276483  HIT:   15222665  MISS:    1053818
cpu0_L1D LOAD      ACCESS:   13111993  HIT:   12063987  MISS:    1048006
cpu0_L1D RFO       ACCESS:    3147018  HIT:    3147018  MISS:          0
cpu0_L1D PREFETCH  ACCESS:          0  HIT:          0  MISS:          0
cpu0_L1D WRITEBACK ACCESS:          0  HIT:          0  MISS:          0
cpu0_L2C TOTAL     ACCESS:    1386114  HIT:     338163  MISS:    1047951
cpu0_L2C LOAD      ACCESS:    1048006  HIT:         99  MISS:    1047907
cpu0_L2C RFO       ACCESS:          0  HIT:          0  MISS:          0
cpu0_L2C PREFETCH  ACCESS:          0  HIT:          0  MISS:          0
cpu0_L2C WRITEBACK ACCESS:     332296  HIT:     332294  MISS:          2
LLC TOTAL     ACCESS:    1380492  HIT:     236764  MISS:    1143728
LLC LOAD      ACCESS:    1047907  HIT:          6  MISS:    1047901
LLC RFO       ACCESS:          0  HIT:          0  MISS:          0
LLC PREFETCH  ACCESS:          0  HIT:          0  MISS:          0
LLC WRITEBACK ACCESS:     332543  HIT:     236756  MISS:      95787
Heartbeat CPU 0 instructions: 116000001 cycles: 113547998 heartbeat IPC: 0.684837 cumulative IPC: 0.67856 (Simulation time: 2 hr 42 min 46 sec) 

Region of Interest Statistics
cpu0_DTLB TOTAL     ACCESS:   16914363  HIT:   16859640  MISS:      54723
cpu0_DTLB LOAD      ACCESS:   14911332  HIT:   14859291  MISS:      52041
cpu0_DTLB RFO       ACCESS:    2003031  HIT:    2000349  MISS:       2682
[...]
LLC PREFETCH  ACCESS:          0  HIT:          0  MISS:          0
LLC WRITEBACK ACCESS:    8180815  HIT:    5538288  MISS:    2642527
Heartbeat CPU 0 instructions: 1550000004 cycles: 2307685313 heartbeat IPC: 0.546568 cumulative IPC: 0.654621 (Simulation time: 26 hr 0 min 0 sec) 

Region of Interest Statistics
cpu0_DTLB TOTAL     ACCESS:  411765474  HIT:  410020474  MISS:    1745000
cpu0_DTLB LOAD      ACCESS:  362346769  HIT:  360706400  MISS:    1640369
cpu0_DTLB RFO       ACCESS:   49418705  HIT:   49314074  MISS:     104631
cpu0_DTLB PREFETCH  ACCESS:          0  HIT:          0  MISS:          0
cpu0_DTLB WRITEBACK ACCESS:          0  HIT:          0  MISS:          0
cpu0_ITLB TOTAL     ACCESS:    7453445  HIT:    7453435  MISS:         10
cpu0_ITLB LOAD      ACCESS:    7453445  HIT:    7453435  MISS:         10
cpu0_ITLB RFO       ACCESS:          0  HIT:          0  MISS:          0
cpu0_ITLB PREFETCH  ACCESS:          0  HIT:          0  MISS:          0
cpu0_ITLB WRITEBACK ACCESS:          0  HIT:          0  MISS:          0
cpu0_L1I TOTAL     ACCESS:   19173391  HIT:   19173270  MISS:        121
cpu0_L1I LOAD      ACCESS:   19173391  HIT:   19173270  MISS:        121
cpu0_L1I RFO       ACCESS:          0  HIT:          0  MISS:          0
cpu0_L1I PREFETCH  ACCESS:          0  HIT:          0  MISS:          0
cpu0_L1I WRITEBACK ACCESS:          0  HIT:          0  MISS:          0
cpu0_STLB TOTAL     ACCESS:    1745010  HIT:     890478  MISS:     854532
cpu0_STLB LOAD      ACCESS:    1640379  HIT:     785865  MISS:     854514
cpu0_STLB RFO       ACCESS:     104631  HIT:     104613  MISS:         18
cpu0_STLB PREFETCH  ACCESS:          0  HIT:          0  MISS:          0
cpu0_STLB WRITEBACK ACCESS:          0  HIT:          0  MISS:          0
cpu0_L1D TOTAL     ACCESS:  417710044  HIT:  393131313  MISS:   24578731
cpu0_L1D LOAD      ACCESS:  339502047  HIT:  315049723  MISS:   24452324
cpu0_L1D RFO       ACCESS:   77386248  HIT:   77386230  MISS:         18
cpu0_L1D PREFETCH  ACCESS:          0  HIT:          0  MISS:          0
cpu0_L1D WRITEBACK ACCESS:          0  HIT:          0  MISS:          0
cpu0_L2C TOTAL     ACCESS:   32775548  HIT:    8323744  MISS:   24451804
cpu0_L2C LOAD      ACCESS:   24452445  HIT:       2263  MISS:   24450182
cpu0_L2C RFO       ACCESS:         18  HIT:          0  MISS:         18
cpu0_L2C PREFETCH  ACCESS:          0  HIT:          0  MISS:          0
cpu0_L2C WRITEBACK ACCESS:    8196696  HIT:    8196628  MISS:         68
LLC TOTAL     ACCESS:   32647463  HIT:    5547339  MISS:   27100124
LLC LOAD      ACCESS:   24450182  HIT:       1027  MISS:   24449155
LLC RFO       ACCESS:         18  HIT:         10  MISS:          8
LLC PREFETCH  ACCESS:          0  HIT:          0  MISS:          0
LLC WRITEBACK ACCESS:    8195727  HIT:    5546210  MISS:    2649517
Finished CPU 0 instructions: 1500000001 cycles: 2291402054 cumulative IPC: 0.654621 (Simulation time: 26 hr 0 min 0 sec) 

ChampSim completed all CPUs

Region of Interest Statistics

CPU 0 cumulative IPC: 0.654621 instructions: 1500000001 cycles: 2291402054
cpu0_DTLB TOTAL     ACCESS:  411765474  HIT:  410020474  MISS:    1745000
cpu0_DTLB LOAD      ACCESS:  362346769  HIT:  360706400  MISS:    1640369
cpu0_DTLB RFO       ACCESS:   49418705  HIT:   49314074  MISS:     104631
cpu0_DTLB PREFETCH  ACCESS:          0  HIT:          0  MISS:          0
cpu0_DTLB WRITEBACK ACCESS:          0  HIT:          0  MISS:          0
cpu0_DTLB TRANSLATION ACCESS:          0  HIT:          0  MISS:          0
cpu0_DTLB PREFETCH  REQUESTED:          0  ISSUED:          0  USEFUL:          0  USELESS:          0
cpu0_DTLB AVERAGE MISS LATENCY: 89.5329 cycles
cpu0_ITLB TOTAL     ACCESS:    7453445  HIT:    7453435  MISS:         10
cpu0_ITLB LOAD      ACCESS:    7453445  HIT:    7453435  MISS:         10
cpu0_ITLB RFO       ACCESS:          0  HIT:          0  MISS:          0
cpu0_ITLB PREFETCH  ACCESS:          0  HIT:          0  MISS:          0
cpu0_ITLB WRITEBACK ACCESS:          0  HIT:          0  MISS:          0
cpu0_ITLB TRANSLATION ACCESS:          0  HIT:          0  MISS:          0
cpu0_ITLB PREFETCH  REQUESTED:          0  ISSUED:          0  USEFUL:          0  USELESS:          0
cpu0_ITLB AVERAGE MISS LATENCY: 282 cycles
cpu0_L1I TOTAL     ACCESS:   19173391  HIT:   19173270  MISS:        121
cpu0_L1I LOAD      ACCESS:   19173391  HIT:   19173270  MISS:        121
cpu0_L1I RFO       ACCESS:          0  HIT:          0  MISS:          0
cpu0_L1I PREFETCH  ACCESS:          0  HIT:          0  MISS:          0
cpu0_L1I WRITEBACK ACCESS:          0  HIT:          0  MISS:          0
cpu0_L1I TRANSLATION ACCESS:          0  HIT:          0  MISS:          0
cpu0_L1I PREFETCH  REQUESTED:          0  ISSUED:          0  USEFUL:          0  USELESS:          0
cpu0_L1I AVERAGE MISS LATENCY: 369.19 cycles
cpu0_STLB TOTAL     ACCESS:    1745010  HIT:     890478  MISS:     854532
cpu0_STLB LOAD      ACCESS:    1640379  HIT:     785865  MISS:     854514
cpu0_STLB RFO       ACCESS:     104631  HIT:     104613  MISS:         18
cpu0_STLB PREFETCH  ACCESS:          0  HIT:          0  MISS:          0
cpu0_STLB WRITEBACK ACCESS:          0  HIT:          0  MISS:          0
cpu0_STLB TRANSLATION ACCESS:          0  HIT:          0  MISS:          0
cpu0_STLB PREFETCH  REQUESTED:          0  ISSUED:          0  USEFUL:          0  USELESS:          0
cpu0_STLB AVERAGE MISS LATENCY: 164.351 cycles
cpu0_L1D TOTAL     ACCESS:  417710044  HIT:  393131313  MISS:   24578731
cpu0_L1D LOAD      ACCESS:  339502047  HIT:  315049723  MISS:   24452324
cpu0_L1D RFO       ACCESS:   77386248  HIT:   77386230  MISS:         18
cpu0_L1D PREFETCH  ACCESS:          0  HIT:          0  MISS:          0
cpu0_L1D WRITEBACK ACCESS:          0  HIT:          0  MISS:          0
cpu0_L1D TRANSLATION ACCESS:     821749  HIT:     695360  MISS:     126389
cpu0_L1D PREFETCH  REQUESTED:          0  ISSUED:          0  USEFUL:          0  USELESS:          0
cpu0_L1D AVERAGE MISS LATENCY: 454.35 cycles
cpu0_L2C TOTAL     ACCESS:   32775548  HIT:    8323744  MISS:   24451804
cpu0_L2C LOAD      ACCESS:   24452445  HIT:       2263  MISS:   24450182
cpu0_L2C RFO       ACCESS:         18  HIT:          0  MISS:         18
cpu0_L2C PREFETCH  ACCESS:          0  HIT:          0  MISS:          0
cpu0_L2C WRITEBACK ACCESS:    8196696  HIT:    8196628  MISS:         68
cpu0_L2C TRANSLATION ACCESS:     126389  HIT:     124853  MISS:       1536
cpu0_L2C PREFETCH  REQUESTED:          0  ISSUED:          0  USEFUL:          0  USELESS:          0
cpu0_L2C AVERAGE MISS LATENCY: 445.625 cycles
LLC TOTAL     ACCESS:   32647463  HIT:    5547339  MISS:   27100124
LLC LOAD      ACCESS:   24450182  HIT:       1027  MISS:   24449155
LLC RFO       ACCESS:         18  HIT:         10  MISS:          8
LLC PREFETCH  ACCESS:          0  HIT:          0  MISS:          0
LLC WRITEBACK ACCESS:    8195727  HIT:    5546210  MISS:    2649517
LLC TRANSLATION ACCESS:       1536  HIT:         92  MISS:       1444
LLC PREFETCH  REQUESTED:          0  ISSUED:          0  USEFUL:          0  USELESS:          0
LLC AVERAGE MISS LATENCY: 383.129 cycles
~~~~~~~~~~Reuse Distance Profiler output~~~~~~~~~~
0	26104432	5949856
1	13410704	7037952
2	14185648	9749776
3	17019728	13168096
4	16999136	14118352
5	16970464	14629744
6	15826704	14351328
7	14363360	12859888
8	12162512	10957952
9	11985680	10764656
10	11468752	10112704
11	11265392	9788336
12	10847072	9290592
13	10669040	9153312
14	9152512	7915184
15	8460448	7218976
16	8141360	7043536
17	7235296	6234912
18	7554032	6570128
19	7085088	5824160
20	7037504	5498000
21	6610992	5209760
22	6176640	4855632
23	5998096	4819456
24	5911552	4802384
25	5563184	4530272
26	5466704	4703616
27	5079632	4497280
28	4686480	4134400
29	4671840	4164464
30	4373120	3847024
31	4088560	3526496
32	3823776	3267040
33	3922416	3321632
34	3730000	3160880
35	3574240	3039200
36	3559136	3023808
37	3491984	2997040
38	3311936	2853104
39	3282064	2844304
40	3191856	2778720
41	3136368	2734880
42	2936256	2539776
43	2692240	2353952
44	2480432	2172304
45	2201024	1880912
46	2019456	1710864
47	1864144	1546368
48	1676112	1388304
49	1573936	1299136
50	1430672	1179056
51	1322560	1106080
52	1199136	1009296
53	1125152	950336
54	1072816	936256
55	970032	838160
56	920720	801984
57	880288	755920
58	782464	685200
59	752080	663856
60	734144	648528
61	669152	588336
62	633584	554592
63	608432	526816
64	1122160	969680
66	971424	860512
68	897472	799680
70	885056	798224
72	818160	748464
74	763632	695648
76	673072	606560
78	633088	576512
80	606640	559024
82	541424	486256
84	520128	473232
86	448096	405712
88	401472	361872
90	341120	306400
92	314128	283344
94	278560	249360
96	241520	217936
98	243376	218848
100	216640	194800
102	233600	215008
104	246032	230768
106	220720	213696
108	209712	197328
110	202464	195744
112	193280	185936
114	183168	175568
116	188816	181680
118	184800	178320
120	187472	177248
122	175120	170768
124	172960	169232
126	174656	171952
128	326192	321472
132	262352	260016
136	230000	229152
140	202688	201040
144	185648	185376
148	148384	148352
152	134352	134352
156	135824	135824
160	143136	143136
164	139712	139712
168	145472	145472
172	120480	120480
176	121584	121584
180	113744	113744
184	101808	101808
188	87216	87216
192	61264	61264
196	52240	52240
200	57616	57616
204	48816	48816
208	40336	40336
212	35808	35808
216	34256	34256
220	32352	32352
224	27216	27216
228	29680	29680
232	29920	29920
236	28096	28096
240	27824	27824
244	29056	29056
248	27792	27792
252	29184	29184
256	73952	73952
264	75904	75904
272	82016	82016
280	83952	83952
288	68096	68096
296	59552	59552
304	51344	51344
312	38432	38432
320	34352	34352
328	24560	24560
336	32432	32432
344	43104	43104
352	42688	42688
360	35680	35680
368	34480	34480
376	31600	31600
384	30352	30352
392	29968	29968
400	28400	28400
408	20432	20432
416	13968	13968
424	14656	14656
432	18096	18096
440	19568	19568
448	19360	19360
456	23120	23120
464	25088	25088
472	30656	30656
480	35248	35248
488	30768	30768
496	25424	25424
504	21328	21328
512	41024	41024
528	32896	32896
544	39216	39216
560	36912	36912
576	65968	65968
592	139504	139504
608	141440	141440
624	123552	123552
640	86224	86224
656	107008	107008
672	131984	131984
688	116304	116304
704	87344	87344
720	49472	49472
736	29568	29568
752	10848	10848
768	4624	4624
784	3824	3824
800	7360	7360
816	12656	12656
832	20800	20800
848	26128	26128
864	29136	29136
880	22544	22544
896	15536	15536
912	9904	9904
928	9728	9728
944	9952	9952
960	8400	8400
976	5696	5696
992	3328	3328
1008	2336	2336
1024	4016	4016
1056	3344	3344
1088	2880	2880
1120	3392	3392
1152	4016	4016
1184	1744	1744
1216	608	608
1248	192	192
1280	2480	2480
1312	8272	8272
1344	7888	7888
1376	5152	5152
1408	9200	9200
1440	12864	12864
1472	7056	7056
1504	1312	1312
1536	224	224
1568	96	96
1600	80	80
1632	496	496
1664	288	288
1696	64	64
1728	768	768
1760	752	752
1792	48	48
1824	16	16
1856	16	16
1888	64	64
1920	0	0
1952	0	0
1984	0	0
2016	0	0
2048	0	0
2112	0	0
2176	0	0
2240	0	0
2304	0	0
2368	0	0
2432	0	0
2496	0	0
2560	0	0
2624	0	0
2688	0	0
2752	0	0
2816	0	0
2880	0	0
2944	0	0
3008	0	0
3072	0	0
3136	0	0
3200	0	0
3264	0	0
3328	0	0
3392	16	16
3456	3184	3184
3520	27136	27136
3584	34608	34608
3648	10896	10896
3712	640	640
3776	16	16
3840	0	0
3904	0	0
3968	0	0
4032	0	0
4096	29040	29040
4224	1521920	1521920
4352	2983936	2983936
4480	467776	467776
4608	6816	6816
4736	16	16
4864	16	16
4992	0	0
5120	68880	68880
5248	115856	115856
5376	5968	5968
5504	0	0
5632	0	0
5760	0	0
5888	0	0
6016	0	0
6144	0	0
6272	0	0
6400	0	0
6528	0	0
6656	0	0
6784	0	0
6912	0	0
7040	0	0
7168	0	0
7296	0	0
7424	0	0
7552	0	0
7680	0	0
7808	0	0
7936	0	0
8064	0	0
8192	0	0
8448	0	0
8704	0	0
8960	0	0
9216	80	80
9472	176	176
9728	0	0
9984	0	0
10240	0	0
10496	0	0
10752	0	0
11008	0	0
11264	0	0
11520	0	0
11776	0	0
12032	0	0
12288	0	0
12544	0	0
12800	0	0
13056	0	0
13312	0	0
13568	0	0
13824	16	16
14080	32	32
14336	0	0
14592	0	0
14848	0	0
15104	0	0
15360	0	0
15616	0	0
15872	0	0
16128	0	0
16384	0	0
16896	0	0
17408	0	0
17920	0	0
18432	32	32
18944	0	0
19456	0	0
19968	0	0
20480	0	0
20992	0	0
21504	0	0
22016	0	0
22528	0	0
23040	0	0
23552	0	0
24064	0	0
24576	0	0
25088	0	0
25600	0	0
26112	0	0
26624	0	0
27136	0	0
27648	0	0
28160	0	0
28672	0	0
29184	0	0
29696	0	0
30208	0	0
30720	0	0
31232	0	0
31744	0	0
32256	0	0
32768	0	0
33792	0	0
34816	0	0
35840	0	0
36864	0	0
37888	0	0
38912	0	0
39936	0	0
40960	0	0
41984	0	0
43008	0	0
44032	16	0
45056	0	0
46080	0	0
47104	0	0
48128	0	0
49152	0	0
50176	0	0
51200	0	0
52224	0	0
53248	0	0
54272	0	0
55296	0	0
56320	0	0
57344	0	0
58368	0	0
59392	0	0
60416	0	0
61440	0	0
62464	0	0
63488	0	0
64512	0	0
65536	0	0
67584	0	0
69632	0	0
71680	0	0
73728	0	0
75776	0	0
77824	0	0
79872	0	0
81920	0	0
83968	0	0
86016	0	0
88064	0	0
90112	0	0
92160	0	0
94208	0	0
96256	0	0
98304	0	0
100352	0	0
102400	0	0
104448	0	0
106496	0	0
108544	0	0
110592	0	0
112640	0	0
114688	0	0
116736	0	0
118784	0	0
120832	0	0
122880	0	0
124928	0	0
126976	0	0
129024	0	0
131072	0	0
135168	0	0
139264	0	0
143360	0	0
147456	0	0
151552	0	0
155648	0	0
159744	0	0
163840	0	0
167936	0	0
172032	0	0
176128	0	0
180224	0	0
184320	0	0
188416	0	0
192512	0	0
196608	0	0
200704	0	0
204800	0	0
208896	0	0
212992	0	0
217088	0	0
221184	0	0
225280	0	0
229376	0	0
233472	0	0
237568	0	0
241664	0	0
245760	0	0
249856	0	0
253952	0	0
258048	0	0
262144	0	0
270336	0	0
278528	0	0
286720	0	0
294912	0	0
303104	0	0
311296	0	0
319488	0	0
327680	0	0
335872	0	0
344064	0	0
352256	0	0
360448	0	0
368640	0	0
376832	0	0
385024	0	0
393216	0	0
401408	0	0
409600	0	0
417792	0	0
425984	0	0
434176	0	0
442368	0	0
450560	0	0
458752	0	0
466944	0	0
475136	0	0
483328	0	0
491520	0	0
499712	0	0
507904	0	0
516096	0	0
524288	0	0
540672	0	0
557056	0	0
573440	0	0
589824	0	0
606208	0	0
622592	0	0
638976	0	0
655360	141584	141584
671744	430528	430528
688128	0	0
704512	0	0
720896	0	0
737280	0	0
753664	0	0
770048	0	0
786432	0	0
802816	0	0
819200	0	0
835584	0	0
851968	0	0
868352	0	0
884736	0	0
901120	0	0
917504	0	0
933888	0	0
950272	0	0
966656	0	0
983040	0	0
999424	0	0
1015808	0	0
1032192	0	0
1048576	0	0
1081344	0	0
1114112	0	0
1146880	0	0
1179648	0	0
1212416	0	0
1245184	0	0
1277952	0	0
1310720	0	0
1343488	0	0
1376256	0	0
1409024	0	0
1441792	0	0
1474560	0	0
1507328	0	0
1540096	0	0
1572864	0	0
1605632	0	0
1638400	0	0
1671168	0	0
1703936	0	0
1736704	0	0
1769472	0	0
1802240	0	0
1835008	0	0
1867776	0	0
1900544	0	0
1933312	0	0
1966080	0	0
1998848	0	0
2031616	0	0
2064384	0	0
2097152	0	0
2162688	0	0
2228224	0	0
2293760	0	0
2359296	0	0
2424832	0	0
2490368	0	0
2555904	0	0
2621440	0	0
2686976	0	0
2752512	0	0
2818048	0	0
2883584	0	0
2949120	0	0
3014656	0	0
3080192	0	0
3145728	0	0
3211264	0	0
3276800	0	0
3342336	0	0
3407872	0	0
3473408	0	0
3538944	0	0
3604480	0	0
3670016	0	0
3735552	0	0
3801088	0	0
3866624	0	0
3932160	0	0
3997696	0	0
4063232	0	0
4128768	26352	26352
4194304	4484624	4484624
4325376	9104	9104
4456448	9312	9312
4587520	9280	9280
4718592	8752	8752
4849664	8688	8688
4980736	122560	122560
5111808	0	0
5242880	0	0
5373952	0	0
5505024	0	0
5636096	0	0
5767168	0	0
5898240	0	0
6029312	0	0
6160384	0	0
6291456	0	0
6422528	0	0
6553600	0	0
6684672	0	0
6815744	0	0
6946816	0	0
7077888	0	0
7208960	0	0
7340032	0	0
7471104	0	0
7602176	0	0
7733248	0	0
7864320	0	0
7995392	0	0
8126464	0	0
8257536	0	0
8388608	48	48
8650752	0	0
8912896	0	0
9175040	0	0
9437184	0	0
9699328	0	0
9961472	0	0
10223616	0	0
10485760	0	0
10747904	0	0
11010048	0	0
11272192	0	0
11534336	0	0
11796480	0	0
12058624	0	0
12320768	0	0
12582912	0	0
12845056	0	0
13107200	0	0
13369344	0	0
13631488	0	0
13893632	0	0
14155776	0	0
14417920	0	0
14680064	0	0
14942208	0	0
15204352	0	0
15466496	0	0
15728640	0	0
15990784	0	0
16252928	0	0
16515072	0	0
16777216	48	48
17301504	0	0
17825792	0	0
18350080	0	0
18874368	0	0
19398656	0	0
19922944	0	0
20447232	0	0
20971520	80	80
21495808	0	0
22020096	0	0
22544384	0	0
23068672	0	0
23592960	0	0
24117248	0	0
24641536	0	0
25165824	16	16
25690112	0	0
26214400	0	0
26738688	0	0
27262976	16	16
27787264	0	0
28311552	0	0
28835840	16	16
29360128	48	48
29884416	0	0
30408704	0	0
30932992	0	0
31457280	0	0
31981568	0	0
32505856	0	0
33030144	0	0
33554432	48	48
34603008	0	0
35651584	0	0
36700160	0	0
37748736	48	48
38797312	0	0
39845888	0	0
40894464	0	0
41943040	32	32
42991616	16	16
44040192	0	0
45088768	0	0
46137344	48	48
47185920	0	0
48234496	0	0
49283072	16	16
50331648	32	32
51380224	0	0
52428800	0	0
53477376	0	0
54525952	32	32
55574528	0	0
56623104	0	0
57671680	0	0
58720256	16	16
59768832	0	0
60817408	0	0
61865984	0	0
62914560	48	48
63963136	0	0
65011712	0	0
66060288	0	0
67108864	32	32
69206016	0	0
71303168	0	0
73400320	0	0
75497472	16	16
77594624	0	0
79691776	0	0
81788928	0	0
83886080	48	48
85983232	0	0
88080384	48	48
90177536	0	0
92274688	32	32
94371840	0	0
96468992	16	16
98566144	0	0
100663296	32	32
102760448	0	0
104857600	16	16
106954752	0	0
109051904	48	48
111149056	0	0
113246208	48	48
115343360	0	0
117440512	16	16
119537664	0	0
121634816	48	48
123731968	0	0
125829120	0	0
127926272	0	0
130023424	48	48
132120576	0	0
134217728	16	16
138412032	48	48
142606336	48	48
146800640	32	32
150994944	16	16
155189248	32	32
159383552	32	32
163577856	32	32
167772160	32	32
171966464	48	48
176160768	32	32
180355072	16	16
184549376	32	32
188743680	0	0
192937984	48	48
197132288	0	0
201326592	32	32
205520896	16	16
209715200	16	16
213909504	80	80
218103808	0	0
222298112	32	32
226492416	48	48
230686720	32	32
234881024	16	16
239075328	48	48
243269632	16	16
247463936	64	64
251658240	32	32
255852544	48	48
260046848	32	32
264241152	32	32
268435456	80	80
276824064	80	80
285212672	16	16
293601280	80	80
301989888	48	48
310378496	64	64
318767104	0	0
327155712	32	32
335544320	64	64
343932928	0	0
352321536	0	0
360710144	0	0
369098752	0	0
377487360	0	0
385875968	0	0
394264576	0	0
402653184	0	0
411041792	0	0
419430400	0	0
427819008	0	0
436207616	0	0
444596224	0	0
452984832	0	0
461373440	0	0
469762048	0	0
478150656	0	0
486539264	0	0
494927872	0	0
503316480	0	0
511705088	0	0
520093696	0	0
528482304	0	0
536870912	0	0
553648128	0	0
570425344	0	0
587202560	0	0
603979776	0	0
620756992	0	0
637534208	0	0
654311424	0	0
671088640	0	0
687865856	0	0
704643072	0	0
721420288	0	0
738197504	0	0
754974720	0	0
771751936	0	0
788529152	0	0
805306368	0	0
822083584	0	0
838860800	0	0
855638016	0	0
872415232	0	0
889192448	0	0
905969664	0	0
922746880	0	0
939524096	0	0
956301312	0	0
973078528	0	0
989855744	0	0
1006632960	0	0
1023410176	0	0
1040187392	0	0
1056964608	0	0
1073741824	0	0
1107296256	0	0
1140850688	0	0
1174405120	0	0
1207959552	0	0
1241513984	0	0
1275068416	0	0
1308622848	0	0
1342177280	0	0
1375731712	0	0
1409286144	0	0
1442840576	0	0
1476395008	0	0
1509949440	0	0
1543503872	0	0
1577058304	0	0
1610612736	0	0
1644167168	0	0
1677721600	0	0
1711276032	0	0
1744830464	0	0
1778384896	0	0
1811939328	0	0
1845493760	0	0
1879048192	0	0
1912602624	0	0
1946157056	0	0
1979711488	0	0
2013265920	0	0
2046820352	0	0
2080374784	0	0
2113929216	0	0
2147483648	0	0
2214592512	0	0
2281701376	0	0
2348810240	0	0
2415919104	0	0
2483027968	0	0
2550136832	0	0
2617245696	0	0
2684354560	0	0
2751463424	0	0
2818572288	0	0
2885681152	0	0
2952790016	0	0
3019898880	0	0
3087007744	0	0
3154116608	0	0
3221225472	0	0
3288334336	0	0
3355443200	0	0
3422552064	0	0
3489660928	0	0
3556769792	0	0
3623878656	0	0
3690987520	0	0
3758096384	0	0
3825205248	0	0
3892314112	0	0
3959422976	0	0
4026531840	0	0
4093640704	0	0
4160749568	0	0
4227858432	0	0
~~~~~~~~~~Reuse Distance Profiler output end~~~~~~~~~~

Sampler size:1251216

DRAM Statistics
 CHANNEL 0
 RQ ROW_BUFFER_HIT:     116229  ROW_BUFFER_MISS:   24334376
 DBUS AVG_CONGESTED_CYCLE:    3.97905
 WQ ROW_BUFFER_HIT:      62444  ROW_BUFFER_MISS:    8131832  FULL:          0


CPU 0 Branch Prediction Accuracy: 96.4224% MPKI: 0.254203 Average ROB Occupancy at Mispredict: 335.713
Branch type MPKI
BRANCH_DIRECT_JUMP: 3.33333e-06
BRANCH_INDIRECT: 0
BRANCH_CONDITIONAL: 0.254193
BRANCH_DIRECT_CALL: 3.33333e-06
BRANCH_INDIRECT_CALL: 0
BRANCH_RETURN: 3.33333e-06

