
*** ChampSim Multicore Out-of-Order Simulator ***

Warmup Instructions: 50000000
Simulation Instructions: 1500000000
Number of CPUs: 1
Off-chip DRAM Size: 4 GiB Channels: 1 Width: 64-bit Data Rate: 3200 MT/s

VirtualMemory physical capacity: 8588881920 num_ppages: 2096895
VirtualMemory page size: 4096 log2_page_size: 12

CPU 0 runs /s/traces/champsim_traces/654.roms_s-1021B.champsimtrace.xz
CPU 0 Bimodal branch predictor
Basic BTB sets: 1024 ways: 8 indirect buffer size: 4096 RAS size: 64
Initializing LRU.
Initializing LRU.
Initializing LRU.
Initializing LRU.
Initializing rdLRU.
Initializing LRU.
Heartbeat CPU 0 instructions: 2000003 cycles: 500074 heartbeat IPC: 3.99941 cumulative IPC: 3.99941 (Simulation time: 0 hr 0 min 32 sec) 
Heartbeat CPU 0 instructions: 4000003 cycles: 1000074 heartbeat IPC: 4 cumulative IPC: 3.99971 (Simulation time: 0 hr 1 min 8 sec) 
Heartbeat CPU 0 instructions: 6000003 cycles: 1500074 heartbeat IPC: 4 cumulative IPC: 3.9998 (Simulation time: 0 hr 1 min 45 sec) 
Heartbeat CPU 0 instructions: 8000003 cycles: 2000074 heartbeat IPC: 4 cumulative IPC: 3.99985 (Simulation time: 0 hr 2 min 20 sec) 
Heartbeat CPU 0 instructions: 10000003 cycles: 2500074 heartbeat IPC: 4 cumulative IPC: 3.99988 (Simulation time: 0 hr 2 min 56 sec) 
Heartbeat CPU 0 instructions: 12000003 cycles: 3000074 heartbeat IPC: 4 cumulative IPC: 3.9999 (Simulation time: 0 hr 3 min 32 sec) 
Heartbeat CPU 0 instructions: 14000003 cycles: 3500074 heartbeat IPC: 4 cumulative IPC: 3.99992 (Simulation time: 0 hr 4 min 8 sec) 
Heartbeat CPU 0 instructions: 16000003 cycles: 4000074 heartbeat IPC: 4 cumulative IPC: 3.99993 (Simulation time: 0 hr 4 min 43 sec) 
Heartbeat CPU 0 instructions: 18000003 cycles: 4500074 heartbeat IPC: 4 cumulative IPC: 3.99993 (Simulation time: 0 hr 5 min 19 sec) 
Heartbeat CPU 0 instructions: 20000003 cycles: 5000074 heartbeat IPC: 4 cumulative IPC: 3.99994 (Simulation time: 0 hr 5 min 56 sec) 
Heartbeat CPU 0 instructions: 22000003 cycles: 5500074 heartbeat IPC: 4 cumulative IPC: 3.99995 (Simulation time: 0 hr 6 min 31 sec) 
Heartbeat CPU 0 instructions: 24000003 cycles: 6000074 heartbeat IPC: 4 cumulative IPC: 3.99995 (Simulation time: 0 hr 7 min 6 sec) 
Heartbeat CPU 0 instructions: 26000003 cycles: 6500074 heartbeat IPC: 4 cumulative IPC: 3.99995 (Simulation time: 0 hr 7 min 43 sec) 
Heartbeat CPU 0 instructions: 28000003 cycles: 7000074 heartbeat IPC: 4 cumulative IPC: 3.99996 (Simulation time: 0 hr 8 min 19 sec) 
Heartbeat CPU 0 instructions: 30000003 cycles: 7500074 heartbeat IPC: 4 cumulative IPC: 3.99996 (Simulation time: 0 hr 8 min 56 sec) 
Heartbeat CPU 0 instructions: 32000003 cycles: 8000074 heartbeat IPC: 4 cumulative IPC: 3.99996 (Simulation time: 0 hr 9 min 32 sec) 
Heartbeat CPU 0 instructions: 34000003 cycles: 8500074 heartbeat IPC: 4 cumulative IPC: 3.99997 (Simulation time: 0 hr 10 min 9 sec) 
Heartbeat CPU 0 instructions: 36000003 cycles: 9000074 heartbeat IPC: 4 cumulative IPC: 3.99997 (Simulation time: 0 hr 10 min 46 sec) 
Heartbeat CPU 0 instructions: 38000003 cycles: 9500074 heartbeat IPC: 4 cumulative IPC: 3.99997 (Simulation time: 0 hr 11 min 23 sec) 
Heartbeat CPU 0 instructions: 40000003 cycles: 10000074 heartbeat IPC: 4 cumulative IPC: 3.99997 (Simulation time: 0 hr 11 min 59 sec) 
Heartbeat CPU 0 instructions: 42000003 cycles: 10500074 heartbeat IPC: 4 cumulative IPC: 3.99997 (Simulation time: 0 hr 12 min 36 sec) 
Heartbeat CPU 0 instructions: 44000003 cycles: 11000074 heartbeat IPC: 4 cumulative IPC: 3.99997 (Simulation time: 0 hr 13 min 11 sec) 
Heartbeat CPU 0 instructions: 46000003 cycles: 11500074 heartbeat IPC: 4 cumulative IPC: 3.99997 (Simulation time: 0 hr 13 min 48 sec) 
Heartbeat CPU 0 instructions: 48000003 cycles: 12000074 heartbeat IPC: 4 cumulative IPC: 3.99998 (Simulation time: 0 hr 14 min 24 sec) 
Heartbeat CPU 0 instructions: 50000003 cycles: 12500074 heartbeat IPC: 4 cumulative IPC: 3.99998 (Simulation time: 0 hr 15 min 0 sec) 

Warmup complete CPU 0 instructions: 50000003 cycles: 12500074 (Simulation time: 0 hr 15 min 0 sec) 

Heartbeat CPU 0 instructions: 52000001 cycles: 14051454 heartbeat IPC: 1.28917 cumulative IPC: 1.28917 (Simulation time: 0 hr 15 min 36 sec) 

Region of Interest Statistics
cpu0_DTLB TOTAL     ACCESS:     288368  HIT:     287827  MISS:        541
cpu0_DTLB LOAD      ACCESS:     213823  HIT:     213340  MISS:        483
cpu0_DTLB RFO       ACCESS:      74545  HIT:      74487  MISS:         58
cpu0_DTLB PREFETCH  ACCESS:          0  HIT:          0  MISS:          0
cpu0_DTLB WRITEBACK ACCESS:          0  HIT:          0  MISS:          0
cpu0_ITLB TOTAL     ACCESS:     225724  HIT:     225724  MISS:          0
cpu0_ITLB LOAD      ACCESS:     225724  HIT:     225724  MISS:          0
cpu0_ITLB RFO       ACCESS:          0  HIT:          0  MISS:          0
cpu0_ITLB PREFETCH  ACCESS:          0  HIT:          0  MISS:          0
cpu0_ITLB WRITEBACK ACCESS:          0  HIT:          0  MISS:          0
cpu0_L1I TOTAL     ACCESS:      22806  HIT:      22806  MISS:          0
cpu0_L1I LOAD      ACCESS:      22806  HIT:      22806  MISS:          0
cpu0_L1I RFO       ACCESS:          0  HIT:          0  MISS:          0
cpu0_L1I PREFETCH  ACCESS:          0  HIT:          0  MISS:          0
cpu0_L1I WRITEBACK ACCESS:          0  HIT:          0  MISS:          0
cpu0_STLB TOTAL     ACCESS:        541  HIT:        541  MISS:          0
cpu0_STLB LOAD      ACCESS:        483  HIT:        483  MISS:          0
cpu0_STLB RFO       ACCESS:         58  HIT:         58  MISS:          0
cpu0_STLB PREFETCH  ACCESS:          0  HIT:          0  MISS:          0
cpu0_STLB WRITEBACK ACCESS:          0  HIT:          0  MISS:          0
cpu0_L1D TOTAL     ACCESS:     383540  HIT:     383436  MISS:        104
cpu0_L1D LOAD      ACCESS:     247903  HIT:     247810  MISS:         93
cpu0_L1D RFO       ACCESS:     135637  HIT:     135626  MISS:         11
cpu0_L1D PREFETCH  ACCESS:          0  HIT:          0  MISS:          0
cpu0_L1D WRITEBACK ACCESS:          0  HIT:          0  MISS:          0
cpu0_L2C TOTAL     ACCESS:        114  HIT:         32  MISS:         82
cpu0_L2C LOAD      ACCESS:         93  HIT:         19  MISS:         74
cpu0_L2C RFO       ACCESS:         11  HIT:          3  MISS:          8
cpu0_L2C PREFETCH  ACCESS:          0  HIT:          0  MISS:          0
cpu0_L2C WRITEBACK ACCESS:         10  HIT:         10  MISS:          0
LLC TOTAL     ACCESS:         82  HIT:          0  MISS:         82
LLC LOAD      ACCESS:         74  HIT:          0  MISS:         74
LLC RFO       ACCESS:          8  HIT:          0  MISS:          8
LLC PREFETCH  ACCESS:          0  HIT:          0  MISS:          0
LLC WRITEBACK ACCESS:          0  HIT:          0  MISS:          0
Heartbeat CPU 0 instructions: 54000000 cycles: 15600841 heartbeat IPC: 1.29083 cumulative IPC: 1.29 (Simulation time: 0 hr 16 min 10 sec) 

Region of Interest Statistics
cpu0_DTLB TOTAL     ACCESS:     576809  HIT:     575727  MISS:       1082
cpu0_DTLB LOAD      ACCESS:     427701  HIT:     426735  MISS:        966
cpu0_DTLB RFO       ACCESS:     149108  HIT:     148992  MISS:        116
cpu0_DTLB PREFETCH  ACCESS:          0  HIT:          0  MISS:          0
cpu0_DTLB WRITEBACK ACCESS:          0  HIT:          0  MISS:          0
cpu0_ITLB TOTAL     ACCESS:     451489  HIT:     451489  MISS:          0
cpu0_ITLB LOAD      ACCESS:     451489  HIT:     451489  MISS:          0
cpu0_ITLB RFO       ACCESS:          0  HIT:          0  MISS:          0
cpu0_ITLB PREFETCH  ACCESS:          0  HIT:          0  MISS:          0
cpu0_ITLB WRITEBACK ACCESS:          0  HIT:          0  MISS:          0
cpu0_L1I TOTAL     ACCESS:      45641  HIT:      45641  MISS:          0
cpu0_L1I LOAD      ACCESS:      45641  HIT:      45641  MISS:          0
cpu0_L1I RFO       ACCESS:          0  HIT:          0  MISS:          0
cpu0_L1I PREFETCH  ACCESS:          0  HIT:          0  MISS:          0
cpu0_L1I WRITEBACK ACCESS:          0  HIT:          0  MISS:          0
cpu0_STLB TOTAL     ACCESS:       1082  HIT:       1082  MISS:          0
cpu0_STLB LOAD      ACCESS:        966  HIT:        966  MISS:          0
cpu0_STLB RFO       ACCESS:        116  HIT:        116  MISS:          0
cpu0_STLB PREFETCH  ACCESS:          0  HIT:          0  MISS:          0
cpu0_STLB WRITEBACK ACCESS:          0  HIT:          0  MISS:          0
cpu0_L1D TOTAL     ACCESS:     767131  HIT:     766956  MISS:        175
cpu0_L1D LOAD      ACCESS:     495829  HIT:     495672  MISS:        157
cpu0_L1D RFO       ACCESS:     271302  HIT:     271284  MISS:         18
cpu0_L1D PREFETCH  ACCESS:          0  HIT:          0  MISS:          0
cpu0_L1D WRITEBACK ACCESS:          0  HIT:          0  MISS:          0
cpu0_L2C TOTAL     ACCESS:        189  HIT:         67  MISS:        122
cpu0_L2C LOAD      ACCESS:        157  HIT:         46  MISS:        111
cpu0_L2C RFO       ACCESS:         18  HIT:          7  MISS:         11
cpu0_L2C PREFETCH  ACCESS:          0  HIT:          0  MISS:          0
cpu0_L2C WRITEBACK ACCESS:         14  HIT:         14  MISS:          0
LLC TOTAL     ACCESS:        122  HIT:          0  MISS:        122
LLC LOAD      ACCESS:        111  HIT:          0  MISS:        111
LLC RFO       ACCESS:         11  HIT:          0  MISS:         11
LLC PREFETCH  ACCESS:          0  HIT:          0  MISS:          0
LLC WRITEBACK ACCESS:          0  HIT:          0  MISS:          0
Heartbeat CPU 0 instructions: 56000001 cycles: 17154982 heartbeat IPC: 1.28689 cumulative IPC: 1.28896 (Simulation time: 0 hr 16 min 46 sec) 

Region of Interest Statistics
cpu0_DTLB TOTAL     ACCESS:     865231  HIT:     863608  MISS:       1623
cpu0_DTLB LOAD      ACCESS:     641538  HIT:     640089  MISS:       1449
cpu0_DTLB RFO       ACCESS:     223693  HIT:     223519  MISS:        174
cpu0_DTLB PREFETCH  ACCESS:          0  HIT:          0  MISS:          0
cpu0_DTLB WRITEBACK ACCESS:          0  HIT:          0  MISS:          0
cpu0_ITLB TOTAL     ACCESS:     677246  HIT:     677246  MISS:          0
cpu0_ITLB LOAD      ACCESS:     677246  HIT:     677246  MISS:          0
cpu0_ITLB RFO       ACCESS:          0  HIT:          0  MISS:          0
cpu0_ITLB PREFETCH  ACCESS:          0  HIT:          0  MISS:          0
cpu0_ITLB WRITEBACK ACCESS:          0  HIT:          0  MISS:          0
cpu0_L1I TOTAL     ACCESS:      68490  HIT:      68490  MISS:          0
cpu0_L1I LOAD      ACCESS:      68490  HIT:      68490  MISS:          0
cpu0_L1I RFO       ACCESS:          0  HIT:          0  MISS:          0
cpu0_L1I PREFETCH  ACCESS:          0  HIT:          0  MISS:          0
cpu0_L1I WRITEBACK ACCESS:          0  HIT:          0  MISS:          0
cpu0_STLB TOTAL     ACCESS:       1623  HIT:       1622  MISS:          1
cpu0_STLB LOAD      ACCESS:       1449  HIT:       1448  MISS:          1
cpu0_STLB RFO       ACCESS:        174  HIT:        174  MISS:          0
cpu0_STLB PREFETCH  ACCESS:          0  HIT:          0  MISS:          0
cpu0_STLB WRITEBACK ACCESS:          0  HIT:          0  MISS:          0
cpu0_L1D TOTAL     ACCESS:    1150706  HIT:    1150393  MISS:        313
cpu0_L1D LOAD      ACCESS:     743698  HIT:     743416  MISS:        282
cpu0_L1D RFO       ACCESS:     407007  HIT:     406977  MISS:         30
cpu0_L1D PREFETCH  ACCESS:          0  HIT:          0  MISS:          0
cpu0_L1D WRITEBACK ACCESS:          0  HIT:          0  MISS:          0
cpu0_L2C TOTAL     ACCESS:        339  HIT:        122  MISS:        217
cpu0_L2C LOAD      ACCESS:        282  HIT:         84  MISS:        198
cpu0_L2C RFO       ACCESS:         30  HIT:         11  MISS:         19
cpu0_L2C PREFETCH  ACCESS:          0  HIT:          0  MISS:          0
cpu0_L2C WRITEBACK ACCESS:         26  HIT:         26  MISS:          0
LLC TOTAL     ACCESS:        217  HIT:          0  MISS:        217
LLC LOAD      ACCESS:        198  HIT:          0  MISS:        198
LLC RFO       ACCESS:         19  HIT:          0  MISS:         19
LLC PREFETCH  ACCESS:          0  HIT:          0  MISS:          0
LLC WRITEBACK ACCESS:          0  HIT:          0  MISS:          0
Heartbeat CPU 0 instructions: 58000002 cycles: 18703742 heartbeat IPC: 1.29136 cumulative IPC: 1.28956 (Simulation time: 0 hr 17 min 21 sec) 

Region of Interest Statistics
cpu0_DTLB TOTAL     ACCESS:    1153635  HIT:    1151470  MISS:       2165
cpu0_DTLB LOAD      ACCESS:     855372  HIT:     853439  MISS:       1933
cpu0_DTLB RFO       ACCESS:     298263  HIT:     298031  MISS:        232
cpu0_DTLB PREFETCH  ACCESS:          0  HIT:          0  MISS:          0
cpu0_DTLB WRITEBACK ACCESS:          0  HIT:          0  MISS:          0
cpu0_ITLB TOTAL     ACCESS:     902999  HIT:     902999  MISS:          0
cpu0_ITLB LOAD      ACCESS:     902999  HIT:     902999  MISS:          0
cpu0_ITLB RFO       ACCESS:          0  HIT:          0  MISS:          0
cpu0_ITLB PREFETCH  ACCESS:          0  HIT:          0  MISS:          0
cpu0_ITLB WRITEBACK ACCESS:          0  HIT:          0  MISS:          0
cpu0_L1I TOTAL     ACCESS:      91334  HIT:      91334  MISS:          0
cpu0_L1I LOAD      ACCESS:      91334  HIT:      91334  MISS:          0
cpu0_L1I RFO       ACCESS:          0  HIT:          0  MISS:          0
cpu0_L1I PREFETCH  ACCESS:          0  HIT:          0  MISS:          0
cpu0_L1I WRITEBACK ACCESS:          0  HIT:          0  MISS:          0
cpu0_STLB TOTAL     ACCESS:       2165  HIT:       2163  MISS:          2
cpu0_STLB LOAD      ACCESS:       1933  HIT:       1931  MISS:          2
cpu0_STLB RFO       ACCESS:        232  HIT:        232  MISS:          0
cpu0_STLB PREFETCH  ACCESS:          0  HIT:          0  MISS:          0
cpu0_STLB WRITEBACK ACCESS:          0  HIT:          0  MISS:          0
cpu0_L1D TOTAL     ACCESS:    1534302  HIT:    1533894  MISS:        408
cpu0_L1D LOAD      ACCESS:     991628  HIT:     991261  MISS:        367
cpu0_L1D RFO       ACCESS:     542672  HIT:     542633  MISS:         39
cpu0_L1D PREFETCH  ACCESS:          0  HIT:          0  MISS:          0
cpu0_L1D WRITEBACK ACCESS:          0  HIT:          0  MISS:          0
cpu0_L2C TOTAL     ACCESS:        442  HIT:        188  MISS:        254
cpu0_L2C LOAD      ACCESS:        367  HIT:        135  MISS:        232
cpu0_L2C RFO       ACCESS:         39  HIT:         17  MISS:         22
cpu0_L2C PREFETCH  ACCESS:          0  HIT:          0  MISS:          0
cpu0_L2C WRITEBACK ACCESS:         34  HIT:         34  MISS:          0
LLC TOTAL     ACCESS:        254  HIT:          0  MISS:        254
LLC LOAD      ACCESS:        232  HIT:          0  MISS:        232
LLC RFO       ACCESS:         22  HIT:          0  MISS:         22
LLC PREFETCH  ACCESS:          0  HIT:          0  MISS:          0
LLC WRITEBACK ACCESS:          0  HIT:          0  MISS:          0
Heartbeat CPU 0 instructions: 60000001 cycles: 20254602 heartbeat IPC: 1.28961 cumulative IPC: 1.28957 (Simulation time: 0 hr 17 min 57 sec) 

Region of Interest Statistics
cpu0_DTLB TOTAL     ACCESS:    1441977  HIT:    1439271  MISS:       2706
cpu0_DTLB LOAD      ACCESS:    1069163  HIT:    1066747  MISS:       2416
cpu0_DTLB RFO       ACCESS:     372814  HIT:     372524  MISS:        290
cpu0_DTLB PREFETCH  ACCESS:          0  HIT:          0  MISS:          0
cpu0_DTLB WRITEBACK ACCESS:          0  HIT:          0  MISS:          0
cpu0_ITLB TOTAL     ACCESS:    1128759  HIT:    1128759  MISS:          0
cpu0_ITLB LOAD      ACCESS:    1128759  HIT:    1128759  MISS:          0
cpu0_ITLB RFO       ACCESS:          0  HIT:          0  MISS:          0
cpu0_ITLB PREFETCH  ACCESS:          0  HIT:          0  MISS:          0
cpu0_ITLB WRITEBACK ACCESS:          0  HIT:          0  MISS:          0
cpu0_L1I TOTAL     ACCESS:     114192  HIT:     114192  MISS:          0
cpu0_L1I LOAD      ACCESS:     114192  HIT:     114192  MISS:          0
cpu0_L1I RFO       ACCESS:          0  HIT:          0  MISS:          0
cpu0_L1I PREFETCH  ACCESS:          0  HIT:          0  MISS:          0
cpu0_L1I WRITEBACK ACCESS:          0  HIT:          0  MISS:          0
cpu0_STLB TOTAL     ACCESS:       2706  HIT:       2703  MISS:          3
cpu0_STLB LOAD      ACCESS:       2416  HIT:       2413  MISS:          3
cpu0_STLB RFO       ACCESS:        290  HIT:        290  MISS:          0
cpu0_STLB PREFETCH  ACCESS:          0  HIT:          0  MISS:          0
cpu0_STLB WRITEBACK ACCESS:          0  HIT:          0  MISS:          0
cpu0_L1D TOTAL     ACCESS:    1917870  HIT:    1917351  MISS:        519
cpu0_L1D LOAD      ACCESS:    1239529  HIT:    1239061  MISS:        468
cpu0_L1D RFO       ACCESS:     678338  HIT:     678290  MISS:         48
cpu0_L1D PREFETCH  ACCESS:          0  HIT:          0  MISS:          0
cpu0_L1D WRITEBACK ACCESS:          0  HIT:          0  MISS:          0
cpu0_L2C TOTAL     ACCESS:        567  HIT:        237  MISS:        330
cpu0_L2C LOAD      ACCESS:        468  HIT:        167  MISS:        301
cpu0_L2C RFO       ACCESS:         48  HIT:         19  MISS:         29
cpu0_L2C PREFETCH  ACCESS:          0  HIT:          0  MISS:          0
cpu0_L2C WRITEBACK ACCESS:         48  HIT:         48  MISS:          0
LLC TOTAL     ACCESS:        330  HIT:          0  MISS:        330
LLC LOAD      ACCESS:        301  HIT:          0  MISS:        301
LLC RFO       ACCESS:         29  HIT:          0  MISS:         29
LLC PREFETCH  ACCESS:          0  HIT:          0  MISS:          0
LLC WRITEBACK ACCESS:          0  HIT:          0  MISS:          0
Heartbeat CPU 0 instructions: 62000003 cycles: 21803579 heartbeat IPC: 1.29118 cumulative IPC: 1.28984 (Simulation time: 0 hr 18 min 34 sec) 

Region of Interest Statistics
cpu0_DTLB TOTAL     ACCESS:    1730391  HIT:    1727144  MISS:       3247
cpu0_DTLB LOAD      ACCESS:    1282993  HIT:    1280094  MISS:       2899
cpu0_DTLB RFO       ACCESS:     447398  HIT:     447050  MISS:        348
cpu0_DTLB PREFETCH  ACCESS:          0  HIT:          0  MISS:          0
cpu0_DTLB WRITEBACK ACCESS:          0  HIT:          0  MISS:          0
cpu0_ITLB TOTAL     ACCESS:    1354494  HIT:    1354494  MISS:          0
cpu0_ITLB LOAD      ACCESS:    1354494  HIT:    1354494  MISS:          0
cpu0_ITLB RFO       ACCESS:          0  HIT:          0  MISS:          0
cpu0_ITLB PREFETCH  ACCESS:          0  HIT:          0  MISS:          0
cpu0_ITLB WRITEBACK ACCESS:          0  HIT:          0  MISS:          0
cpu0_L1I TOTAL     ACCESS:     137060  HIT:     137060  MISS:          0
cpu0_L1I LOAD      ACCESS:     137060  HIT:     137060  MISS:          0
cpu0_L1I RFO       ACCESS:          0  HIT:          0  MISS:          0
cpu0_L1I PREFETCH  ACCESS:          0  HIT:          0  MISS:          0
cpu0_L1I WRITEBACK ACCESS:          0  HIT:          0  MISS:          0
cpu0_STLB TOTAL     ACCESS:       3247  HIT:       3243  MISS:          4
cpu0_STLB LOAD      ACCESS:       2899  HIT:       2895  MISS:          4
cpu0_STLB RFO       ACCESS:        348  HIT:        348  MISS:          0
cpu0_STLB PREFETCH  ACCESS:          0  HIT:          0  MISS:          0
cpu0_STLB WRITEBACK ACCESS:          0  HIT:          0  MISS:          0
cpu0_L1D TOTAL     ACCESS:    2301521  HIT:    2300920  MISS:        601
cpu0_L1D LOAD      ACCESS:    1487462  HIT:    1486919  MISS:        543
cpu0_L1D RFO       ACCESS:     814055  HIT:     814001  MISS:         54
cpu0_L1D PREFETCH  ACCESS:          0  HIT:          0  MISS:          0
cpu0_L1D WRITEBACK ACCESS:          0  HIT:          0  MISS:          0
cpu0_L2C TOTAL     ACCESS:        654  HIT:        287  MISS:        367
cpu0_L2C LOAD      ACCESS:        543  HIT:        208  MISS:        335
cpu0_L2C RFO       ACCESS:         54  HIT:         22  MISS:         32
cpu0_L2C PREFETCH  ACCESS:          0  HIT:          0  MISS:          0
cpu0_L2C WRITEBACK ACCESS:         53  HIT:         53  MISS:          0
LLC TOTAL     ACCESS:        367  HIT:          0  MISS:        367
LLC LOAD      ACCESS:        335  HIT:          0  MISS:        335
LLC RFO       ACCESS:         32  HIT:          0  MISS:         32
LLC PREFETCH  ACCESS:          0  HIT:          0  MISS:          0
LLC WRITEBACK ACCESS:          0  HIT:          0  MISS:          0
Heartbeat CPU 0 instructions: 64000004 cycles: 23356373 heartbeat IPC: 1.288 cumulative IPC: 1.28957 (Simulation time: 0 hr 19 min 7 sec) 

Region of Interest Statistics
cpu0_DTLB TOTAL     ACCESS:    2018815  HIT:    2015027  MISS:       3788
cpu0_DTLB LOAD      ACCESS:    1496824  HIT:    1493442  MISS:       3382
cpu0_DTLB RFO       ACCESS:     521991  HIT:     521585  MISS:        406
cpu0_DTLB PREFETCH  ACCESS:          0  HIT:          0  MISS:          0
cpu0_DTLB WRITEBACK ACCESS:          0  HIT:          0  MISS:          0
cpu0_ITLB TOTAL     ACCESS:    1580228  HIT:    1580228  MISS:          0
cpu0_ITLB LOAD      ACCESS:    1580228  HIT:    1580228  MISS:          0
cpu0_ITLB RFO       ACCESS:          0  HIT:          0  MISS:          0
cpu0_ITLB PREFETCH  ACCESS:          0  HIT:          0  MISS:          0
cpu0_ITLB WRITEBACK ACCESS:          0  HIT:          0  MISS:          0
cpu0_L1I TOTAL     ACCESS:     159917  HIT:     159917  MISS:          0
cpu0_L1I LOAD      ACCESS:     159917  HIT:     159917  MISS:          0
cpu0_L1I RFO       ACCESS:          0  HIT:          0  MISS:          0
cpu0_L1I PREFETCH  ACCESS:          0  HIT:          0  MISS:          0
cpu0_L1I WRITEBACK ACCESS:          0  HIT:          0  MISS:          0
cpu0_STLB TOTAL     ACCESS:       3788  HIT:       3784  MISS:          4
cpu0_STLB LOAD      ACCESS:       3382  HIT:       3378  MISS:          4
cpu0_STLB RFO       ACCESS:        406  HIT:        406  MISS:          0
cpu0_STLB PREFETCH  ACCESS:          0  HIT:          0  MISS:          0
cpu0_STLB WRITEBACK ACCESS:          0  HIT:          0  MISS:          0
cpu0_L1D TOTAL     ACCESS:    2685208  HIT:    2684471  MISS:        737
cpu0_L1D LOAD      ACCESS:    1735422  HIT:    1734754  MISS:        668
cpu0_L1D RFO       ACCESS:     949782  HIT:     949717  MISS:         65
cpu0_L1D PREFETCH  ACCESS:          0  HIT:          0  MISS:          0
cpu0_L1D WRITEBACK ACCESS:          0  HIT:          0  MISS:          0
cpu0_L2C TOTAL     ACCESS:        800  HIT:        338  MISS:        462
cpu0_L2C LOAD      ACCESS:        668  HIT:        246  MISS:        422
cpu0_L2C RFO       ACCESS:         65  HIT:         25  MISS:         40
cpu0_L2C PREFETCH  ACCESS:          0  HIT:          0  MISS:          0
cpu0_L2C WRITEBACK ACCESS:         63  HIT:         63  MISS:          0
LLC TOTAL     ACCESS:        462  HIT:          0  MISS:        462
LLC LOAD      ACCESS:        422  HIT:          0  MISS:        422
LLC RFO       ACCESS:         40  HIT:          0  MISS:         40
LLC PREFETCH  ACCESS:          0  HIT:          0  MISS:          0
LLC WRITEBACK ACCESS:          0  HIT:          0  MISS:          0
Heartbeat CPU 0 instructions: 66000003 cycles: 24904593 heartbeat IPC: 1.29181 cumulative IPC: 1.28985 (Simulation time: 0 hr 19 min 43 sec) 

Region of Interest Statistics
cpu0_DTLB TOTAL     ACCESS:    2307237  HIT:    2302908  MISS:       4329
cpu0_DTLB LOAD      ACCESS:    1710662  HIT:    1706797  MISS:       3865
cpu0_DTLB RFO       ACCESS:     596575  HIT:     596111  MISS:        464
cpu0_DTLB PREFETCH  ACCESS:          0  HIT:          0  MISS:          0
cpu0_DTLB WRITEBACK ACCESS:          0  HIT:          0  MISS:          0
cpu0_ITLB TOTAL     ACCESS:    1805961  HIT:    1805961  MISS:          0
cpu0_ITLB LOAD      ACCESS:    1805961  HIT:    1805961  MISS:          0
cpu0_ITLB RFO       ACCESS:          0  HIT:          0  MISS:          0
cpu0_ITLB PREFETCH  ACCESS:          0  HIT:          0  MISS:          0
cpu0_ITLB WRITEBACK ACCESS:          0  HIT:          0  MISS:          0
cpu0_L1I TOTAL     ACCESS:     182786  HIT:     182786  MISS:          0
cpu0_L1I LOAD      ACCESS:     182786  HIT:     182786  MISS:          0
cpu0_L1I RFO       ACCESS:          0  HIT:          0  MISS:          0
cpu0_L1I PREFETCH  ACCESS:          0  HIT:          0  MISS:          0
cpu0_L1I WRITEBACK ACCESS:          0  HIT:          0  MISS:          0
cpu0_STLB TOTAL     ACCESS:       4329  HIT:       4325  MISS:          4
cpu0_STLB LOAD      ACCESS:       3865  HIT:       3861  MISS:          4
cpu0_STLB RFO       ACCESS:        464  HIT:        464  MISS:          0
cpu0_STLB PREFETCH  ACCESS:          0  HIT:          0  MISS:          0
cpu0_STLB WRITEBACK ACCESS:          0  HIT:          0  MISS:          0
cpu0_L1D TOTAL     ACCESS:    3068892  HIT:    3068077  MISS:        815
cpu0_L1D LOAD      ACCESS:    1983379  HIT:    1982639  MISS:        740
cpu0_L1D RFO       ACCESS:    1085509  HIT:    1085438  MISS:         71
cpu0_L1D PREFETCH  ACCESS:          0  HIT:          0  MISS:          0
cpu0_L1D WRITEBACK ACCESS:          0  HIT:          0  MISS:          0
cpu0_L2C TOTAL     ACCESS:        884  HIT:        392  MISS:        492
cpu0_L2C LOAD      ACCESS:        740  HIT:        291  MISS:        449
cpu0_L2C RFO       ACCESS:         71  HIT:         28  MISS:         43
cpu0_L2C PREFETCH  ACCESS:          0  HIT:          0  MISS:          0
cpu0_L2C WRITEBACK ACCESS:         69  HIT:         69  MISS:          0
LLC TOTAL     ACCESS:        492  HIT:          0  MISS:        492
LLC LOAD      ACCESS:        449  HIT:          0  MISS:        449
LLC RFO       ACCESS:         43  HIT:          0  MISS:         43
LLC PREFETCH  ACCESS:          0  HIT:          0  MISS:          0
LLC WRITEBACK ACCESS:          0  HIT:          0  MISS:          0
Heartbeat CPU 0 instructions: 68000000 cycles: 26456077 heartbeat IPC: 1.28909 cumulative IPC: 1.28977 (Simulation time: 0 hr 20 min 26 sec) 

Region of Interest Statistics
cpu0_DTLB TOTAL     ACCESS:    2595628  HIT:    2590758  MISS:       4870
cpu0_DTLB LOAD      ACCESS:    1924483  HIT:    1920135  MISS:       4348
cpu0_DTLB RFO       ACCESS:     671145  HIT:     670623  MISS:        522
cpu0_DTLB PREFETCH  ACCESS:          0  HIT:          0  MISS:          0
cpu0_DTLB WRITEBACK ACCESS:          0  HIT:          0  MISS:          0
cpu0_ITLB TOTAL     ACCESS:    2031709  HIT:    2031709  MISS:          0
cpu0_ITLB LOAD      ACCESS:    2031709  HIT:    2031709  MISS:          0
cpu0_ITLB RFO       ACCESS:          0  HIT:          0  MISS:          0
cpu0_ITLB PREFETCH  ACCESS:          0  HIT:          0  MISS:          0
cpu0_ITLB WRITEBACK ACCESS:          0  HIT:          0  MISS:          0
cpu0_L1I TOTAL     ACCESS:     205638  HIT:     205638  MISS:          0
cpu0_L1I LOAD      ACCESS:     205638  HIT:     205638  MISS:          0
cpu0_L1I RFO       ACCESS:          0  HIT:          0  MISS:          0
cpu0_L1I PREFETCH  ACCESS:          0  HIT:          0  MISS:          0
cpu0_L1I WRITEBACK ACCESS:          0  HIT:          0  MISS:          0
cpu0_STLB TOTAL     ACCESS:       4870  HIT:       4866  MISS:          4
cpu0_STLB LOAD      ACCESS:       4348  HIT:       4344  MISS:          4
cpu0_STLB RFO       ACCESS:        522  HIT:        522  MISS:          0
cpu0_STLB PREFETCH  ACCESS:          0  HIT:          0  MISS:          0
cpu0_STLB WRITEBACK ACCESS:          0  HIT:          0  MISS:          0
cpu0_L1D TOTAL     ACCESS:    3452533  HIT:    3451607  MISS:        926
cpu0_L1D LOAD      ACCESS:    2231321  HIT:    2230480  MISS:        841
cpu0_L1D RFO       ACCESS:    1221208  HIT:    1221127  MISS:         81
cpu0_L1D PREFETCH  ACCESS:          0  HIT:          0  MISS:          0
cpu0_L1D WRITEBACK ACCESS:          0  HIT:          0  MISS:          0
cpu0_L2C TOTAL     ACCESS:       1006  HIT:        432  MISS:        574
cpu0_L2C LOAD      ACCESS:        841  HIT:        318  MISS:        523
cpu0_L2C RFO       ACCESS:         81  HIT:         30  MISS:         51
cpu0_L2C PREFETCH  ACCESS:          0  HIT:          0  MISS:          0
cpu0_L2C WRITEBACK ACCESS:         80  HIT:         80  MISS:          0
LLC TOTAL     ACCESS:        574  HIT:          0  MISS:        574
LLC LOAD      ACCESS:        523  HIT:          0  MISS:        523
LLC RFO       ACCESS:         51  HIT:          0  MISS:         51
LLC PREFETCH  ACCESS:          0  HIT:          0  MISS:          0
LLC WRITEBACK ACCESS:          0  HIT:          0  MISS:          0
Heartbeat CPU 0 instructions: 70000000 cycles: 28005191 heartbeat IPC: 1.29106 cumulative IPC: 1.2899 (Simulation time: 0 hr 21 min 3 sec) 

Region of Interest Statistics
cpu0_DTLB TOTAL     ACCESS:    2884026  HIT:    2878615  MISS:       5411
cpu0_DTLB LOAD      ACCESS:    2138309  HIT:    2133478  MISS:       4831
cpu0_DTLB RFO       ACCESS:     745717  HIT:     745137  MISS:        580
cpu0_DTLB PREFETCH  ACCESS:          0  HIT:          0  MISS:          0
cpu0_DTLB WRITEBACK ACCESS:          0  HIT:          0  MISS:          0
cpu0_ITLB TOTAL     ACCESS:    2257462  HIT:    2257462  MISS:          0
cpu0_ITLB LOAD      ACCESS:    2257462  HIT:    2257462  MISS:          0
cpu0_ITLB RFO       ACCESS:          0  HIT:          0  MISS:          0
cpu0_ITLB PREFETCH  ACCESS:          0  HIT:          0  MISS:          0
cpu0_ITLB WRITEBACK ACCESS:          0  HIT:          0  MISS:          0
cpu0_L1I TOTAL     ACCESS:     228501  HIT:     228501  MISS:          0
cpu0_L1I LOAD      ACCESS:     228501  HIT:     228501  MISS:          0
cpu0_L1I RFO       ACCESS:          0  HIT:          0  MISS:          0
cpu0_L1I PREFETCH  ACCESS:          0  HIT:          0  MISS:          0
cpu0_L1I WRITEBACK ACCESS:          0  HIT:          0  MISS:          0
cpu0_STLB TOTAL     ACCESS:       5411  HIT:       5407  MISS:          4
cpu0_STLB LOAD      ACCESS:       4831  HIT:       4827  MISS:          4
cpu0_STLB RFO       ACCESS:        580  HIT:        580  MISS:          0
cpu0_STLB PREFETCH  ACCESS:          0  HIT:          0  MISS:          0
cpu0_STLB WRITEBACK ACCESS:          0  HIT:          0  MISS:          0
cpu0_L1D TOTAL     ACCESS:    3836106  HIT:    3835096  MISS:       1010
cpu0_L1D LOAD      ACCESS:    2479194  HIT:    2478278  MISS:        916
cpu0_L1D RFO       ACCESS:    1356908  HIT:    1356818  MISS:         90
cpu0_L1D PREFETCH  ACCESS:          0  HIT:          0  MISS:          0
cpu0_L1D WRITEBACK ACCESS:          0  HIT:          0  MISS:          0
cpu0_L2C TOTAL     ACCESS:       1097  HIT:        483  MISS:        614
cpu0_L2C LOAD      ACCESS:        916  HIT:        356  MISS:        560
cpu0_L2C RFO       ACCESS:         90  HIT:         36  MISS:         54
cpu0_L2C PREFETCH  ACCESS:          0  HIT:          0  MISS:          0
cpu0_L2C WRITEBACK ACCESS:         87  HIT:         87  MISS:          0
LLC TOTAL     ACCESS:        614  HIT:          0  MISS:        614
LLC LOAD      ACCESS:        560  HIT:          0  MISS:        560
LLC RFO       ACCESS:         54  HIT:          0  MISS:         54
LLC PREFETCH  ACCESS:          0  HIT:          0  MISS:          0
LLC WRITEBACK ACCESS:          0  HIT:          0  MISS:          0
Heartbeat CPU 0 instructions: 72000004 cycles: 29559732 heartbeat IPC: 1.28656 cumulative IPC: 1.28959 (Simulation time: 0 hr 21 min 40 sec) 

Region of Interest Statistics
cpu0_DTLB TOTAL     ACCESS:    3172462  HIT:    3166510  MISS:       5952
cpu0_DTLB LOAD      ACCESS:    2352149  HIT:    2346834  MISS:       5315
cpu0_DTLB RFO       ACCESS:     820313  HIT:     819676  MISS:        637
cpu0_DTLB PREFETCH  ACCESS:          0  HIT:          0  MISS:          0
cpu0_DTLB WRITEBACK ACCESS:          0  HIT:          0  MISS:          0
cpu0_ITLB TOTAL     ACCESS:    2483227  HIT:    2483227  MISS:          0
cpu0_ITLB LOAD      ACCESS:    2483227  HIT:    2483227  MISS:          0
cpu0_ITLB RFO       ACCESS:          0  HIT:          0  MISS:          0
cpu0_ITLB PREFETCH  ACCESS:          0  HIT:          0  MISS:          0
cpu0_ITLB WRITEBACK ACCESS:          0  HIT:          0  MISS:          0
cpu0_L1I TOTAL     ACCESS:     251348  HIT:     251348  MISS:          0
cpu0_L1I LOAD      ACCESS:     251348  HIT:     251348  MISS:          0
cpu0_L1I RFO       ACCESS:          0  HIT:          0  MISS:          0
cpu0_L1I PREFETCH  ACCESS:          0  HIT:          0  MISS:          0
cpu0_L1I WRITEBACK ACCESS:          0  HIT:          0  MISS:          0
cpu0_STLB TOTAL     ACCESS:       5952  HIT:       5946  MISS:          6
cpu0_STLB LOAD      ACCESS:       5315  HIT:       5309  MISS:          6
cpu0_STLB RFO       ACCESS:        637  HIT:        637  MISS:          0
cpu0_STLB PREFETCH  ACCESS:          0  HIT:          0  MISS:          0
cpu0_STLB WRITEBACK ACCESS:          0  HIT:          0  MISS:          0
cpu0_L1D TOTAL     ACCESS:    4219687  HIT:    4218542  MISS:       1145
cpu0_L1D LOAD      ACCESS:    2727074  HIT:    2726036  MISS:       1038
cpu0_L1D RFO       ACCESS:    1492607  HIT:    1492506  MISS:        101
cpu0_L1D PREFETCH  ACCESS:          0  HIT:          0  MISS:          0
cpu0_L1D WRITEBACK ACCESS:          0  HIT:          0  MISS:          0
cpu0_L2C TOTAL     ACCESS:       1242  HIT:        533  MISS:        709
cpu0_L2C LOAD      ACCESS:       1038  HIT:        391  MISS:        647
cpu0_L2C RFO       ACCESS:        101  HIT:         39  MISS:         62
cpu0_L2C PREFETCH  ACCESS:          0  HIT:          0  MISS:          0
cpu0_L2C WRITEBACK ACCESS:         97  HIT:         97  MISS:          0
LLC TOTAL     ACCESS:        709  HIT:          0  MISS:        709
LLC LOAD      ACCESS:        647  HIT:          0  MISS:        647
LLC RFO       ACCESS:         62  HIT:          0  MISS:         62
LLC PREFETCH  ACCESS:          0  HIT:          0  MISS:          0
LLC WRITEBACK ACCESS:          0  HIT:          0  MISS:          0
Heartbeat CPU 0 instructions: 74000004 cycles: 31108207 heartbeat IPC: 1.29159 cumulative IPC: 1.28976 (Simulation time: 0 hr 22 min 14 sec) 

Region of Interest Statistics
cpu0_DTLB TOTAL     ACCESS:    3460878  HIT:    3454384  MISS:       6494
cpu0_DTLB LOAD      ACCESS:    2566014  HIT:    2560215  MISS:       5799
cpu0_DTLB RFO       ACCESS:     894864  HIT:     894169  MISS:        695
cpu0_DTLB PREFETCH  ACCESS:          0  HIT:          0  MISS:          0
cpu0_DTLB WRITEBACK ACCESS:          0  HIT:          0  MISS:          0
cpu0_ITLB TOTAL     ACCESS:    2708999  HIT:    2708999  MISS:          0
cpu0_ITLB LOAD      ACCESS:    2708999  HIT:    2708999  MISS:          0
cpu0_ITLB RFO       ACCESS:          0  HIT:          0  MISS:          0
cpu0_ITLB PREFETCH  ACCESS:          0  HIT:          0  MISS:          0
cpu0_ITLB WRITEBACK ACCESS:          0  HIT:          0  MISS:          0
cpu0_L1I TOTAL     ACCESS:     274187  HIT:     274187  MISS:          0
cpu0_L1I LOAD      ACCESS:     274187  HIT:     274187  MISS:          0
cpu0_L1I RFO       ACCESS:          0  HIT:          0  MISS:          0
cpu0_L1I PREFETCH  ACCESS:          0  HIT:          0  MISS:          0
cpu0_L1I WRITEBACK ACCESS:          0  HIT:          0  MISS:          0
cpu0_STLB TOTAL     ACCESS:       6494  HIT:       6487  MISS:          7
cpu0_STLB LOAD      ACCESS:       5799  HIT:       5792  MISS:          7
cpu0_STLB RFO       ACCESS:        695  HIT:        695  MISS:          0
cpu0_STLB PREFETCH  ACCESS:          0  HIT:          0  MISS:          0
cpu0_STLB WRITEBACK ACCESS:          0  HIT:          0  MISS:          0
cpu0_L1D TOTAL     ACCESS:    4603261  HIT:    4602018  MISS:       1243
cpu0_L1D LOAD      ACCESS:    2974997  HIT:    2973870  MISS:       1127
cpu0_L1D RFO       ACCESS:    1628257  HIT:    1628148  MISS:        109
cpu0_L1D PREFETCH  ACCESS:          0  HIT:          0  MISS:          0
cpu0_L1D WRITEBACK ACCESS:          0  HIT:          0  MISS:          0
cpu0_L2C TOTAL     ACCESS:       1350  HIT:        604  MISS:        746
cpu0_L2C LOAD      ACCESS:       1127  HIT:        446  MISS:        681
cpu0_L2C RFO       ACCESS:        109  HIT:         44  MISS:         65
cpu0_L2C PREFETCH  ACCESS:          0  HIT:          0  MISS:          0
cpu0_L2C WRITEBACK ACCESS:        107  HIT:        107  MISS:          0
LLC TOTAL     ACCESS:        746  HIT:          0  MISS:        746
LLC LOAD      ACCESS:        681  HIT:          0  MISS:        681
LLC RFO       ACCESS:         65  HIT:          0  MISS:         65
LLC PREFETCH  ACCESS:          0  HIT:          0  MISS:          0
LLC WRITEBACK ACCESS:          0  HIT:          0  MISS:          0
Heartbeat CPU 0 instructions: 76000000 cycles: 32659242 heartbeat IPC: 1.28946 cumulative IPC: 1.28974 (Simulation time: 0 hr 22 min 49 sec) 

Region of Interest Statistics
cpu0_DTLB TOTAL     ACCESS:    3749322  HIT:    3742286  MISS:       7036
cpu0_DTLB LOAD      ACCESS:    2779890  HIT:    2773607  MISS:       6283
cpu0_DTLB RFO       ACCESS:     969432  HIT:     968679  MISS:        753
cpu0_DTLB PREFETCH  ACCESS:          0  HIT:          0  MISS:          0
cpu0_DTLB WRITEBACK ACCESS:          0  HIT:          0  MISS:          0
cpu0_ITLB TOTAL     ACCESS:    2934769  HIT:    2934769  MISS:          0
cpu0_ITLB LOAD      ACCESS:    2934769  HIT:    2934769  MISS:          0
cpu0_ITLB RFO       ACCESS:          0  HIT:          0  MISS:          0
cpu0_ITLB PREFETCH  ACCESS:          0  HIT:          0  MISS:          0
cpu0_ITLB WRITEBACK ACCESS:          0  HIT:          0  MISS:          0
cpu0_L1I TOTAL     ACCESS:     296993  HIT:     296993  MISS:          0
cpu0_L1I LOAD      ACCESS:     296993  HIT:     296993  MISS:          0
cpu0_L1I RFO       ACCESS:          0  HIT:          0  MISS:          0
cpu0_L1I PREFETCH  ACCESS:          0  HIT:          0  MISS:          0
cpu0_L1I WRITEBACK ACCESS:          0  HIT:          0  MISS:          0
cpu0_STLB TOTAL     ACCESS:       7036  HIT:       7029  MISS:          7
cpu0_STLB LOAD      ACCESS:       6283  HIT:       6276  MISS:          7
cpu0_STLB RFO       ACCESS:        753  HIT:        753  MISS:          0
cpu0_STLB PREFETCH  ACCESS:          0  HIT:          0  MISS:          0
cpu0_STLB WRITEBACK ACCESS:          0  HIT:          0  MISS:          0
cpu0_L1D TOTAL     ACCESS:    4986852  HIT:    4985481  MISS:       1371
cpu0_L1D LOAD      ACCESS:    3222936  HIT:    3221691  MISS:       1245
cpu0_L1D RFO       ACCESS:    1763909  HIT:    1763790  MISS:        119
cpu0_L1D PREFETCH  ACCESS:          0  HIT:          0  MISS:          0
cpu0_L1D WRITEBACK ACCESS:          0  HIT:          0  MISS:          0
cpu0_L2C TOTAL     ACCESS:       1490  HIT:        668  MISS:        822
cpu0_L2C LOAD      ACCESS:       1245  HIT:        495  MISS:        750
cpu0_L2C RFO       ACCESS:        119  HIT:         47  MISS:         72
cpu0_L2C PREFETCH  ACCESS:          0  HIT:          0  MISS:          0
cpu0_L2C WRITEBACK ACCESS:        119  HIT:        119  MISS:          0
LLC TOTAL     ACCESS:        822  HIT:          0  MISS:        822
LLC LOAD      ACCESS:        750  HIT:          0  MISS:        750
LLC RFO       ACCESS:         72  HIT:          0  MISS:         72
LLC PREFETCH  ACCESS:          0  HIT:          0  MISS:          0
LLC WRITEBACK ACCESS:          0  HIT:          0  MISS:          0
Heartbeat CPU 0 instructions: 78000001 cycles: 34208352 heartbeat IPC: 1.29106 cumulative IPC: 1.28983 (Simulation time: 0 hr 23 min 25 sec) 

Region of Interest Statistics
cpu0_DTLB TOTAL     ACCESS:    4037724  HIT:    4030146  MISS:       7578
cpu0_DTLB LOAD      ACCESS:    2993721  HIT:    2986954  MISS:       6767
cpu0_DTLB RFO       ACCESS:    1044003  HIT:    1043192  MISS:        811
cpu0_DTLB PREFETCH  ACCESS:          0  HIT:          0  MISS:          0
cpu0_DTLB WRITEBACK ACCESS:          0  HIT:          0  MISS:          0
cpu0_ITLB TOTAL     ACCESS:    3160522  HIT:    3160522  MISS:          0
cpu0_ITLB LOAD      ACCESS:    3160522  HIT:    3160522  MISS:          0
cpu0_ITLB RFO       ACCESS:          0  HIT:          0  MISS:          0
cpu0_ITLB PREFETCH  ACCESS:          0  HIT:          0  MISS:          0
cpu0_ITLB WRITEBACK ACCESS:          0  HIT:          0  MISS:          0
cpu0_L1I TOTAL     ACCESS:     319857  HIT:     319857  MISS:          0
cpu0_L1I LOAD      ACCESS:     319857  HIT:     319857  MISS:          0
cpu0_L1I RFO       ACCESS:          0  HIT:          0  MISS:          0
cpu0_L1I PREFETCH  ACCESS:          0  HIT:          0  MISS:          0
cpu0_L1I WRITEBACK ACCESS:          0  HIT:          0  MISS:          0
cpu0_STLB TOTAL     ACCESS:       7578  HIT:       7571  MISS:          7
cpu0_STLB LOAD      ACCESS:       6767  HIT:       6760  MISS:          7
cpu0_STLB RFO       ACCESS:        811  HIT:        811  MISS:          0
cpu0_STLB PREFETCH  ACCESS:          0  HIT:          0  MISS:          0
cpu0_STLB WRITEBACK ACCESS:          0  HIT:          0  MISS:          0
cpu0_L1D TOTAL     ACCESS:    5370426  HIT:    5368966  MISS:       1460
cpu0_L1D LOAD      ACCESS:    3470842  HIT:    3469514  MISS:       1328
cpu0_L1D RFO       ACCESS:    1899577  HIT:    1899452  MISS:        125
cpu0_L1D PREFETCH  ACCESS:          0  HIT:          0  MISS:          0
cpu0_L1D WRITEBACK ACCESS:          0  HIT:          0  MISS:          0
cpu0_L2C TOTAL     ACCESS:       1586  HIT:        727  MISS:        859
cpu0_L2C LOAD      ACCESS:       1328  HIT:        544  MISS:        784
cpu0_L2C RFO       ACCESS:        125  HIT:         50  MISS:         75
cpu0_L2C PREFETCH  ACCESS:          0  HIT:          0  MISS:          0
cpu0_L2C WRITEBACK ACCESS:        126  HIT:        126  MISS:          0
LLC TOTAL     ACCESS:        859  HIT:          0  MISS:        859
LLC LOAD      ACCESS:        784  HIT:          0  MISS:        784
LLC RFO       ACCESS:         75  HIT:          0  MISS:         75
LLC PREFETCH  ACCESS:          0  HIT:          0  MISS:          0
LLC WRITEBACK ACCESS:          0  HIT:          0  MISS:          0
Heartbeat CPU 0 instructions: 80000000 cycles: 35761548 heartbeat IPC: 1.28767 cumulative IPC: 1.28969 (Simulation time: 0 hr 24 min 2 sec) 

Region of Interest Statistics
cpu0_DTLB TOTAL     ACCESS:    4326143  HIT:    4318020  MISS:       8123
cpu0_DTLB LOAD      ACCESS:    3207580  HIT:    3200326  MISS:       7254
cpu0_DTLB RFO       ACCESS:    1118563  HIT:    1117694  MISS:        869
cpu0_DTLB PREFETCH  ACCESS:          0  HIT:          0  MISS:          0
cpu0_DTLB WRITEBACK ACCESS:          0  HIT:          0  MISS:          0
cpu0_ITLB TOTAL     ACCESS:    3386280  HIT:    3386280  MISS:          0
cpu0_ITLB LOAD      ACCESS:    3386280  HIT:    3386280  MISS:          0
cpu0_ITLB RFO       ACCESS:          0  HIT:          0  MISS:          0
cpu0_ITLB PREFETCH  ACCESS:          0  HIT:          0  MISS:          0
cpu0_ITLB WRITEBACK ACCESS:          0  HIT:          0  MISS:          0
cpu0_L1I TOTAL     ACCESS:     342704  HIT:     342704  MISS:          0
cpu0_L1I LOAD      ACCESS:     342704  HIT:     342704  MISS:          0
cpu0_L1I RFO       ACCESS:          0  HIT:          0  MISS:          0
cpu0_L1I PREFETCH  ACCESS:          0  HIT:          0  MISS:          0
cpu0_L1I WRITEBACK ACCESS:          0  HIT:          0  MISS:          0
cpu0_STLB TOTAL     ACCESS:       8123  HIT:       8112  MISS:         11
cpu0_STLB LOAD      ACCESS:       7254  HIT:       7243  MISS:         11
cpu0_STLB RFO       ACCESS:        869  HIT:        869  MISS:          0
cpu0_STLB PREFETCH  ACCESS:          0  HIT:          0  MISS:          0
cpu0_STLB WRITEBACK ACCESS:          0  HIT:          0  MISS:          0
cpu0_L1D TOTAL     ACCESS:    5754000  HIT:    5752397  MISS:       1603
cpu0_L1D LOAD      ACCESS:    3718759  HIT:    3717302  MISS:       1457
cpu0_L1D RFO       ACCESS:    2035230  HIT:    2035095  MISS:        135
cpu0_L1D PREFETCH  ACCESS:          0  HIT:          0  MISS:          0
cpu0_L1D WRITEBACK ACCESS:          0  HIT:          0  MISS:          0
cpu0_L2C TOTAL     ACCESS:       1737  HIT:        783  MISS:        954
cpu0_L2C LOAD      ACCESS:       1457  HIT:        586  MISS:        871
cpu0_L2C RFO       ACCESS:        135  HIT:         52  MISS:         83
cpu0_L2C PREFETCH  ACCESS:          0  HIT:          0  MISS:          0
cpu0_L2C WRITEBACK ACCESS:        134  HIT:        134  MISS:          0
LLC TOTAL     ACCESS:        954  HIT:          0  MISS:        954
LLC LOAD      ACCESS:        871  HIT:          0  MISS:        871
LLC RFO       ACCESS:         83  HIT:          0  MISS:         83
LLC PREFETCH  ACCESS:          0  HIT:          0  MISS:          0
LLC WRITEBACK ACCESS:          0  HIT:          0  MISS:          0
Heartbeat CPU 0 instructions: 82000000 cycles: 37309669 heartbeat IPC: 1.29189 cumulative IPC: 1.28982 (Simulation time: 0 hr 24 min 38 sec) 

Region of Interest Statistics
cpu0_DTLB TOTAL     ACCESS:    4614544  HIT:    4605876  MISS:       8668
cpu0_DTLB LOAD      ACCESS:    3421431  HIT:    3413690  MISS:       7741
cpu0_DTLB RFO       ACCESS:    1193113  HIT:    1192186  MISS:        927
cpu0_DTLB PREFETCH  ACCESS:          0  HIT:          0  MISS:          0
cpu0_DTLB WRITEBACK ACCESS:          0  HIT:          0  MISS:          0
cpu0_ITLB TOTAL     ACCESS:    3612037  HIT:    3612037  MISS:          0
cpu0_ITLB LOAD      ACCESS:    3612037  HIT:    3612037  MISS:          0
cpu0_ITLB RFO       ACCESS:          0  HIT:          0  MISS:          0
cpu0_ITLB PREFETCH  ACCESS:          0  HIT:          0  MISS:          0
cpu0_ITLB WRITEBACK ACCESS:          0  HIT:          0  MISS:          0
cpu0_L1I TOTAL     ACCESS:     365562  HIT:     365562  MISS:          0
cpu0_L1I LOAD      ACCESS:     365562  HIT:     365562  MISS:          0
cpu0_L1I RFO       ACCESS:          0  HIT:          0  MISS:          0
cpu0_L1I PREFETCH  ACCESS:          0  HIT:          0  MISS:          0
cpu0_L1I WRITEBACK ACCESS:          0  HIT:          0  MISS:          0
cpu0_STLB TOTAL     ACCESS:       8668  HIT:       8657  MISS:         11
cpu0_STLB LOAD      ACCESS:       7741  HIT:       7730  MISS:         11
cpu0_STLB RFO       ACCESS:        927  HIT:        927  MISS:          0
cpu0_STLB PREFETCH  ACCESS:          0  HIT:          0  MISS:          0
cpu0_STLB WRITEBACK ACCESS:          0  HIT:          0  MISS:          0
cpu0_L1D TOTAL     ACCESS:    6137558  HIT:    6135872  MISS:       1686
cpu0_L1D LOAD      ACCESS:    3966671  HIT:    3965140  MISS:       1531
cpu0_L1D RFO       ACCESS:    2170876  HIT:    2170732  MISS:        144
cpu0_L1D PREFETCH  ACCESS:          0  HIT:          0  MISS:          0
cpu0_L1D WRITEBACK ACCESS:          0  HIT:          0  MISS:          0
cpu0_L2C TOTAL     ACCESS:       1827  HIT:        843  MISS:        984
cpu0_L2C LOAD      ACCESS:       1531  HIT:        633  MISS:        898
cpu0_L2C RFO       ACCESS:        144  HIT:         58  MISS:         86
cpu0_L2C PREFETCH  ACCESS:          0  HIT:          0  MISS:          0
cpu0_L2C WRITEBACK ACCESS:        141  HIT:        141  MISS:          0
LLC TOTAL     ACCESS:        984  HIT:          0  MISS:        984
LLC LOAD      ACCESS:        898  HIT:          0  MISS:        898
LLC RFO       ACCESS:         86  HIT:          0  MISS:         86
LLC PREFETCH  ACCESS:          0  HIT:          0  MISS:          0
LLC WRITEBACK ACCESS:          0  HIT:          0  MISS:          0
Heartbeat CPU 0 instructions: 84000001 cycles: 38861288 heartbeat IPC: 1.28898 cumulative IPC: 1.28977 (Simulation time: 0 hr 25 min 12 sec) 

Region of Interest Statistics
cpu0_DTLB TOTAL     ACCESS:    4902973  HIT:    4893760  MISS:       9213
cpu0_DTLB LOAD      ACCESS:    3635276  HIT:    3627048  MISS:       8228
cpu0_DTLB RFO       ACCESS:    1267697  HIT:    1266712  MISS:        985
cpu0_DTLB PREFETCH  ACCESS:          0  HIT:          0  MISS:          0
cpu0_DTLB WRITEBACK ACCESS:          0  HIT:          0  MISS:          0
cpu0_ITLB TOTAL     ACCESS:    3837779  HIT:    3837779  MISS:          0
cpu0_ITLB LOAD      ACCESS:    3837779  HIT:    3837779  MISS:          0
cpu0_ITLB RFO       ACCESS:          0  HIT:          0  MISS:          0
cpu0_ITLB PREFETCH  ACCESS:          0  HIT:          0  MISS:          0
cpu0_ITLB WRITEBACK ACCESS:          0  HIT:          0  MISS:          0
cpu0_L1I TOTAL     ACCESS:     388423  HIT:     388423  MISS:          0
cpu0_L1I LOAD      ACCESS:     388423  HIT:     388423  MISS:          0
cpu0_L1I RFO       ACCESS:          0  HIT:          0  MISS:          0
cpu0_L1I PREFETCH  ACCESS:          0  HIT:          0  MISS:          0
cpu0_L1I WRITEBACK ACCESS:          0  HIT:          0  MISS:          0
cpu0_STLB TOTAL     ACCESS:       9213  HIT:       9201  MISS:         12
cpu0_STLB LOAD      ACCESS:       8228  HIT:       8216  MISS:         12
cpu0_STLB RFO       ACCESS:        985  HIT:        985  MISS:          0
cpu0_STLB PREFETCH  ACCESS:          0  HIT:          0  MISS:          0
cpu0_STLB WRITEBACK ACCESS:          0  HIT:          0  MISS:          0
cpu0_L1D TOTAL     ACCESS:    6521211  HIT:    6519414  MISS:       1797
cpu0_L1D LOAD      ACCESS:    4214606  HIT:    4212975  MISS:       1631
cpu0_L1D RFO       ACCESS:    2306593  HIT:    2306439  MISS:        154
cpu0_L1D PREFETCH  ACCESS:          0  HIT:          0  MISS:          0
cpu0_L1D WRITEBACK ACCESS:          0  HIT:          0  MISS:          0
cpu0_L2C TOTAL     ACCESS:       1948  HIT:        882  MISS:       1066
cpu0_L2C LOAD      ACCESS:       1631  HIT:        659  MISS:        972
cpu0_L2C RFO       ACCESS:        154  HIT:         60  MISS:         94
cpu0_L2C PREFETCH  ACCESS:          0  HIT:          0  MISS:          0
cpu0_L2C WRITEBACK ACCESS:        151  HIT:        151  MISS:          0
LLC TOTAL     ACCESS:       1068  HIT:          2  MISS:       1066
LLC LOAD      ACCESS:        972  HIT:          0  MISS:        972
LLC RFO       ACCESS:         94  HIT:          0  MISS:         94
LLC PREFETCH  ACCESS:          0  HIT:          0  MISS:          0
LLC WRITEBACK ACCESS:          2  HIT:          2  MISS:          0
Heartbeat CPU 0 instructions: 86000002 cycles: 40410291 heartbeat IPC: 1.29115 cumulative IPC: 1.28985 (Simulation time: 0 hr 25 min 47 sec) 

Region of Interest Statistics
cpu0_DTLB TOTAL     ACCESS:    5191378  HIT:    5181618  MISS:       9760
cpu0_DTLB LOAD      ACCESS:    3849103  HIT:    3840387  MISS:       8716
cpu0_DTLB RFO       ACCESS:    1342275  HIT:    1341231  MISS:       1044
cpu0_DTLB PREFETCH  ACCESS:          0  HIT:          0  MISS:          0
cpu0_DTLB WRITEBACK ACCESS:          0  HIT:          0  MISS:          0
cpu0_ITLB TOTAL     ACCESS:    4063511  HIT:    4063511  MISS:          0
cpu0_ITLB LOAD      ACCESS:    4063511  HIT:    4063511  MISS:          0
cpu0_ITLB RFO       ACCESS:          0  HIT:          0  MISS:          0
cpu0_ITLB PREFETCH  ACCESS:          0  HIT:          0  MISS:          0
cpu0_ITLB WRITEBACK ACCESS:          0  HIT:          0  MISS:          0
cpu0_L1I TOTAL     ACCESS:     411285  HIT:     411285  MISS:          0
cpu0_L1I LOAD      ACCESS:     411285  HIT:     411285  MISS:          0
cpu0_L1I RFO       ACCESS:          0  HIT:          0  MISS:          0
cpu0_L1I PREFETCH  ACCESS:          0  HIT:          0  MISS:          0
cpu0_L1I WRITEBACK ACCESS:          0  HIT:          0  MISS:          0
cpu0_STLB TOTAL     ACCESS:       9760  HIT:       9747  MISS:         13
cpu0_STLB LOAD      ACCESS:       8716  HIT:       8703  MISS:         13
cpu0_STLB RFO       ACCESS:       1044  HIT:       1044  MISS:          0
cpu0_STLB PREFETCH  ACCESS:          0  HIT:          0  MISS:          0
cpu0_STLB WRITEBACK ACCESS:          0  HIT:          0  MISS:          0
cpu0_L1D TOTAL     ACCESS:    6904902  HIT:    6903028  MISS:       1874
cpu0_L1D LOAD      ACCESS:    4462569  HIT:    4460869  MISS:       1700
cpu0_L1D RFO       ACCESS:    2442320  HIT:    2442159  MISS:        161
cpu0_L1D PREFETCH  ACCESS:          0  HIT:          0  MISS:          0
cpu0_L1D WRITEBACK ACCESS:          0  HIT:          0  MISS:          0
cpu0_L2C TOTAL     ACCESS:       2031  HIT:        925  MISS:       1106
cpu0_L2C LOAD      ACCESS:       1700  HIT:        691  MISS:       1009
cpu0_L2C RFO       ACCESS:        161  HIT:         64  MISS:         97
cpu0_L2C PREFETCH  ACCESS:          0  HIT:          0  MISS:          0
cpu0_L2C WRITEBACK ACCESS:        157  HIT:        157  MISS:          0
LLC TOTAL     ACCESS:       1108  HIT:          2  MISS:       1106
LLC LOAD      ACCESS:       1009  HIT:          0  MISS:       1009
LLC RFO       ACCESS:         97  HIT:          0  MISS:         97
LLC PREFETCH  ACCESS:          0  HIT:          0  MISS:          0
LLC WRITEBACK ACCESS:          2  HIT:          2  MISS:          0
Heartbeat CPU 0 instructions: 88000001 cycles: 41964212 heartbeat IPC: 1.28707 cumulative IPC: 1.2897 (Simulation time: 0 hr 26 min 23 sec) 

Region of Interest Statistics
cpu0_DTLB TOTAL     ACCESS:    5479789  HIT:    5469482  MISS:      10307
cpu0_DTLB LOAD      ACCESS:    4062929  HIT:    4053725  MISS:       9204
cpu0_DTLB RFO       ACCESS:    1416860  HIT:    1415757  MISS:       1103
cpu0_DTLB PREFETCH  ACCESS:          0  HIT:          0  MISS:          0
cpu0_DTLB WRITEBACK ACCESS:          0  HIT:          0  MISS:          0
cpu0_ITLB TOTAL     ACCESS:    4289243  HIT:    4289243  MISS:          0
cpu0_ITLB LOAD      ACCESS:    4289243  HIT:    4289243  MISS:          0
cpu0_ITLB RFO       ACCESS:          0  HIT:          0  MISS:          0
cpu0_ITLB PREFETCH  ACCESS:          0  HIT:          0  MISS:          0
cpu0_ITLB WRITEBACK ACCESS:          0  HIT:          0  MISS:          0
cpu0_L1I TOTAL     ACCESS:     434143  HIT:     434143  MISS:          0
cpu0_L1I LOAD      ACCESS:     434143  HIT:     434143  MISS:          0
cpu0_L1I RFO       ACCESS:          0  HIT:          0  MISS:          0
cpu0_L1I PREFETCH  ACCESS:          0  HIT:          0  MISS:          0
cpu0_L1I WRITEBACK ACCESS:          0  HIT:          0  MISS:          0
cpu0_STLB TOTAL     ACCESS:      10307  HIT:      10294  MISS:         13
cpu0_STLB LOAD      ACCESS:       9204  HIT:       9191  MISS:         13
cpu0_STLB RFO       ACCESS:       1103  HIT:       1103  MISS:          0
cpu0_STLB PREFETCH  ACCESS:          0  HIT:          0  MISS:          0
cpu0_STLB WRITEBACK ACCESS:          0  HIT:          0  MISS:          0
cpu0_L1D TOTAL     ACCESS:    7288581  HIT:    7286577  MISS:       2004
cpu0_L1D LOAD      ACCESS:    4710521  HIT:    4708703  MISS:       1818
cpu0_L1D RFO       ACCESS:    2578047  HIT:    2577874  MISS:        173
cpu0_L1D PREFETCH  ACCESS:          0  HIT:          0  MISS:          0
cpu0_L1D WRITEBACK ACCESS:          0  HIT:          0  MISS:          0
cpu0_L2C TOTAL     ACCESS:       2174  HIT:        973  MISS:       1201
cpu0_L2C LOAD      ACCESS:       1818  HIT:        722  MISS:       1096
cpu0_L2C RFO       ACCESS:        173  HIT:         68  MISS:        105
cpu0_L2C PREFETCH  ACCESS:          0  HIT:          0  MISS:          0
cpu0_L2C WRITEBACK ACCESS:        170  HIT:        170  MISS:          0
LLC TOTAL     ACCESS:       1203  HIT:          2  MISS:       1201
LLC LOAD      ACCESS:       1096  HIT:          0  MISS:       1096
LLC RFO       ACCESS:        105  HIT:          0  MISS:        105
LLC PREFETCH  ACCESS:          0  HIT:          0  MISS:          0
LLC WRITEBACK ACCESS:          2  HIT:          2  MISS:          0
Heartbeat CPU 0 instructions: 90000004 cycles: 43512510 heartbeat IPC: 1.29174 cumulative IPC: 1.28981 (Simulation time: 0 hr 26 min 59 sec) 

Region of Interest Statistics
cpu0_DTLB TOTAL     ACCESS:    5768190  HIT:    5757336  MISS:      10854
cpu0_DTLB LOAD      ACCESS:    4276760  HIT:    4267068  MISS:       9692
cpu0_DTLB RFO       ACCESS:    1491430  HIT:    1490268  MISS:       1162
cpu0_DTLB PREFETCH  ACCESS:          0  HIT:          0  MISS:          0
cpu0_DTLB WRITEBACK ACCESS:          0  HIT:          0  MISS:          0
cpu0_ITLB TOTAL     ACCESS:    4514989  HIT:    4514989  MISS:          0
cpu0_ITLB LOAD      ACCESS:    4514989  HIT:    4514989  MISS:          0
cpu0_ITLB RFO       ACCESS:          0  HIT:          0  MISS:          0
cpu0_ITLB PREFETCH  ACCESS:          0  HIT:          0  MISS:          0
cpu0_ITLB WRITEBACK ACCESS:          0  HIT:          0  MISS:          0
cpu0_L1I TOTAL     ACCESS:     456998  HIT:     456998  MISS:          0
cpu0_L1I LOAD      ACCESS:     456998  HIT:     456998  MISS:          0
cpu0_L1I RFO       ACCESS:          0  HIT:          0  MISS:          0
cpu0_L1I PREFETCH  ACCESS:          0  HIT:          0  MISS:          0
cpu0_L1I WRITEBACK ACCESS:          0  HIT:          0  MISS:          0
cpu0_STLB TOTAL     ACCESS:      10854  HIT:      10841  MISS:         13
cpu0_STLB LOAD      ACCESS:       9692  HIT:       9679  MISS:         13
cpu0_STLB RFO       ACCESS:       1162  HIT:       1162  MISS:          0
cpu0_STLB PREFETCH  ACCESS:          0  HIT:          0  MISS:          0
cpu0_STLB WRITEBACK ACCESS:          0  HIT:          0  MISS:          0
cpu0_L1D TOTAL     ACCESS:    7672228  HIT:    7670135  MISS:       2093
cpu0_L1D LOAD      ACCESS:    4958468  HIT:    4956568  MISS:       1900
cpu0_L1D RFO       ACCESS:    2713747  HIT:    2713567  MISS:        180
cpu0_L1D PREFETCH  ACCESS:          0  HIT:          0  MISS:          0
cpu0_L1D WRITEBACK ACCESS:          0  HIT:          0  MISS:          0
cpu0_L2C TOTAL     ACCESS:       2272  HIT:       1034  MISS:       1238
cpu0_L2C LOAD      ACCESS:       1900  HIT:        770  MISS:       1130
cpu0_L2C RFO       ACCESS:        180  HIT:         72  MISS:        108
cpu0_L2C PREFETCH  ACCESS:          0  HIT:          0  MISS:          0
cpu0_L2C WRITEBACK ACCESS:        179  HIT:        179  MISS:          0
LLC TOTAL     ACCESS:       1240  HIT:          2  MISS:       1238
LLC LOAD      ACCESS:       1130  HIT:          0  MISS:       1130
LLC RFO       ACCESS:        108  HIT:          0  MISS:        108
LLC PREFETCH  ACCESS:          0  HIT:          0  MISS:          0
LLC WRITEBACK ACCESS:          2  HIT:          2  MISS:          0
Heartbeat CPU 0 instructions: 92000004 cycles: 45063560 heartbeat IPC: 1.28945 cumulative IPC: 1.28979 (Simulation time: 0 hr 27 min 36 sec) 

Region of Interest Statistics
cpu0_DTLB TOTAL     ACCESS:    6056624  HIT:    6045225  MISS:      11399
cpu0_DTLB LOAD      ACCESS:    4490607  HIT:    4480429  MISS:      10178
cpu0_DTLB RFO       ACCESS:    1566017  HIT:    1564796  MISS:       1221
cpu0_DTLB PREFETCH  ACCESS:          0  HIT:          0  MISS:          0
cpu0_DTLB WRITEBACK ACCESS:          0  HIT:          0  MISS:          0
cpu0_ITLB TOTAL     ACCESS:    4740739  HIT:    4740739  MISS:          0
cpu0_ITLB LOAD      ACCESS:    4740739  HIT:    4740739  MISS:          0
cpu0_ITLB RFO       ACCESS:          0  HIT:          0  MISS:          0
cpu0_ITLB PREFETCH  ACCESS:          0  HIT:          0  MISS:          0
cpu0_ITLB WRITEBACK ACCESS:          0  HIT:          0  MISS:          0
cpu0_L1I TOTAL     ACCESS:     479857  HIT:     479857  MISS:          0
cpu0_L1I LOAD      ACCESS:     479857  HIT:     479857  MISS:          0
cpu0_L1I RFO       ACCESS:          0  HIT:          0  MISS:          0
cpu0_L1I PREFETCH  ACCESS:          0  HIT:          0  MISS:          0
cpu0_L1I WRITEBACK ACCESS:          0  HIT:          0  MISS:          0
cpu0_STLB TOTAL     ACCESS:      11399  HIT:      11386  MISS:         13
cpu0_STLB LOAD      ACCESS:      10178  HIT:      10165  MISS:         13
cpu0_STLB RFO       ACCESS:       1221  HIT:       1221  MISS:          0
cpu0_STLB PREFETCH  ACCESS:          0  HIT:          0  MISS:          0
cpu0_STLB WRITEBACK ACCESS:          0  HIT:          0  MISS:          0
cpu0_L1D TOTAL     ACCESS:    8055816  HIT:    8053618  MISS:       2198
cpu0_L1D LOAD      ACCESS:    5206350  HIT:    5204354  MISS:       1996
cpu0_L1D RFO       ACCESS:    2849453  HIT:    2849264  MISS:        189
cpu0_L1D PREFETCH  ACCESS:          0  HIT:          0  MISS:          0
cpu0_L1D WRITEBACK ACCESS:          0  HIT:          0  MISS:          0
cpu0_L2C TOTAL     ACCESS:       2387  HIT:       1073  MISS:       1314
cpu0_L2C LOAD      ACCESS:       1996  HIT:        797  MISS:       1199
cpu0_L2C RFO       ACCESS:        189  HIT:         74  MISS:        115
cpu0_L2C PREFETCH  ACCESS:          0  HIT:          0  MISS:          0
cpu0_L2C WRITEBACK ACCESS:        189  HIT:        189  MISS:          0
LLC TOTAL     ACCESS:       1316  HIT:          2  MISS:       1314
LLC LOAD      ACCESS:       1199  HIT:          0  MISS:       1199
LLC RFO       ACCESS:        115  HIT:          0  MISS:        115
LLC PREFETCH  ACCESS:          0  HIT:          0  MISS:          0
LLC WRITEBACK ACCESS:          2  HIT:          2  MISS:          0
Heartbeat CPU 0 instructions: 94000002 cycles: 46612772 heartbeat IPC: 1.29098 cumulative IPC: 1.28984 (Simulation time: 0 hr 28 min 12 sec) 

Region of Interest Statistics
cpu0_DTLB TOTAL     ACCESS:    6345030  HIT:    6333085  MISS:      11945
cpu0_DTLB LOAD      ACCESS:    4704431  HIT:    4693766  MISS:      10665
cpu0_DTLB RFO       ACCESS:    1640599  HIT:    1639319  MISS:       1280
cpu0_DTLB PREFETCH  ACCESS:          0  HIT:          0  MISS:          0
cpu0_DTLB WRITEBACK ACCESS:          0  HIT:          0  MISS:          0
cpu0_ITLB TOTAL     ACCESS:    4966506  HIT:    4966506  MISS:          0
cpu0_ITLB LOAD      ACCESS:    4966506  HIT:    4966506  MISS:          0
cpu0_ITLB RFO       ACCESS:          0  HIT:          0  MISS:          0
cpu0_ITLB PREFETCH  ACCESS:          0  HIT:          0  MISS:          0
cpu0_ITLB WRITEBACK ACCESS:          0  HIT:          0  MISS:          0
cpu0_L1I TOTAL     ACCESS:     502707  HIT:     502707  MISS:          0
cpu0_L1I LOAD      ACCESS:     502707  HIT:     502707  MISS:          0
cpu0_L1I RFO       ACCESS:          0  HIT:          0  MISS:          0
cpu0_L1I PREFETCH  ACCESS:          0  HIT:          0  MISS:          0
cpu0_L1I WRITEBACK ACCESS:          0  HIT:          0  MISS:          0
cpu0_STLB TOTAL     ACCESS:      11945  HIT:      11931  MISS:         14
cpu0_STLB LOAD      ACCESS:      10665  HIT:      10651  MISS:         14
cpu0_STLB RFO       ACCESS:       1280  HIT:       1280  MISS:          0
cpu0_STLB PREFETCH  ACCESS:          0  HIT:          0  MISS:          0
cpu0_STLB WRITEBACK ACCESS:          0  HIT:          0  MISS:          0
cpu0_L1D TOTAL     ACCESS:    8439397  HIT:    8437114  MISS:       2283
cpu0_L1D LOAD      ACCESS:    5454230  HIT:    5452159  MISS:       2071
cpu0_L1D RFO       ACCESS:    2985153  HIT:    2984955  MISS:        198
cpu0_L1D PREFETCH  ACCESS:          0  HIT:          0  MISS:          0
cpu0_L1D WRITEBACK ACCESS:          0  HIT:          0  MISS:          0
cpu0_L2C TOTAL     ACCESS:       2481  HIT:       1130  MISS:       1351
cpu0_L2C LOAD      ACCESS:       2071  HIT:        838  MISS:       1233
cpu0_L2C RFO       ACCESS:        198  HIT:         80  MISS:        118
cpu0_L2C PREFETCH  ACCESS:          0  HIT:          0  MISS:          0
cpu0_L2C WRITEBACK ACCESS:        198  HIT:        198  MISS:          0
LLC TOTAL     ACCESS:       1353  HIT:          2  MISS:       1351
LLC LOAD      ACCESS:       1233  HIT:          0  MISS:       1233
LLC RFO       ACCESS:        118  HIT:          0  MISS:        118
LLC PREFETCH  ACCESS:          0  HIT:          0  MISS:          0
LLC WRITEBACK ACCESS:          2  HIT:          2  MISS:          0
Heartbeat CPU 0 instructions: 96000001 cycles: 48165669 heartbeat IPC: 1.28791 cumulative IPC: 1.28976 (Simulation time: 0 hr 28 min 48 sec) 

Region of Interest Statistics
cpu0_DTLB TOTAL     ACCESS:    6633443  HIT:    6620953  MISS:      12490
cpu0_DTLB LOAD      ACCESS:    4918275  HIT:    4907124  MISS:      11151
cpu0_DTLB RFO       ACCESS:    1715168  HIT:    1713829  MISS:       1339
cpu0_DTLB PREFETCH  ACCESS:          0  HIT:          0  MISS:          0
cpu0_DTLB WRITEBACK ACCESS:          0  HIT:          0  MISS:          0
cpu0_ITLB TOTAL     ACCESS:    5192281  HIT:    5192281  MISS:          0
cpu0_ITLB LOAD      ACCESS:    5192281  HIT:    5192281  MISS:          0
cpu0_ITLB RFO       ACCESS:          0  HIT:          0  MISS:          0
cpu0_ITLB PREFETCH  ACCESS:          0  HIT:          0  MISS:          0
cpu0_ITLB WRITEBACK ACCESS:          0  HIT:          0  MISS:          0
cpu0_L1I TOTAL     ACCESS:     525543  HIT:     525543  MISS:          0
cpu0_L1I LOAD      ACCESS:     525543  HIT:     525543  MISS:          0
cpu0_L1I RFO       ACCESS:          0  HIT:          0  MISS:          0
cpu0_L1I PREFETCH  ACCESS:          0  HIT:          0  MISS:          0
cpu0_L1I WRITEBACK ACCESS:          0  HIT:          0  MISS:          0
cpu0_STLB TOTAL     ACCESS:      12490  HIT:      12475  MISS:         15
cpu0_STLB LOAD      ACCESS:      11151  HIT:      11136  MISS:         15
cpu0_STLB RFO       ACCESS:       1339  HIT:       1339  MISS:          0
cpu0_STLB PREFETCH  ACCESS:          0  HIT:          0  MISS:          0
cpu0_STLB WRITEBACK ACCESS:          0  HIT:          0  MISS:          0
cpu0_L1D TOTAL     ACCESS:    8822975  HIT:    8820546  MISS:       2429
cpu0_L1D LOAD      ACCESS:    5702154  HIT:    5699950  MISS:       2204
cpu0_L1D RFO       ACCESS:    3120806  HIT:    3120596  MISS:        210
cpu0_L1D PREFETCH  ACCESS:          0  HIT:          0  MISS:          0
cpu0_L1D WRITEBACK ACCESS:          0  HIT:          0  MISS:          0
cpu0_L2C TOTAL     ACCESS:       2637  HIT:       1191  MISS:       1446
cpu0_L2C LOAD      ACCESS:       2204  HIT:        884  MISS:       1320
cpu0_L2C RFO       ACCESS:        210  HIT:         84  MISS:        126
cpu0_L2C PREFETCH  ACCESS:          0  HIT:          0  MISS:          0
cpu0_L2C WRITEBACK ACCESS:        208  HIT:        208  MISS:          0
LLC TOTAL     ACCESS:       1448  HIT:          2  MISS:       1446
LLC LOAD      ACCESS:       1320  HIT:          0  MISS:       1320
LLC RFO       ACCESS:        126  HIT:          0  MISS:        126
LLC PREFETCH  ACCESS:          0  HIT:          0  MISS:          0
LLC WRITEBACK ACCESS:          2  HIT:          2  MISS:          0
Heartbeat CPU 0 instructions: 98000002 cycles: 49714057 heartbeat IPC: 1.29167 cumulative IPC: 1.28984 (Simulation time: 0 hr 29 min 25 sec) 

Region of Interest Statistics
cpu0_DTLB TOTAL     ACCESS:    6921886  HIT:    6908852  MISS:      13034
cpu0_DTLB LOAD      ACCESS:    5132158  HIT:    5120521  MISS:      11637
cpu0_DTLB RFO       ACCESS:    1789728  HIT:    1788331  MISS:       1397
cpu0_DTLB PREFETCH  ACCESS:          0  HIT:          0  MISS:          0
cpu0_DTLB WRITEBACK ACCESS:          0  HIT:          0  MISS:          0
cpu0_ITLB TOTAL     ACCESS:    5418052  HIT:    5418052  MISS:          0
cpu0_ITLB LOAD      ACCESS:    5418052  HIT:    5418052  MISS:          0
cpu0_ITLB RFO       ACCESS:          0  HIT:          0  MISS:          0
cpu0_ITLB PREFETCH  ACCESS:          0  HIT:          0  MISS:          0
cpu0_ITLB WRITEBACK ACCESS:          0  HIT:          0  MISS:          0
cpu0_L1I TOTAL     ACCESS:     548352  HIT:     548352  MISS:          0
cpu0_L1I LOAD      ACCESS:     548352  HIT:     548352  MISS:          0
cpu0_L1I RFO       ACCESS:          0  HIT:          0  MISS:          0
cpu0_L1I PREFETCH  ACCESS:          0  HIT:          0  MISS:          0
cpu0_L1I WRITEBACK ACCESS:          0  HIT:          0  MISS:          0
cpu0_STLB TOTAL     ACCESS:      13034  HIT:      13019  MISS:         15
cpu0_STLB LOAD      ACCESS:      11637  HIT:      11622  MISS:         15
cpu0_STLB RFO       ACCESS:       1397  HIT:       1397  MISS:          0
cpu0_STLB PREFETCH  ACCESS:          0  HIT:          0  MISS:          0
cpu0_STLB WRITEBACK ACCESS:          0  HIT:          0  MISS:          0
cpu0_L1D TOTAL     ACCESS:    9206557  HIT:    9204032  MISS:       2525
cpu0_L1D LOAD      ACCESS:    5950095  HIT:    5947804  MISS:       2291
cpu0_L1D RFO       ACCESS:    3256447  HIT:    3256228  MISS:        219
cpu0_L1D PREFETCH  ACCESS:          0  HIT:          0  MISS:          0
cpu0_L1D WRITEBACK ACCESS:          0  HIT:          0  MISS:          0
cpu0_L2C TOTAL     ACCESS:       2740  HIT:       1264  MISS:       1476
cpu0_L2C LOAD      ACCESS:       2291  HIT:        944  MISS:       1347
cpu0_L2C RFO       ACCESS:        219  HIT:         90  MISS:        129
cpu0_L2C PREFETCH  ACCESS:          0  HIT:          0  MISS:          0
cpu0_L2C WRITEBACK ACCESS:        215  HIT:        215  MISS:          0
LLC TOTAL     ACCESS:       1478  HIT:          2  MISS:       1476
LLC LOAD      ACCESS:       1347  HIT:          0  MISS:       1347
LLC RFO       ACCESS:        129  HIT:          0  MISS:        129
LLC PREFETCH  ACCESS:          0  HIT:          0  MISS:          0
LLC WRITEBACK ACCESS:          2  HIT:          2  MISS:          0
Heartbeat CPU 0 instructions: 100000002 cycles: 51265733 heartbeat IPC: 1.28893 cumulative IPC: 1.2898 (Simulation time: 0 hr 30 min 2 sec) 

Region of Interest Statistics
cpu0_DTLB TOTAL     ACCESS:    7210318  HIT:    7196739  MISS:      13579
cpu0_DTLB LOAD      ACCESS:    5346022  HIT:    5333899  MISS:      12123
cpu0_DTLB RFO       ACCESS:    1864296  HIT:    1862840  MISS:       1456
cpu0_DTLB PREFETCH  ACCESS:          0  HIT:          0  MISS:          0
cpu0_DTLB WRITEBACK ACCESS:          0  HIT:          0  MISS:          0
cpu0_ITLB TOTAL     ACCESS:    5643804  HIT:    5643804  MISS:          0
cpu0_ITLB LOAD      ACCESS:    5643804  HIT:    5643804  MISS:          0
cpu0_ITLB RFO       ACCESS:          0  HIT:          0  MISS:          0
cpu0_ITLB PREFETCH  ACCESS:          0  HIT:          0  MISS:          0
cpu0_ITLB WRITEBACK ACCESS:          0  HIT:          0  MISS:          0
cpu0_L1I TOTAL     ACCESS:     571211  HIT:     571211  MISS:          0
cpu0_L1I LOAD      ACCESS:     571211  HIT:     571211  MISS:          0
cpu0_L1I RFO       ACCESS:          0  HIT:          0  MISS:          0
cpu0_L1I PREFETCH  ACCESS:          0  HIT:          0  MISS:          0
cpu0_L1I WRITEBACK ACCESS:          0  HIT:          0  MISS:          0
cpu0_STLB TOTAL     ACCESS:      13579  HIT:      13563  MISS:         16
cpu0_STLB LOAD      ACCESS:      12123  HIT:      12107  MISS:         16
cpu0_STLB RFO       ACCESS:       1456  HIT:       1456  MISS:          0
cpu0_STLB PREFETCH  ACCESS:          0  HIT:          0  MISS:          0
cpu0_STLB WRITEBACK ACCESS:          0  HIT:          0  MISS:          0
cpu0_L1D TOTAL     ACCESS:    9590150  HIT:    9587500  MISS:       2650
cpu0_L1D LOAD      ACCESS:    6198002  HIT:    6195598  MISS:       2404
cpu0_L1D RFO       ACCESS:    3392132  HIT:    3391902  MISS:        230
cpu0_L1D PREFETCH  ACCESS:          0  HIT:          0  MISS:          0
cpu0_L1D WRITEBACK ACCESS:          0  HIT:          0  MISS:          0
cpu0_L2C TOTAL     ACCESS:       2878  HIT:       1319  MISS:       1559
cpu0_L2C LOAD      ACCESS:       2404  HIT:        983  MISS:       1421
cpu0_L2C RFO       ACCESS:        230  HIT:         93  MISS:        137
cpu0_L2C PREFETCH  ACCESS:          0  HIT:          0  MISS:          0
cpu0_L2C WRITEBACK ACCESS:        228  HIT:        228  MISS:          0
LLC TOTAL     ACCESS:       1562  HIT:          4  MISS:       1558
LLC LOAD      ACCESS:       1421  HIT:          0  MISS:       1421
LLC RFO       ACCESS:        137  HIT:          0  MISS:        137
LLC PREFETCH  ACCESS:          0  HIT:          0  MISS:          0
LLC WRITEBACK ACCESS:          3  HIT:          3  MISS:          0
Heartbeat CPU 0 instructions: 102000002 cycles: 52814647 heartbeat IPC: 1.29123 cumulative IPC: 1.28986 (Simulation time: 0 hr 30 min 37 sec) 

Region of Interest Statistics
cpu0_DTLB TOTAL     ACCESS:    7498743  HIT:    7484619  MISS:      14124
cpu0_DTLB LOAD      ACCESS:    5559901  HIT:    5547292  MISS:      12609
cpu0_DTLB RFO       ACCESS:    1938842  HIT:    1937327  MISS:       1515
cpu0_DTLB PREFETCH  ACCESS:          0  HIT:          0  MISS:          0
cpu0_DTLB WRITEBACK ACCESS:          0  HIT:          0  MISS:          0
cpu0_ITLB TOTAL     ACCESS:    5869562  HIT:    5869562  MISS:          0
cpu0_ITLB LOAD      ACCESS:    5869562  HIT:    5869562  MISS:          0
cpu0_ITLB RFO       ACCESS:          0  HIT:          0  MISS:          0
cpu0_ITLB PREFETCH  ACCESS:          0  HIT:          0  MISS:          0
cpu0_ITLB WRITEBACK ACCESS:          0  HIT:          0  MISS:          0
cpu0_L1I TOTAL     ACCESS:     594053  HIT:     594053  MISS:          0
cpu0_L1I LOAD      ACCESS:     594053  HIT:     594053  MISS:          0
cpu0_L1I RFO       ACCESS:          0  HIT:          0  MISS:          0
cpu0_L1I PREFETCH  ACCESS:          0  HIT:          0  MISS:          0
cpu0_L1I WRITEBACK ACCESS:          0  HIT:          0  MISS:          0
cpu0_STLB TOTAL     ACCESS:      14124  HIT:      14108  MISS:         16
cpu0_STLB LOAD      ACCESS:      12609  HIT:      12593  MISS:         16
cpu0_STLB RFO       ACCESS:       1515  HIT:       1515  MISS:          0
cpu0_STLB PREFETCH  ACCESS:          0  HIT:          0  MISS:          0
cpu0_STLB WRITEBACK ACCESS:          0  HIT:          0  MISS:          0
cpu0_L1D TOTAL     ACCESS:    9973727  HIT:    9970994  MISS:       2733
cpu0_L1D LOAD      ACCESS:    6445941  HIT:    6443461  MISS:       2480
cpu0_L1D RFO       ACCESS:    3527770  HIT:    3527533  MISS:        237
cpu0_L1D PREFETCH  ACCESS:          0  HIT:          0  MISS:          0
cpu0_L1D WRITEBACK ACCESS:          0  HIT:          0  MISS:          0
cpu0_L2C TOTAL     ACCESS:       2967  HIT:       1368  MISS:       1599
cpu0_L2C LOAD      ACCESS:       2480  HIT:       1022  MISS:       1458
cpu0_L2C RFO       ACCESS:        237  HIT:         97  MISS:        140
cpu0_L2C PREFETCH  ACCESS:          0  HIT:          0  MISS:          0
cpu0_L2C WRITEBACK ACCESS:        234  HIT:        234  MISS:          0
LLC TOTAL     ACCESS:       1602  HIT:          4  MISS:       1598
LLC LOAD      ACCESS:       1458  HIT:          0  MISS:       1458
LLC RFO       ACCESS:        140  HIT:          0  MISS:        140
LLC PREFETCH  ACCESS:          0  HIT:          0  MISS:          0
LLC WRITEBACK ACCESS:          3  HIT:          3  MISS:          0
Heartbeat CPU 0 instructions: 104000002 cycles: 54368468 heartbeat IPC: 1.28715 cumulative IPC: 1.28976 (Simulation time: 0 hr 31 min 13 sec) 

Region of Interest Statistics
cpu0_DTLB TOTAL     ACCESS:    7787141  HIT:    7772486  MISS:      14655
cpu0_DTLB LOAD      ACCESS:    5773741  HIT:    5760659  MISS:      13082
cpu0_DTLB RFO       ACCESS:    2013400  HIT:    2011827  MISS:       1573
cpu0_DTLB PREFETCH  ACCESS:          0  HIT:          0  MISS:          0
cpu0_DTLB WRITEBACK ACCESS:          0  HIT:          0  MISS:          0
cpu0_ITLB TOTAL     ACCESS:    6095383  HIT:    6095383  MISS:          0
cpu0_ITLB LOAD      ACCESS:    6095383  HIT:    6095383  MISS:          0
cpu0_ITLB RFO       ACCESS:          0  HIT:          0  MISS:          0
cpu0_ITLB PREFETCH  ACCESS:          0  HIT:          0  MISS:          0
cpu0_ITLB WRITEBACK ACCESS:          0  HIT:          0  MISS:          0
cpu0_L1I TOTAL     ACCESS:     616791  HIT:     616791  MISS:          0
cpu0_L1I LOAD      ACCESS:     616791  HIT:     616791  MISS:          0
cpu0_L1I RFO       ACCESS:          0  HIT:          0  MISS:          0
cpu0_L1I PREFETCH  ACCESS:          0  HIT:          0  MISS:          0
cpu0_L1I WRITEBACK ACCESS:          0  HIT:          0  MISS:          0
cpu0_STLB TOTAL     ACCESS:      14655  HIT:      14639  MISS:         16
cpu0_STLB LOAD      ACCESS:      13082  HIT:      13066  MISS:         16
cpu0_STLB RFO       ACCESS:       1573  HIT:       1573  MISS:          0
cpu0_STLB PREFETCH  ACCESS:          0  HIT:          0  MISS:          0
cpu0_STLB WRITEBACK ACCESS:          0  HIT:          0  MISS:          0
cpu0_L1D TOTAL     ACCESS:   10357333  HIT:   10354477  MISS:       2856
cpu0_L1D LOAD      ACCESS:    6693901  HIT:    6691309  MISS:       2592
cpu0_L1D RFO       ACCESS:    3663416  HIT:    3663168  MISS:        248
cpu0_L1D PREFETCH  ACCESS:          0  HIT:          0  MISS:          0
cpu0_L1D WRITEBACK ACCESS:          0  HIT:          0  MISS:          0
cpu0_L2C TOTAL     ACCESS:       3098  HIT:       1405  MISS:       1693
cpu0_L2C LOAD      ACCESS:       2592  HIT:       1048  MISS:       1544
cpu0_L2C RFO       ACCESS:        248  HIT:        100  MISS:        148
cpu0_L2C PREFETCH  ACCESS:          0  HIT:          0  MISS:          0
cpu0_L2C WRITEBACK ACCESS:        242  HIT:        242  MISS:          0
LLC TOTAL     ACCESS:       1696  HIT:          4  MISS:       1692
LLC LOAD      ACCESS:       1544  HIT:          0  MISS:       1544
LLC RFO       ACCESS:        148  HIT:          0  MISS:        148
LLC PREFETCH  ACCESS:          0  HIT:          0  MISS:          0
LLC WRITEBACK ACCESS:          3  HIT:          3  MISS:          0
Heartbeat CPU 0 instructions: 106000003 cycles: 55916727 heartbeat IPC: 1.29177 cumulative IPC: 1.28983 (Simulation time: 0 hr 31 min 48 sec) 

Region of Interest Statistics
cpu0_DTLB TOTAL     ACCESS:    8075583  HIT:    8060382  MISS:      15201
cpu0_DTLB LOAD      ACCESS:    5987622  HIT:    5974053  MISS:      13569
cpu0_DTLB RFO       ACCESS:    2087961  HIT:    2086329  MISS:       1632
cpu0_DTLB PREFETCH  ACCESS:          0  HIT:          0  MISS:          0
cpu0_DTLB WRITEBACK ACCESS:          0  HIT:          0  MISS:          0
cpu0_ITLB TOTAL     ACCESS:    6321140  HIT:    6321140  MISS:          0
cpu0_ITLB LOAD      ACCESS:    6321140  HIT:    6321140  MISS:          0
cpu0_ITLB RFO       ACCESS:          0  HIT:          0  MISS:          0
cpu0_ITLB PREFETCH  ACCESS:          0  HIT:          0  MISS:          0
cpu0_ITLB WRITEBACK ACCESS:          0  HIT:          0  MISS:          0
cpu0_L1I TOTAL     ACCESS:     639629  HIT:     639629  MISS:          0
cpu0_L1I LOAD      ACCESS:     639629  HIT:     639629  MISS:          0
cpu0_L1I RFO       ACCESS:          0  HIT:          0  MISS:          0
cpu0_L1I PREFETCH  ACCESS:          0  HIT:          0  MISS:          0
cpu0_L1I WRITEBACK ACCESS:          0  HIT:          0  MISS:          0
cpu0_STLB TOTAL     ACCESS:      15201  HIT:      15185  MISS:         16
cpu0_STLB LOAD      ACCESS:      13569  HIT:      13553  MISS:         16
cpu0_STLB RFO       ACCESS:       1632  HIT:       1632  MISS:          0
cpu0_STLB PREFETCH  ACCESS:          0  HIT:          0  MISS:          0
cpu0_STLB WRITEBACK ACCESS:          0  HIT:          0  MISS:          0
cpu0_L1D TOTAL     ACCESS:   10740979  HIT:   10738045  MISS:       2934
cpu0_L1D LOAD      ACCESS:    6941877  HIT:    6939216  MISS:       2661
cpu0_L1D RFO       ACCESS:    3799086  HIT:    3798829  MISS:        257
cpu0_L1D PREFETCH  ACCESS:          0  HIT:          0  MISS:          0
cpu0_L1D WRITEBACK ACCESS:          0  HIT:          0  MISS:          0
cpu0_L2C TOTAL     ACCESS:       3188  HIT:       1462  MISS:       1726
cpu0_L2C LOAD      ACCESS:       2661  HIT:       1086  MISS:       1575
cpu0_L2C RFO       ACCESS:        257  HIT:        107  MISS:        150
cpu0_L2C PREFETCH  ACCESS:          0  HIT:          0  MISS:          0
cpu0_L2C WRITEBACK ACCESS:        254  HIT:        254  MISS:          0
LLC TOTAL     ACCESS:       1730  HIT:          5  MISS:       1725
LLC LOAD      ACCESS:       1575  HIT:          0  MISS:       1575
[...]
cpu0_STLB LOAD      ACCESS:    1088714  HIT:    1086069  MISS:       2645
cpu0_STLB RFO       ACCESS:     114392  HIT:     114362  MISS:         30
cpu0_STLB PREFETCH  ACCESS:          0  HIT:          0  MISS:          0
cpu0_STLB WRITEBACK ACCESS:          0  HIT:          0  MISS:          0
cpu0_L1D TOTAL     ACCESS:  291735935  HIT:  291269499  MISS:     466436
cpu0_L1D LOAD      ACCESS:  189913544  HIT:  189518382  MISS:     395162
cpu0_L1D RFO       ACCESS:  101819728  HIT:  101750145  MISS:      69583
cpu0_L1D PREFETCH  ACCESS:          0  HIT:          0  MISS:          0
cpu0_L1D WRITEBACK ACCESS:          0  HIT:          0  MISS:          0
cpu0_L2C TOTAL     ACCESS:     574137  HIT:     282623  MISS:     291514
cpu0_L2C LOAD      ACCESS:     395225  HIT:     167970  MISS:     227255
cpu0_L2C RFO       ACCESS:      69581  HIT:       6271  MISS:      63310
cpu0_L2C PREFETCH  ACCESS:          0  HIT:          0  MISS:          0
cpu0_L2C WRITEBACK ACCESS:     107640  HIT:     107490  MISS:        150
LLC TOTAL     ACCESS:     381384  HIT:     279392  MISS:     101992
LLC LOAD      ACCESS:     227254  HIT:     135923  MISS:      91331
LLC RFO       ACCESS:      63310  HIT:      52650  MISS:      10660
LLC PREFETCH  ACCESS:          0  HIT:          0  MISS:          0
LLC WRITEBACK ACCESS:      90021  HIT:      90021  MISS:          0
Finished CPU 0 instructions: 1500000003 cycles: 1159468301 cumulative IPC: 1.2937 (Simulation time: 7 hr 59 min 17 sec) 

ChampSim completed all CPUs

Region of Interest Statistics

CPU 0 cumulative IPC: 1.2937 instructions: 1500000003 cycles: 1159468301
cpu0_DTLB TOTAL     ACCESS:  220433809  HIT:  219230705  MISS:    1203104
cpu0_DTLB LOAD      ACCESS:  164428678  HIT:  163339966  MISS:    1088712
cpu0_DTLB RFO       ACCESS:   56005131  HIT:   55890739  MISS:     114392
cpu0_DTLB PREFETCH  ACCESS:          0  HIT:          0  MISS:          0
cpu0_DTLB WRITEBACK ACCESS:          0  HIT:          0  MISS:          0
cpu0_DTLB TRANSLATION ACCESS:          0  HIT:          0  MISS:          0
cpu0_DTLB PREFETCH  REQUESTED:          0  ISSUED:          0  USEFUL:          0  USELESS:          0
cpu0_DTLB AVERAGE MISS LATENCY: 9.646 cycles
cpu0_ITLB TOTAL     ACCESS:  166145984  HIT:  166145982  MISS:          2
cpu0_ITLB LOAD      ACCESS:  166145984  HIT:  166145982  MISS:          2
cpu0_ITLB RFO       ACCESS:          0  HIT:          0  MISS:          0
cpu0_ITLB PREFETCH  ACCESS:          0  HIT:          0  MISS:          0
cpu0_ITLB WRITEBACK ACCESS:          0  HIT:          0  MISS:          0
cpu0_ITLB TRANSLATION ACCESS:          0  HIT:          0  MISS:          0
cpu0_ITLB PREFETCH  REQUESTED:          0  ISSUED:          0  USEFUL:          0  USELESS:          0
cpu0_ITLB AVERAGE MISS LATENCY: 217 cycles
cpu0_L1I TOTAL     ACCESS:   20899270  HIT:   20899196  MISS:         74
cpu0_L1I LOAD      ACCESS:   20899270  HIT:   20899196  MISS:         74
cpu0_L1I RFO       ACCESS:          0  HIT:          0  MISS:          0
cpu0_L1I PREFETCH  ACCESS:          0  HIT:          0  MISS:          0
cpu0_L1I WRITEBACK ACCESS:          0  HIT:          0  MISS:          0
cpu0_L1I TRANSLATION ACCESS:          0  HIT:          0  MISS:          0
cpu0_L1I PREFETCH  REQUESTED:          0  ISSUED:          0  USEFUL:          0  USELESS:          0
cpu0_L1I AVERAGE MISS LATENCY: 276.405 cycles
cpu0_STLB TOTAL     ACCESS:    1203106  HIT:    1200431  MISS:       2675
cpu0_STLB LOAD      ACCESS:    1088714  HIT:    1086069  MISS:       2645
cpu0_STLB RFO       ACCESS:     114392  HIT:     114362  MISS:         30
cpu0_STLB PREFETCH  ACCESS:          0  HIT:          0  MISS:          0
cpu0_STLB WRITEBACK ACCESS:          0  HIT:          0  MISS:          0
cpu0_STLB TRANSLATION ACCESS:          0  HIT:          0  MISS:          0
cpu0_STLB PREFETCH  REQUESTED:          0  ISSUED:          0  USEFUL:          0  USELESS:          0
cpu0_STLB AVERAGE MISS LATENCY: 218.664 cycles
cpu0_L1D TOTAL     ACCESS:  291735935  HIT:  291269499  MISS:     466436
cpu0_L1D LOAD      ACCESS:  189913544  HIT:  189518382  MISS:     395162
cpu0_L1D RFO       ACCESS:  101819728  HIT:  101750145  MISS:      69583
cpu0_L1D PREFETCH  ACCESS:          0  HIT:          0  MISS:          0
cpu0_L1D WRITEBACK ACCESS:          0  HIT:          0  MISS:          0
cpu0_L1D TRANSLATION ACCESS:       2663  HIT:        972  MISS:       1691
cpu0_L1D PREFETCH  REQUESTED:          0  ISSUED:          0  USEFUL:          0  USELESS:          0
cpu0_L1D AVERAGE MISS LATENCY: 72.6129 cycles
cpu0_L2C TOTAL     ACCESS:     574137  HIT:     282623  MISS:     291514
cpu0_L2C LOAD      ACCESS:     395225  HIT:     167970  MISS:     227255
cpu0_L2C RFO       ACCESS:      69581  HIT:       6271  MISS:      63310
cpu0_L2C PREFETCH  ACCESS:          0  HIT:          0  MISS:          0
cpu0_L2C WRITEBACK ACCESS:     107640  HIT:     107490  MISS:        150
cpu0_L2C TRANSLATION ACCESS:       1691  HIT:        892  MISS:        799
cpu0_L2C PREFETCH  REQUESTED:          0  ISSUED:          0  USEFUL:          0  USELESS:          0
cpu0_L2C AVERAGE MISS LATENCY: 98.557 cycles
LLC TOTAL     ACCESS:     381384  HIT:     279392  MISS:     101992
LLC LOAD      ACCESS:     227254  HIT:     135923  MISS:      91331
LLC RFO       ACCESS:      63310  HIT:      52650  MISS:      10660
LLC PREFETCH  ACCESS:          0  HIT:          0  MISS:          0
LLC WRITEBACK ACCESS:      90021  HIT:      90021  MISS:          0
LLC TRANSLATION ACCESS:        799  HIT:        798  MISS:          1
LLC PREFETCH  REQUESTED:          0  ISSUED:          0  USEFUL:          0  USELESS:          0
LLC AVERAGE MISS LATENCY: 221.705 cycles
~~~~~~~~~~Reuse Distance Profiler output~~~~~~~~~~
0	68441456	21793360
1	39998288	33500944
2	40268448	33021536
3	24554928	18865248
4	19532144	16175952
5	10442960	7666512
6	10085056	6843456
7	6855808	4175200
8	5697840	4137616
9	4641632	3402528
10	2833440	1971424
11	4301856	2953504
12	3082192	1983264
13	3060768	2144848
14	1997664	1219040
15	1370128	769888
16	1576064	1119456
17	1035248	665520
18	961840	833120
19	746304	566880
20	1152944	697856
21	1268752	1049040
22	627504	282944
23	784960	375520
24	778816	474064
25	816592	490112
26	696080	208480
27	708496	670880
28	470928	280608
29	438896	281216
30	419728	249632
31	891456	725952
32	688880	512848
33	281392	245312
34	247392	162800
35	208240	161888
36	184016	42928
37	335568	309056
38	63328	53248
39	127072	102176
40	477168	82960
41	451328	196352
42	481040	386672
43	444080	354832
44	241616	211360
45	191824	92784
46	171072	126960
47	238992	218256
48	353680	262672
49	246384	167840
50	327712	104624
51	452784	137440
52	151648	80272
53	702416	277200
54	135360	73712
55	218848	76880
56	106816	90000
57	168624	105024
58	488464	365600
59	445616	175408
60	341792	301136
61	166240	64704
62	134336	95904
63	563584	432224
64	232912	151616
66	535568	460608
68	545216	396224
70	303104	166064
72	608912	478000
74	273840	265200
76	492688	107216
78	196256	127632
80	378240	154640
82	475520	278112
84	971968	600608
86	625440	529472
88	288336	205504
90	242976	158464
92	451056	254208
94	238832	116784
96	106464	5552
98	136896	68240
100	168736	151360
102	256288	84208
104	372224	212336
106	238720	120416
108	209888	207392
110	108208	46112
112	217856	152672
114	165600	70704
116	93936	84864
118	333360	260144
120	291600	210608
122	249888	143408
124	534992	309936
126	249424	83600
128	612480	407440
132	435472	353888
136	513168	396560
140	325008	173952
144	240752	179120
148	209536	60304
152	209152	32384
156	133568	43248
160	564112	439968
164	712224	618272
168	822464	675008
172	240336	90704
176	41600	39520
180	8848	7072
184	109456	18208
188	115968	63376
192	281008	125040
196	48816	7008
200	131952	49520
204	130608	127552
208	177120	113120
212	297936	202528
216	804912	745744
220	94976	69984
224	166112	131392
228	190480	77472
232	187088	149328
236	347104	287472
240	333056	333056
244	407696	407696
248	116176	116176
252	30784	30784
256	30208	0
264	29872	29872
272	2640	2032
280	2048	2048
288	32	32
296	2000	32
304	21232	544
312	60704	60128
320	117648	86896
328	32704	960
336	150544	60512
344	23872	2496
352	48096	30544
360	61856	60864
368	22816	1920
376	30016	29056
384	90576	57472
392	33296	0
400	1472	496
408	133440	104896
416	3200	2000
424	28704	16
432	21824	0
440	20992	0
448	1744	0
456	8352	0
464	496	0
472	57984	5008
480	9984	0
488	47328	0
496	60944	38512
504	63632	63632
512	43840	43840
528	16	16
544	32512	32000
560	18528	17968
576	9456	0
592	20288	16
608	158048	142896
624	42800	560
640	3056	3056
656	528	528
672	3872	3872
688	0	0
704	48	48
720	0	0
736	0	0
752	0	0
768	576	576
784	496	496
800	0	0
816	5040	5040
832	4960	4960
848	0	0
864	19744	19744
880	42096	42096
896	3584	3568
912	37760	37760
928	20304	20304
944	0	0
960	0	0
976	0	0
992	29872	29872
1008	75488	75488
1024	75088	75088
1056	22016	464
1088	201696	189264
1120	34544	0
1152	266544	119056
1184	62656	976
1216	103472	102464
1248	1088	48
1280	57824	0
1312	59728	976
1344	976	0
1376	30256	16
1408	56896	16
1440	57808	64
1472	6336	5008
1504	2128	1280
1536	80	64
1568	944	16
1600	79696	976
1632	23088	1088
1664	11296	0
1696	39712	480
1728	2576	1520
1760	2352	960
1792	1584	16
1824	2960	0
1856	896	896
1888	2400	992
1920	59568	28960
1952	32000	2592
1984	57152	5568
2016	32752	2720
2048	112464	33600
2112	132976	50816
2176	198864	91888
2240	88000	69392
2304	159872	31456
2368	234592	146512
2432	77232	46304
2496	148336	89344
2560	103040	62160
2624	25488	21296
2688	103952	70848
2752	138272	80576
2816	116544	84784
2880	73568	4576
2944	47232	26112
3008	171968	152112
3072	175760	106144
3136	251408	67920
3200	88592	3360
3264	73648	66112
3328	70480	9824
3392	116768	6640
3456	6304	4576
3520	2928	2896
3584	1376	1376
3648	1632	624
3712	160	128
3776	1040	32
3840	144	96
3904	48	48
3968	64	32
4032	0	0
4096	48	48
4224	1088	48
4352	32800	976
4480	11600	16
4608	32	16
4736	1152	176
4864	162368	162272
4992	523216	467040
5120	45552	6000
5248	141216	32
5376	53344	16
5504	32	32
5632	28720	48
5760	0	0
5888	28736	0
6016	29472	32
6144	68944	40624
6272	162896	106256
6400	1504	16
6528	80	80
6656	32	32
6784	80	80
6912	48	48
7040	1072	112
7168	1040	80
7296	1952	976
7424	96	64
7552	2272	16
7680	18816	96
7808	2976	1520
7936	36608	26176
8064	16320	12096
8192	160	160
8448	57904	32
8704	58176	128
8960	28448	64
9216	221520	98048
9472	1384528	1039264
9728	16	16
9984	80	80
10240	128	128
10496	32	32
10752	128	128
11008	64	64
11264	96	96
11520	96	96
11776	80	80
12032	224	224
12288	240	240
12544	1904	1904
12800	11136	11136
13056	10160	10160
13312	2592	2592
13568	6304	6304
13824	53504	53504
14080	26768	26768
14336	1392	1392
14592	32	32
14848	0	0
15104	64	64
15360	112	112
15616	0	0
15872	16	16
16128	0	0
16384	128	128
16896	48	48
17408	16	16
17920	32	32
18432	16	16
18944	0	0
19456	0	0
19968	0	0
20480	0	0
20992	0	0
21504	16	16
22016	16	0
22528	0	0
23040	0	0
23552	0	0
24064	0	0
24576	16	16
25088	16	16
25600	96	96
26112	48	48
26624	64	64
27136	80	80
27648	32	32
28160	64	64
28672	80	80
29184	80	80
29696	32	32
30208	112	112
30720	48	48
31232	112	112
31744	128	112
32256	32	32
32768	176	176
33792	144	144
34816	96	80
35840	64	64
36864	0	0
37888	0	0
38912	0	0
39936	0	0
40960	80	80
41984	32	32
43008	96	96
44032	192	192
45056	128	128
46080	160	160
47104	112	112
48128	64	64
49152	144	144
50176	144	144
51200	48	48
52224	112	112
53248	64	64
54272	16	16
55296	0	0
56320	48	48
57344	16	16
58368	32	32
59392	16	16
60416	48	48
61440	160	144
62464	112	112
63488	144	96
64512	96	96
65536	240	240
67584	240	208
69632	368	320
71680	48	48
73728	16	16
75776	80	64
77824	176	176
79872	224	224
81920	288	288
83968	240	224
86016	128	128
88064	128	128
90112	32	32
92160	48	48
94208	64	64
96256	400	368
98304	320	304
100352	304	304
102400	256	256
104448	224	208
106496	128	128
108544	96	64
110592	224	176
112640	112	112
114688	352	336
116736	208	208
118784	192	160
120832	288	288
122880	432	400
124928	112	112
126976	32	32
129024	64	64
131072	1248	1216
135168	1696	1584
139264	544	544
143360	1072	1056
147456	1232	1184
151552	416	400
155648	368	368
159744	288	272
163840	288	256
167936	400	384
172032	432	400
176128	560	464
180224	112	112
184320	256	256
188416	496	448
192512	416	384
196608	208	208
200704	400	304
204800	480	464
208896	608	592
212992	352	336
217088	304	272
221184	416	400
225280	480	464
229376	608	560
233472	112	64
237568	352	336
241664	720	656
245760	528	512
249856	112	112
253952	272	240
258048	528	496
262144	656	624
270336	736	640
278528	1184	1008
286720	512	464
294912	1248	1184
303104	288	176
311296	3744	3600
319488	8512	7424
327680	928	912
335872	784	640
344064	1232	1152
352256	544	512
360448	1376	1264
368640	75200	75168
376832	252496	225952
385024	928	848
393216	768	736
401408	976	880
409600	640	608
417792	1200	1056
425984	752	624
434176	1072	976
442368	640	528
450560	944	880
458752	816	672
466944	1104	976
475136	816	752
483328	864	816
491520	880	800
499712	816	672
507904	1488	1312
516096	624	512
524288	1712	1504
540672	1648	1424
557056	1984	1696
573440	1952	1744
589824	2224	1904
606208	1920	1552
622592	1808	1552
638976	1712	1424
655360	1696	1488
671744	784	608
688128	672	496
704512	496	272
720896	768	512
737280	672	416
753664	1088	640
770048	624	400
786432	800	400
802816	576	368
819200	736	512
835584	848	528
851968	688	464
868352	512	320
884736	816	544
901120	816	608
917504	640	432
933888	512	320
950272	720	432
966656	864	608
983040	976	624
999424	640	432
1015808	624	352
1032192	736	496
1048576	1552	976
1081344	1328	928
1114112	1376	896
1146880	1488	880
1179648	1504	944
1212416	1504	912
1245184	1280	816
1277952	1584	944
1310720	1216	816
1343488	1504	896
1376256	1408	896
1409024	1632	1152
1441792	1184	736
1474560	1504	1024
1507328	1424	928
1540096	1584	1120
1572864	1280	768
1605632	1328	784
1638400	1424	928
1671168	1072	832
1703936	1568	1136
1736704	1552	1024
1769472	1168	640
1802240	1328	960
1835008	1184	832
1867776	1392	896
1900544	1376	912
1933312	1424	976
1966080	1312	944
1998848	1440	960
2031616	1472	848
2064384	1616	1136
2097152	2848	1776
2162688	2800	1824
2228224	2704	1696
2293760	2816	1728
2359296	2752	1760
2424832	2816	1952
2490368	2880	2016
2555904	3024	1920
2621440	2144	1392
2686976	2144	1344
2752512	1696	864
2818048	1440	928
2883584	768	544
2949120	880	512
3014656	752	480
3080192	416	384
3145728	304	240
3211264	112	32
3276800	32	16
3342336	48	32
3407872	16	16
3473408	32	16
3538944	32	0
3604480	32	32
3670016	16	0
3735552	64	48
3801088	32	32
3866624	16	0
3932160	16	16
3997696	16	16
4063232	16	16
4128768	0	0
4194304	32	16
4325376	96	64
4456448	96	80
4587520	32	32
4718592	48	16
4849664	32	0
4980736	32	16
5111808	96	48
5242880	80	64
5373952	48	48
5505024	48	32
5636096	16	16
5767168	32	16
5898240	64	0
6029312	112	64
6160384	16	16
6291456	16	16
6422528	80	48
6553600	48	32
6684672	112	112
6815744	80	64
6946816	48	32
7077888	48	32
7208960	16	0
7340032	48	48
7471104	48	32
7602176	0	0
7733248	32	16
7864320	32	0
7995392	32	32
8126464	64	64
8257536	96	80
8388608	80	32
8650752	64	32
8912896	80	64
9175040	64	32
9437184	64	16
9699328	160	64
9961472	64	32
10223616	32	16
10485760	160	144
10747904	176	48
11010048	64	32
11272192	64	48
11534336	16	16
11796480	64	16
12058624	64	32
12320768	32	16
12582912	64	48
12845056	64	64
13107200	48	16
13369344	48	16
13631488	144	112
13893632	64	64
14155776	128	80
14417920	112	96
14680064	80	32
14942208	96	80
15204352	128	112
15466496	64	48
15728640	128	64
15990784	112	64
16252928	64	48
16515072	176	144
16777216	112	80
17301504	208	128
17825792	240	176
18350080	112	64
18874368	304	240
19398656	224	176
19922944	112	96
20447232	208	144
20971520	112	112
21495808	112	64
22020096	96	64
22544384	304	224
23068672	96	96
23592960	64	48
24117248	192	128
24641536	256	176
25165824	112	80
25690112	112	96
26214400	144	64
26738688	64	64
27262976	144	128
27787264	208	192
28311552	48	32
28835840	288	256
29360128	160	96
29884416	64	64
30408704	112	96
30932992	112	96
31457280	144	96
31981568	144	112
32505856	224	128
33030144	144	96
33554432	448	336
34603008	224	192
35651584	272	128
36700160	256	176
37748736	240	208
38797312	528	336
39845888	384	256
40894464	368	224
41943040	368	288
42991616	368	288
44040192	464	352
45088768	384	240
46137344	208	160
47185920	384	256
48234496	272	192
49283072	416	352
50331648	416	336
51380224	288	160
52428800	288	192
53477376	320	240
54525952	256	192
55574528	224	160
56623104	416	320
57671680	352	288
58720256	352	224
59768832	384	320
60817408	208	144
61865984	304	240
62914560	336	192
63963136	464	288
65011712	352	288
66060288	368	272
67108864	704	496
69206016	720	576
71303168	736	512
73400320	352	272
75497472	432	256
77594624	432	256
79691776	304	160
81788928	320	240
83886080	336	176
85983232	512	288
88080384	368	176
90177536	400	208
92274688	400	272
94371840	528	384
96468992	368	224
98566144	352	224
100663296	432	304
102760448	528	400
104857600	432	240
106954752	320	224
109051904	496	336
111149056	272	224
113246208	464	256
115343360	464	336
117440512	336	144
119537664	416	256
121634816	496	352
123731968	384	192
125829120	512	368
127926272	272	176
130023424	384	288
132120576	448	288
134217728	960	528
138412032	736	464
142606336	1040	720
146800640	784	496
150994944	912	656
155189248	560	416
159383552	592	384
163577856	832	512
167772160	736	480
171966464	880	528
176160768	752	432
180355072	896	560
184549376	800	464
188743680	800	528
192937984	640	480
197132288	0	0
201326592	0	0
205520896	0	0
209715200	0	0
213909504	0	0
218103808	0	0
222298112	0	0
226492416	0	0
230686720	0	0
234881024	0	0
239075328	0	0
243269632	0	0
247463936	0	0
251658240	0	0
255852544	0	0
260046848	0	0
264241152	0	0
268435456	0	0
276824064	0	0
285212672	0	0
293601280	0	0
301989888	0	0
310378496	0	0
318767104	0	0
327155712	0	0
335544320	0	0
343932928	0	0
352321536	0	0
360710144	0	0
369098752	0	0
377487360	0	0
385875968	0	0
394264576	0	0
402653184	0	0
411041792	0	0
419430400	0	0
427819008	0	0
436207616	0	0
444596224	0	0
452984832	0	0
461373440	0	0
469762048	0	0
478150656	0	0
486539264	0	0
494927872	0	0
503316480	0	0
511705088	0	0
520093696	0	0
528482304	0	0
536870912	0	0
553648128	0	0
570425344	0	0
587202560	0	0
603979776	0	0
620756992	0	0
637534208	0	0
654311424	0	0
671088640	0	0
687865856	0	0
704643072	0	0
721420288	0	0
738197504	0	0
754974720	0	0
771751936	0	0
788529152	0	0
805306368	0	0
822083584	0	0
838860800	0	0
855638016	0	0
872415232	0	0
889192448	0	0
905969664	0	0
922746880	0	0
939524096	0	0
956301312	0	0
973078528	0	0
989855744	0	0
1006632960	0	0
1023410176	0	0
1040187392	0	0
1056964608	0	0
1073741824	0	0
1107296256	0	0
1140850688	0	0
1174405120	0	0
1207959552	0	0
1241513984	0	0
1275068416	0	0
1308622848	0	0
1342177280	0	0
1375731712	0	0
1409286144	0	0
1442840576	0	0
1476395008	0	0
1509949440	0	0
1543503872	0	0
1577058304	0	0
1610612736	0	0
1644167168	0	0
1677721600	0	0
1711276032	0	0
1744830464	0	0
1778384896	0	0
1811939328	0	0
1845493760	0	0
1879048192	0	0
1912602624	0	0
1946157056	0	0
1979711488	0	0
2013265920	0	0
2046820352	0	0
2080374784	0	0
2113929216	0	0
2147483648	0	0
2214592512	0	0
2281701376	0	0
2348810240	0	0
2415919104	0	0
2483027968	0	0
2550136832	0	0
2617245696	0	0
2684354560	0	0
2751463424	0	0
2818572288	0	0
2885681152	0	0
2952790016	0	0
3019898880	0	0
3087007744	0	0
3154116608	0	0
3221225472	0	0
3288334336	0	0
3355443200	0	0
3422552064	0	0
3489660928	0	0
3556769792	0	0
3623878656	0	0
3690987520	0	0
3758096384	0	0
3825205248	0	0
3892314112	0	0
3959422976	0	0
4026531840	0	0
4093640704	0	0
4160749568	0	0
4227858432	0	0
~~~~~~~~~~Reuse Distance Profiler output end~~~~~~~~~~

Sampler size:6363

DRAM Statistics
 CHANNEL 0
 RQ ROW_BUFFER_HIT:        382  ROW_BUFFER_MISS:     101610
 DBUS AVG_CONGESTED_CYCLE:    3.95384
 WQ ROW_BUFFER_HIT:          5  ROW_BUFFER_MISS:         31  FULL:          0


CPU 0 Branch Prediction Accuracy: 75.0223% MPKI: 40.1585 Average ROB Occupancy at Mispredict: 25.733
Branch type MPKI
BRANCH_DIRECT_JUMP: 6.66667e-07
BRANCH_INDIRECT: 0
BRANCH_CONDITIONAL: 40.1585
BRANCH_DIRECT_CALL: 4.66667e-06
BRANCH_INDIRECT_CALL: 0
BRANCH_RETURN: 4.66667e-06

