
*** ChampSim Multicore Out-of-Order Simulator ***

Warmup Instructions: 50000000
Simulation Instructions: 1500000000
Number of CPUs: 1
Off-chip DRAM Size: 4 GiB Channels: 1 Width: 64-bit Data Rate: 3200 MT/s

VirtualMemory physical capacity: 8588881920 num_ppages: 2096895
VirtualMemory page size: 4096 log2_page_size: 12

CPU 0 runs /s/traces/champsim_traces/401.bzip2-277B.champsimtrace.xz
CPU 0 Bimodal branch predictor
Basic BTB sets: 1024 ways: 8 indirect buffer size: 4096 RAS size: 64
Initializing LRU.
Initializing LRU.
Initializing LRU.
Initializing LRU.
Initializing rdLRU.
Initializing LRU.
Initializing LRU.
Heartbeat CPU 0 instructions: 2000000 cycles: 505632 heartbeat IPC: 3.95545 cumulative IPC: 3.95545 (Simulation time: 0 hr 0 min 42 sec) 
Heartbeat CPU 0 instructions: 4000003 cycles: 1011192 heartbeat IPC: 3.95602 cumulative IPC: 3.95573 (Simulation time: 0 hr 1 min 30 sec) 
Heartbeat CPU 0 instructions: 6000000 cycles: 1517805 heartbeat IPC: 3.94778 cumulative IPC: 3.95308 (Simulation time: 0 hr 2 min 15 sec) 
Heartbeat CPU 0 instructions: 8000001 cycles: 2023369 heartbeat IPC: 3.95598 cumulative IPC: 3.9538 (Simulation time: 0 hr 2 min 56 sec) 
Heartbeat CPU 0 instructions: 10000003 cycles: 2529644 heartbeat IPC: 3.95043 cumulative IPC: 3.95313 (Simulation time: 0 hr 3 min 43 sec) 
Heartbeat CPU 0 instructions: 12000003 cycles: 3035194 heartbeat IPC: 3.95609 cumulative IPC: 3.95362 (Simulation time: 0 hr 4 min 26 sec) 
Heartbeat CPU 0 instructions: 14000000 cycles: 3540396 heartbeat IPC: 3.95881 cumulative IPC: 3.95436 (Simulation time: 0 hr 5 min 9 sec) 
Heartbeat CPU 0 instructions: 16000003 cycles: 4046323 heartbeat IPC: 3.95315 cumulative IPC: 3.95421 (Simulation time: 0 hr 5 min 53 sec) 
Heartbeat CPU 0 instructions: 18000001 cycles: 4551525 heartbeat IPC: 3.95881 cumulative IPC: 3.95472 (Simulation time: 0 hr 6 min 40 sec) 
Heartbeat CPU 0 instructions: 20000000 cycles: 5053650 heartbeat IPC: 3.98307 cumulative IPC: 3.95754 (Simulation time: 0 hr 7 min 32 sec) 
Heartbeat CPU 0 instructions: 22000000 cycles: 5554417 heartbeat IPC: 3.99387 cumulative IPC: 3.96081 (Simulation time: 0 hr 8 min 11 sec) 
Heartbeat CPU 0 instructions: 24000000 cycles: 6054800 heartbeat IPC: 3.99694 cumulative IPC: 3.9638 (Simulation time: 0 hr 8 min 51 sec) 
Heartbeat CPU 0 instructions: 26000000 cycles: 6555181 heartbeat IPC: 3.99695 cumulative IPC: 3.96633 (Simulation time: 0 hr 9 min 45 sec) 
Heartbeat CPU 0 instructions: 28000002 cycles: 7055948 heartbeat IPC: 3.99388 cumulative IPC: 3.96828 (Simulation time: 0 hr 10 min 40 sec) 
Heartbeat CPU 0 instructions: 30000003 cycles: 7556331 heartbeat IPC: 3.99694 cumulative IPC: 3.97018 (Simulation time: 0 hr 11 min 33 sec) 
Heartbeat CPU 0 instructions: 32000003 cycles: 8056709 heartbeat IPC: 3.99698 cumulative IPC: 3.97185 (Simulation time: 0 hr 12 min 20 sec) 
Heartbeat CPU 0 instructions: 34000002 cycles: 8557090 heartbeat IPC: 3.99695 cumulative IPC: 3.97331 (Simulation time: 0 hr 13 min 10 sec) 
Heartbeat CPU 0 instructions: 36000003 cycles: 9057857 heartbeat IPC: 3.99388 cumulative IPC: 3.97445 (Simulation time: 0 hr 14 min 4 sec) 
Heartbeat CPU 0 instructions: 38000002 cycles: 9558239 heartbeat IPC: 3.99694 cumulative IPC: 3.97563 (Simulation time: 0 hr 14 min 57 sec) 
Heartbeat CPU 0 instructions: 40000000 cycles: 10058620 heartbeat IPC: 3.99695 cumulative IPC: 3.97669 (Simulation time: 0 hr 15 min 51 sec) 
Heartbeat CPU 0 instructions: 42000000 cycles: 10559387 heartbeat IPC: 3.99387 cumulative IPC: 3.9775 (Simulation time: 0 hr 16 min 41 sec) 
Heartbeat CPU 0 instructions: 44000001 cycles: 11059770 heartbeat IPC: 3.99694 cumulative IPC: 3.97838 (Simulation time: 0 hr 17 min 34 sec) 
Heartbeat CPU 0 instructions: 46000001 cycles: 11560154 heartbeat IPC: 3.99693 cumulative IPC: 3.97919 (Simulation time: 0 hr 18 min 27 sec) 
Heartbeat CPU 0 instructions: 48000002 cycles: 12060532 heartbeat IPC: 3.99698 cumulative IPC: 3.97992 (Simulation time: 0 hr 19 min 17 sec) 
Heartbeat CPU 0 instructions: 50000002 cycles: 12560915 heartbeat IPC: 3.99694 cumulative IPC: 3.9806 (Simulation time: 0 hr 20 min 7 sec) 

Warmup complete CPU 0 instructions: 50000002 cycles: 12560915 (Simulation time: 0 hr 20 min 7 sec) 

Heartbeat CPU 0 instructions: 52000001 cycles: 14741022 heartbeat IPC: 0.917386 cumulative IPC: 0.917386 (Simulation time: 0 hr 21 min 1 sec) 

Region of Interest Statistics
cpu0_DTLB TOTAL     ACCESS:     486392  HIT:     486357  MISS:         35
cpu0_DTLB LOAD      ACCESS:     311254  HIT:     311252  MISS:          2
cpu0_DTLB RFO       ACCESS:     175138  HIT:     175105  MISS:         33
cpu0_DTLB PREFETCH  ACCESS:          0  HIT:          0  MISS:          0
cpu0_DTLB WRITEBACK ACCESS:          0  HIT:          0  MISS:          0
cpu0_ITLB TOTAL     ACCESS:     183710  HIT:     183710  MISS:          0
cpu0_ITLB LOAD      ACCESS:     183710  HIT:     183710  MISS:          0
cpu0_ITLB RFO       ACCESS:          0  HIT:          0  MISS:          0
cpu0_ITLB PREFETCH  ACCESS:          0  HIT:          0  MISS:          0
cpu0_ITLB WRITEBACK ACCESS:          0  HIT:          0  MISS:          0
cpu0_L1I TOTAL     ACCESS:     180770  HIT:     180770  MISS:          0
cpu0_L1I LOAD      ACCESS:     180770  HIT:     180770  MISS:          0
cpu0_L1I RFO       ACCESS:          0  HIT:          0  MISS:          0
cpu0_L1I PREFETCH  ACCESS:          0  HIT:          0  MISS:          0
cpu0_L1I WRITEBACK ACCESS:          0  HIT:          0  MISS:          0
cpu0_STLB TOTAL     ACCESS:         35  HIT:         34  MISS:          1
cpu0_STLB LOAD      ACCESS:          2  HIT:          1  MISS:          1
cpu0_STLB RFO       ACCESS:         33  HIT:         33  MISS:          0
cpu0_STLB PREFETCH  ACCESS:          0  HIT:          0  MISS:          0
cpu0_STLB WRITEBACK ACCESS:          0  HIT:          0  MISS:          0
cpu0_L1D TOTAL     ACCESS:     530913  HIT:     528539  MISS:       2374
cpu0_L1D LOAD      ACCESS:     319041  HIT:     318852  MISS:        189
cpu0_L1D RFO       ACCESS:     211871  HIT:     209687  MISS:       2184
cpu0_L1D PREFETCH  ACCESS:          0  HIT:          0  MISS:          0
cpu0_L1D WRITEBACK ACCESS:          0  HIT:          0  MISS:          0
cpu0_L2C TOTAL     ACCESS:       4583  HIT:       2361  MISS:       2222
cpu0_L2C LOAD      ACCESS:        189  HIT:         96  MISS:         93
cpu0_L2C RFO       ACCESS:       2184  HIT:         55  MISS:       2129
cpu0_L2C PREFETCH  ACCESS:          0  HIT:          0  MISS:          0
cpu0_L2C WRITEBACK ACCESS:       2209  HIT:       2209  MISS:          0
LLC TOTAL     ACCESS:       4431  HIT:       2806  MISS:       1625
LLC LOAD      ACCESS:         93  HIT:         13  MISS:         80
LLC RFO       ACCESS:       2129  HIT:        584  MISS:       1545
LLC PREFETCH  ACCESS:          0  HIT:          0  MISS:          0
LLC WRITEBACK ACCESS:       2209  HIT:       2209  MISS:          0
Heartbeat CPU 0 instructions: 54000004 cycles: 17018715 heartbeat IPC: 0.878083 cumulative IPC: 0.897304 (Simulation time: 0 hr 21 min 55 sec) 

Region of Interest Statistics
cpu0_DTLB TOTAL     ACCESS:     985504  HIT:     985435  MISS:         69
cpu0_DTLB LOAD      ACCESS:     630165  HIT:     630162  MISS:          3
cpu0_DTLB RFO       ACCESS:     355339  HIT:     355273  MISS:         66
cpu0_DTLB PREFETCH  ACCESS:          0  HIT:          0  MISS:          0
cpu0_DTLB WRITEBACK ACCESS:          0  HIT:          0  MISS:          0
cpu0_ITLB TOTAL     ACCESS:     369044  HIT:     369044  MISS:          0
cpu0_ITLB LOAD      ACCESS:     369044  HIT:     369044  MISS:          0
cpu0_ITLB RFO       ACCESS:          0  HIT:          0  MISS:          0
cpu0_ITLB PREFETCH  ACCESS:          0  HIT:          0  MISS:          0
cpu0_ITLB WRITEBACK ACCESS:          0  HIT:          0  MISS:          0
cpu0_L1I TOTAL     ACCESS:     370863  HIT:     370863  MISS:          0
cpu0_L1I LOAD      ACCESS:     370863  HIT:     370863  MISS:          0
cpu0_L1I RFO       ACCESS:          0  HIT:          0  MISS:          0
cpu0_L1I PREFETCH  ACCESS:          0  HIT:          0  MISS:          0
cpu0_L1I WRITEBACK ACCESS:          0  HIT:          0  MISS:          0
cpu0_STLB TOTAL     ACCESS:         69  HIT:         67  MISS:          2
cpu0_STLB LOAD      ACCESS:          3  HIT:          1  MISS:          2
cpu0_STLB RFO       ACCESS:         66  HIT:         66  MISS:          0
cpu0_STLB PREFETCH  ACCESS:          0  HIT:          0  MISS:          0
cpu0_STLB WRITEBACK ACCESS:          0  HIT:          0  MISS:          0
cpu0_L1D TOTAL     ACCESS:    1073346  HIT:    1068556  MISS:       4790
cpu0_L1D LOAD      ACCESS:     648067  HIT:     647665  MISS:        402
cpu0_L1D RFO       ACCESS:     425277  HIT:     420891  MISS:       4386
cpu0_L1D PREFETCH  ACCESS:          0  HIT:          0  MISS:          0
cpu0_L1D WRITEBACK ACCESS:          0  HIT:          0  MISS:          0
cpu0_L2C TOTAL     ACCESS:       9248  HIT:       4794  MISS:       4454
cpu0_L2C LOAD      ACCESS:        402  HIT:        217  MISS:        185
cpu0_L2C RFO       ACCESS:       4386  HIT:        117  MISS:       4269
cpu0_L2C PREFETCH  ACCESS:          0  HIT:          0  MISS:          0
cpu0_L2C WRITEBACK ACCESS:       4458  HIT:       4458  MISS:          0
LLC TOTAL     ACCESS:       8801  HIT:       5267  MISS:       3534
LLC LOAD      ACCESS:        185  HIT:         23  MISS:        162
LLC RFO       ACCESS:       4269  HIT:        897  MISS:       3372
LLC PREFETCH  ACCESS:          0  HIT:          0  MISS:          0
LLC WRITEBACK ACCESS:       4347  HIT:       4347  MISS:          0
Heartbeat CPU 0 instructions: 56000000 cycles: 19249497 heartbeat IPC: 0.896545 cumulative IPC: 0.897051 (Simulation time: 0 hr 22 min 48 sec) 

Region of Interest Statistics
cpu0_DTLB TOTAL     ACCESS:    1485795  HIT:    1485683  MISS:        112
cpu0_DTLB LOAD      ACCESS:     944849  HIT:     944843  MISS:          6
cpu0_DTLB RFO       ACCESS:     540946  HIT:     540840  MISS:        106
cpu0_DTLB PREFETCH  ACCESS:          0  HIT:          0  MISS:          0
cpu0_DTLB WRITEBACK ACCESS:          0  HIT:          0  MISS:          0
cpu0_ITLB TOTAL     ACCESS:     554552  HIT:     554552  MISS:          0
cpu0_ITLB LOAD      ACCESS:     554552  HIT:     554552  MISS:          0
cpu0_ITLB RFO       ACCESS:          0  HIT:          0  MISS:          0
cpu0_ITLB PREFETCH  ACCESS:          0  HIT:          0  MISS:          0
cpu0_ITLB WRITEBACK ACCESS:          0  HIT:          0  MISS:          0
cpu0_L1I TOTAL     ACCESS:     557388  HIT:     557388  MISS:          0
cpu0_L1I LOAD      ACCESS:     557388  HIT:     557388  MISS:          0
cpu0_L1I RFO       ACCESS:          0  HIT:          0  MISS:          0
cpu0_L1I PREFETCH  ACCESS:          0  HIT:          0  MISS:          0
cpu0_L1I WRITEBACK ACCESS:          0  HIT:          0  MISS:          0
cpu0_STLB TOTAL     ACCESS:        112  HIT:        108  MISS:          4
cpu0_STLB LOAD      ACCESS:          6  HIT:          2  MISS:          4
cpu0_STLB RFO       ACCESS:        106  HIT:        106  MISS:          0
cpu0_STLB PREFETCH  ACCESS:          0  HIT:          0  MISS:          0
cpu0_STLB WRITEBACK ACCESS:          0  HIT:          0  MISS:          0
cpu0_L1D TOTAL     ACCESS:    1601029  HIT:    1593295  MISS:       7734
cpu0_L1D LOAD      ACCESS:     969337  HIT:     968653  MISS:        684
cpu0_L1D RFO       ACCESS:     631688  HIT:     624642  MISS:       7046
cpu0_L1D PREFETCH  ACCESS:          0  HIT:          0  MISS:          0
cpu0_L1D WRITEBACK ACCESS:          0  HIT:          0  MISS:          0
cpu0_L2C TOTAL     ACCESS:      14940  HIT:       7782  MISS:       7158
cpu0_L2C LOAD      ACCESS:        684  HIT:        331  MISS:        353
cpu0_L2C RFO       ACCESS:       7047  HIT:        245  MISS:       6802
cpu0_L2C PREFETCH  ACCESS:          0  HIT:          0  MISS:          0
cpu0_L2C WRITEBACK ACCESS:       7205  HIT:       7203  MISS:          2
LLC TOTAL     ACCESS:      14060  HIT:       8019  MISS:       6041
LLC LOAD      ACCESS:        353  HIT:         30  MISS:        323
LLC RFO       ACCESS:       6802  HIT:       1084  MISS:       5718
LLC PREFETCH  ACCESS:          0  HIT:          0  MISS:          0
LLC WRITEBACK ACCESS:       6904  HIT:       6904  MISS:          0
Heartbeat CPU 0 instructions: 58000004 cycles: 21435506 heartbeat IPC: 0.914911 cumulative IPC: 0.90145 (Simulation time: 0 hr 23 min 41 sec) 

Region of Interest Statistics
cpu0_DTLB TOTAL     ACCESS:    1982677  HIT:    1982520  MISS:        157
cpu0_DTLB LOAD      ACCESS:    1256724  HIT:    1256714  MISS:         10
cpu0_DTLB RFO       ACCESS:     725953  HIT:     725806  MISS:        147
cpu0_DTLB PREFETCH  ACCESS:          0  HIT:          0  MISS:          0
cpu0_DTLB WRITEBACK ACCESS:          0  HIT:          0  MISS:          0
cpu0_ITLB TOTAL     ACCESS:     740059  HIT:     740059  MISS:          0
cpu0_ITLB LOAD      ACCESS:     740059  HIT:     740059  MISS:          0
cpu0_ITLB RFO       ACCESS:          0  HIT:          0  MISS:          0
cpu0_ITLB PREFETCH  ACCESS:          0  HIT:          0  MISS:          0
cpu0_ITLB WRITEBACK ACCESS:          0  HIT:          0  MISS:          0
cpu0_L1I TOTAL     ACCESS:     739984  HIT:     739984  MISS:          0
cpu0_L1I LOAD      ACCESS:     739984  HIT:     739984  MISS:          0
cpu0_L1I RFO       ACCESS:          0  HIT:          0  MISS:          0
cpu0_L1I PREFETCH  ACCESS:          0  HIT:          0  MISS:          0
cpu0_L1I WRITEBACK ACCESS:          0  HIT:          0  MISS:          0
cpu0_STLB TOTAL     ACCESS:        157  HIT:        151  MISS:          6
cpu0_STLB LOAD      ACCESS:         10  HIT:          4  MISS:          6
cpu0_STLB RFO       ACCESS:        147  HIT:        147  MISS:          0
cpu0_STLB PREFETCH  ACCESS:          0  HIT:          0  MISS:          0
cpu0_STLB WRITEBACK ACCESS:          0  HIT:          0  MISS:          0
cpu0_L1D TOTAL     ACCESS:    2124332  HIT:    2113643  MISS:      10689
cpu0_L1D LOAD      ACCESS:    1288785  HIT:    1287880  MISS:        905
cpu0_L1D RFO       ACCESS:     835541  HIT:     825762  MISS:       9779
cpu0_L1D PREFETCH  ACCESS:          0  HIT:          0  MISS:          0
cpu0_L1D WRITEBACK ACCESS:          0  HIT:          0  MISS:          0
cpu0_L2C TOTAL     ACCESS:      20685  HIT:      10749  MISS:       9936
cpu0_L2C LOAD      ACCESS:        905  HIT:        434  MISS:        471
cpu0_L2C RFO       ACCESS:       9779  HIT:        318  MISS:       9461
cpu0_L2C PREFETCH  ACCESS:          0  HIT:          0  MISS:          0
cpu0_L2C WRITEBACK ACCESS:       9996  HIT:       9993  MISS:          3
LLC TOTAL     ACCESS:      19489  HIT:      10896  MISS:       8593
LLC LOAD      ACCESS:        471  HIT:         60  MISS:        411
LLC RFO       ACCESS:       9461  HIT:       1279  MISS:       8182
LLC PREFETCH  ACCESS:          0  HIT:          0  MISS:          0
LLC WRITEBACK ACCESS:       9556  HIT:       9556  MISS:          0
Heartbeat CPU 0 instructions: 60000000 cycles: 23749338 heartbeat IPC: 0.864365 cumulative IPC: 0.893781 (Simulation time: 0 hr 24 min 33 sec) 

Region of Interest Statistics
cpu0_DTLB TOTAL     ACCESS:    2478400  HIT:    2478210  MISS:        190
cpu0_DTLB LOAD      ACCESS:    1577789  HIT:    1577778  MISS:         11
cpu0_DTLB RFO       ACCESS:     900611  HIT:     900432  MISS:        179
cpu0_DTLB PREFETCH  ACCESS:          0  HIT:          0  MISS:          0
cpu0_DTLB WRITEBACK ACCESS:          0  HIT:          0  MISS:          0
cpu0_ITLB TOTAL     ACCESS:     927190  HIT:     927190  MISS:          0
cpu0_ITLB LOAD      ACCESS:     927190  HIT:     927190  MISS:          0
cpu0_ITLB RFO       ACCESS:          0  HIT:          0  MISS:          0
cpu0_ITLB PREFETCH  ACCESS:          0  HIT:          0  MISS:          0
cpu0_ITLB WRITEBACK ACCESS:          0  HIT:          0  MISS:          0
cpu0_L1I TOTAL     ACCESS:     935275  HIT:     935275  MISS:          0
cpu0_L1I LOAD      ACCESS:     935275  HIT:     935275  MISS:          0
cpu0_L1I RFO       ACCESS:          0  HIT:          0  MISS:          0
cpu0_L1I PREFETCH  ACCESS:          0  HIT:          0  MISS:          0
cpu0_L1I WRITEBACK ACCESS:          0  HIT:          0  MISS:          0
cpu0_STLB TOTAL     ACCESS:        190  HIT:        183  MISS:          7
cpu0_STLB LOAD      ACCESS:         11  HIT:          4  MISS:          7
cpu0_STLB RFO       ACCESS:        179  HIT:        179  MISS:          0
cpu0_STLB PREFETCH  ACCESS:          0  HIT:          0  MISS:          0
cpu0_STLB WRITEBACK ACCESS:          0  HIT:          0  MISS:          0
cpu0_L1D TOTAL     ACCESS:    2672041  HIT:    2659030  MISS:      13011
cpu0_L1D LOAD      ACCESS:    1622286  HIT:    1621180  MISS:       1106
cpu0_L1D RFO       ACCESS:    1049748  HIT:    1037849  MISS:      11899
cpu0_L1D PREFETCH  ACCESS:          0  HIT:          0  MISS:          0
cpu0_L1D WRITEBACK ACCESS:          0  HIT:          0  MISS:          0
cpu0_L2C TOTAL     ACCESS:      25089  HIT:      12980  MISS:      12109
cpu0_L2C LOAD      ACCESS:       1106  HIT:        536  MISS:        570
cpu0_L2C RFO       ACCESS:      11899  HIT:        366  MISS:      11533
cpu0_L2C PREFETCH  ACCESS:          0  HIT:          0  MISS:          0
cpu0_L2C WRITEBACK ACCESS:      12078  HIT:      12073  MISS:          5
LLC TOTAL     ACCESS:      23775  HIT:      13111  MISS:      10664
LLC LOAD      ACCESS:        570  HIT:         75  MISS:        495
LLC RFO       ACCESS:      11533  HIT:       1365  MISS:      10168
LLC PREFETCH  ACCESS:          0  HIT:          0  MISS:          0
LLC WRITEBACK ACCESS:      11671  HIT:      11670  MISS:          1
Heartbeat CPU 0 instructions: 62000003 cycles: 25793846 heartbeat IPC: 0.978232 cumulative IPC: 0.906829 (Simulation time: 0 hr 25 min 49 sec) 

Region of Interest Statistics
cpu0_DTLB TOTAL     ACCESS:    2986869  HIT:    2986228  MISS:        641
cpu0_DTLB LOAD      ACCESS:    1870927  HIT:    1870787  MISS:        140
cpu0_DTLB RFO       ACCESS:    1115942  HIT:    1115441  MISS:        501
cpu0_DTLB PREFETCH  ACCESS:          0  HIT:          0  MISS:          0
cpu0_DTLB WRITEBACK ACCESS:          0  HIT:          0  MISS:          0
cpu0_ITLB TOTAL     ACCESS:    1067541  HIT:    1067541  MISS:          0
cpu0_ITLB LOAD      ACCESS:    1067541  HIT:    1067541  MISS:          0
cpu0_ITLB RFO       ACCESS:          0  HIT:          0  MISS:          0
cpu0_ITLB PREFETCH  ACCESS:          0  HIT:          0  MISS:          0
cpu0_ITLB WRITEBACK ACCESS:          0  HIT:          0  MISS:          0
cpu0_L1I TOTAL     ACCESS:    1070270  HIT:    1070266  MISS:          4
cpu0_L1I LOAD      ACCESS:    1070270  HIT:    1070266  MISS:          4
cpu0_L1I RFO       ACCESS:          0  HIT:          0  MISS:          0
cpu0_L1I PREFETCH  ACCESS:          0  HIT:          0  MISS:          0
cpu0_L1I WRITEBACK ACCESS:          0  HIT:          0  MISS:          0
cpu0_STLB TOTAL     ACCESS:        641  HIT:        633  MISS:          8
cpu0_STLB LOAD      ACCESS:        140  HIT:        132  MISS:          8
cpu0_STLB RFO       ACCESS:        501  HIT:        501  MISS:          0
cpu0_STLB PREFETCH  ACCESS:          0  HIT:          0  MISS:          0
cpu0_STLB WRITEBACK ACCESS:          0  HIT:          0  MISS:          0
cpu0_L1D TOTAL     ACCESS:    3172589  HIT:    3152755  MISS:      19834
cpu0_L1D LOAD      ACCESS:    1906190  HIT:    1900309  MISS:       5881
cpu0_L1D RFO       ACCESS:    1266391  HIT:    1252445  MISS:      13946
cpu0_L1D PREFETCH  ACCESS:          0  HIT:          0  MISS:          0
cpu0_L1D WRITEBACK ACCESS:          0  HIT:          0  MISS:          0
cpu0_L2C TOTAL     ACCESS:      36675  HIT:      18341  MISS:      18334
cpu0_L2C LOAD      ACCESS:       5885  HIT:       1088  MISS:       4797
cpu0_L2C RFO       ACCESS:      13946  HIT:        440  MISS:      13506
cpu0_L2C PREFETCH  ACCESS:          0  HIT:          0  MISS:          0
cpu0_L2C WRITEBACK ACCESS:      16837  HIT:      16807  MISS:         30
LLC TOTAL     ACCESS:      35466  HIT:      19974  MISS:      15492
LLC LOAD      ACCESS:       4797  HIT:       1262  MISS:       3535
LLC RFO       ACCESS:      13506  HIT:       1573  MISS:      11933
LLC PREFETCH  ACCESS:          0  HIT:          0  MISS:          0
LLC WRITEBACK ACCESS:      17162  HIT:      17138  MISS:         24
Heartbeat CPU 0 instructions: 64000001 cycles: 27392439 heartbeat IPC: 1.2511 cumulative IPC: 0.943935 (Simulation time: 0 hr 28 min 3 sec) 

Region of Interest Statistics
cpu0_DTLB TOTAL     ACCESS:    3541364  HIT:    3537938  MISS:       3426
cpu0_DTLB LOAD      ACCESS:    2122008  HIT:    2120877  MISS:       1131
cpu0_DTLB RFO       ACCESS:    1419356  HIT:    1417061  MISS:       2295
cpu0_DTLB PREFETCH  ACCESS:          0  HIT:          0  MISS:          0
cpu0_DTLB WRITEBACK ACCESS:          0  HIT:          0  MISS:          0
cpu0_ITLB TOTAL     ACCESS:    1067541  HIT:    1067541  MISS:          0
cpu0_ITLB LOAD      ACCESS:    1067541  HIT:    1067541  MISS:          0
cpu0_ITLB RFO       ACCESS:          0  HIT:          0  MISS:          0
cpu0_ITLB PREFETCH  ACCESS:          0  HIT:          0  MISS:          0
cpu0_ITLB WRITEBACK ACCESS:          0  HIT:          0  MISS:          0
cpu0_L1I TOTAL     ACCESS:    1070270  HIT:    1070266  MISS:          4
cpu0_L1I LOAD      ACCESS:    1070270  HIT:    1070266  MISS:          4
cpu0_L1I RFO       ACCESS:          0  HIT:          0  MISS:          0
cpu0_L1I PREFETCH  ACCESS:          0  HIT:          0  MISS:          0
cpu0_L1I WRITEBACK ACCESS:          0  HIT:          0  MISS:          0
cpu0_STLB TOTAL     ACCESS:       3426  HIT:       3418  MISS:          8
cpu0_STLB LOAD      ACCESS:       1131  HIT:       1123  MISS:          8
cpu0_STLB RFO       ACCESS:       2295  HIT:       2295  MISS:          0
cpu0_STLB PREFETCH  ACCESS:          0  HIT:          0  MISS:          0
cpu0_STLB WRITEBACK ACCESS:          0  HIT:          0  MISS:          0
cpu0_L1D TOTAL     ACCESS:    3630298  HIT:    3589820  MISS:      40478
cpu0_L1D LOAD      ACCESS:    2103808  HIT:    2077283  MISS:      26525
cpu0_L1D RFO       ACCESS:    1526482  HIT:    1512536  MISS:      13946
cpu0_L1D PREFETCH  ACCESS:          0  HIT:          0  MISS:          0
cpu0_L1D WRITEBACK ACCESS:          0  HIT:          0  MISS:          0
cpu0_L2C TOTAL     ACCESS:      68506  HIT:      30996  MISS:      37510
cpu0_L2C LOAD      ACCESS:      26529  HIT:       2574  MISS:      23955
cpu0_L2C RFO       ACCESS:      13946  HIT:        440  MISS:      13506
cpu0_L2C PREFETCH  ACCESS:          0  HIT:          0  MISS:          0
cpu0_L2C WRITEBACK ACCESS:      28024  HIT:      27976  MISS:         48
LLC TOTAL     ACCESS:      65361  HIT:      39024  MISS:      26337
LLC LOAD      ACCESS:      23955  HIT:       9582  MISS:      14373
LLC RFO       ACCESS:      13506  HIT:       1573  MISS:      11933
LLC PREFETCH  ACCESS:          0  HIT:          0  MISS:          0
LLC WRITEBACK ACCESS:      27899  HIT:      27868  MISS:         31
Heartbeat CPU 0 instructions: 66000002 cycles: 28784137 heartbeat IPC: 1.43709 cumulative IPC: 0.986241 (Simulation time: 0 hr 30 min 5 sec) 

Region of Interest Statistics
cpu0_DTLB TOTAL     ACCESS:    4092703  HIT:    4088115  MISS:       4588
cpu0_DTLB LOAD      ACCESS:    2372904  HIT:    2371287  MISS:       1617
cpu0_DTLB RFO       ACCESS:    1719799  HIT:    1716828  MISS:       2971
cpu0_DTLB PREFETCH  ACCESS:          0  HIT:          0  MISS:          0
cpu0_DTLB WRITEBACK ACCESS:          0  HIT:          0  MISS:          0
cpu0_ITLB TOTAL     ACCESS:    1067541  HIT:    1067541  MISS:          0
cpu0_ITLB LOAD      ACCESS:    1067541  HIT:    1067541  MISS:          0
cpu0_ITLB RFO       ACCESS:          0  HIT:          0  MISS:          0
cpu0_ITLB PREFETCH  ACCESS:          0  HIT:          0  MISS:          0
cpu0_ITLB WRITEBACK ACCESS:          0  HIT:          0  MISS:          0
cpu0_L1I TOTAL     ACCESS:    1070270  HIT:    1070266  MISS:          4
cpu0_L1I LOAD      ACCESS:    1070270  HIT:    1070266  MISS:          4
cpu0_L1I RFO       ACCESS:          0  HIT:          0  MISS:          0
cpu0_L1I PREFETCH  ACCESS:          0  HIT:          0  MISS:          0
cpu0_L1I WRITEBACK ACCESS:          0  HIT:          0  MISS:          0
cpu0_STLB TOTAL     ACCESS:       4588  HIT:       4580  MISS:          8
cpu0_STLB LOAD      ACCESS:       1617  HIT:       1609  MISS:          8
cpu0_STLB RFO       ACCESS:       2971  HIT:       2971  MISS:          0
cpu0_STLB PREFETCH  ACCESS:          0  HIT:          0  MISS:          0
cpu0_STLB WRITEBACK ACCESS:          0  HIT:          0  MISS:          0
cpu0_L1D TOTAL     ACCESS:    4097788  HIT:    4036830  MISS:      60958
cpu0_L1D LOAD      ACCESS:    2305095  HIT:    2258090  MISS:      47005
cpu0_L1D RFO       ACCESS:    1792685  HIT:    1778739  MISS:      13946
cpu0_L1D PREFETCH  ACCESS:          0  HIT:          0  MISS:          0
cpu0_L1D WRITEBACK ACCESS:          0  HIT:          0  MISS:          0
cpu0_L2C TOTAL     ACCESS:     100000  HIT:      44578  MISS:      55422
cpu0_L2C LOAD      ACCESS:      47009  HIT:       5158  MISS:      41851
cpu0_L2C RFO       ACCESS:      13946  HIT:        440  MISS:      13506
cpu0_L2C PREFETCH  ACCESS:          0  HIT:          0  MISS:          0
cpu0_L2C WRITEBACK ACCESS:      39038  HIT:      38974  MISS:         64
LLC TOTAL     ACCESS:      93991  HIT:      58092  MISS:      35899
LLC LOAD      ACCESS:      41851  HIT:      17916  MISS:      23935
LLC RFO       ACCESS:      13506  HIT:       1573  MISS:      11933
LLC PREFETCH  ACCESS:          0  HIT:          0  MISS:          0
LLC WRITEBACK ACCESS:      38633  HIT:      38602  MISS:         31
Heartbeat CPU 0 instructions: 68000004 cycles: 30024078 heartbeat IPC: 1.61298 cumulative IPC: 1.03074 (Simulation time: 0 hr 32 min 1 sec) 

Region of Interest Statistics
cpu0_DTLB TOTAL     ACCESS:    4643866  HIT:    4638376  MISS:       5490
cpu0_DTLB LOAD      ACCESS:    2607335  HIT:    2605307  MISS:       2028
cpu0_DTLB RFO       ACCESS:    2036531  HIT:    2033069  MISS:       3462
cpu0_DTLB PREFETCH  ACCESS:          0  HIT:          0  MISS:          0
cpu0_DTLB WRITEBACK ACCESS:          0  HIT:          0  MISS:          0
cpu0_ITLB TOTAL     ACCESS:    1067541  HIT:    1067541  MISS:          0
cpu0_ITLB LOAD      ACCESS:    1067541  HIT:    1067541  MISS:          0
cpu0_ITLB RFO       ACCESS:          0  HIT:          0  MISS:          0
cpu0_ITLB PREFETCH  ACCESS:          0  HIT:          0  MISS:          0
cpu0_ITLB WRITEBACK ACCESS:          0  HIT:          0  MISS:          0
cpu0_L1I TOTAL     ACCESS:    1070270  HIT:    1070266  MISS:          4
cpu0_L1I LOAD      ACCESS:    1070270  HIT:    1070266  MISS:          4
cpu0_L1I RFO       ACCESS:          0  HIT:          0  MISS:          0
cpu0_L1I PREFETCH  ACCESS:          0  HIT:          0  MISS:          0
cpu0_L1I WRITEBACK ACCESS:          0  HIT:          0  MISS:          0
cpu0_STLB TOTAL     ACCESS:       5490  HIT:       5482  MISS:          8
cpu0_STLB LOAD      ACCESS:       2028  HIT:       2020  MISS:          8
cpu0_STLB RFO       ACCESS:       3462  HIT:       3462  MISS:          0
cpu0_STLB PREFETCH  ACCESS:          0  HIT:          0  MISS:          0
cpu0_STLB WRITEBACK ACCESS:          0  HIT:          0  MISS:          0
cpu0_L1D TOTAL     ACCESS:    4521608  HIT:    4439595  MISS:      82013
cpu0_L1D LOAD      ACCESS:    2479572  HIT:    2411512  MISS:      68060
cpu0_L1D RFO       ACCESS:    2042028  HIT:    2028082  MISS:      13946
cpu0_L1D PREFETCH  ACCESS:          0  HIT:          0  MISS:          0
cpu0_L1D WRITEBACK ACCESS:          0  HIT:          0  MISS:          0
cpu0_L2C TOTAL     ACCESS:     132030  HIT:      57702  MISS:      74328
cpu0_L2C LOAD      ACCESS:      68064  HIT:       7313  MISS:      60751
cpu0_L2C RFO       ACCESS:      13946  HIT:        440  MISS:      13506
cpu0_L2C PREFETCH  ACCESS:          0  HIT:          0  MISS:          0
cpu0_L2C WRITEBACK ACCESS:      50013  HIT:      49943  MISS:         70
LLC TOTAL     ACCESS:     123559  HIT:      79323  MISS:      44236
LLC LOAD      ACCESS:      60751  HIT:      28479  MISS:      32272
LLC RFO       ACCESS:      13506  HIT:       1573  MISS:      11933
LLC PREFETCH  ACCESS:          0  HIT:          0  MISS:          0
LLC WRITEBACK ACCESS:      49301  HIT:      49270  MISS:         31
Heartbeat CPU 0 instructions: 70000001 cycles: 31389548 heartbeat IPC: 1.46469 cumulative IPC: 1.06221 (Simulation time: 0 hr 33 min 59 sec) 

Region of Interest Statistics
cpu0_DTLB TOTAL     ACCESS:    5184480  HIT:    5176100  MISS:       8380
cpu0_DTLB LOAD      ACCESS:    2844331  HIT:    2840022  MISS:       4309
cpu0_DTLB RFO       ACCESS:    2340149  HIT:    2336078  MISS:       4071
cpu0_DTLB PREFETCH  ACCESS:          0  HIT:          0  MISS:          0
cpu0_DTLB WRITEBACK ACCESS:          0  HIT:          0  MISS:          0
cpu0_ITLB TOTAL     ACCESS:    1070316  HIT:    1070316  MISS:          0
cpu0_ITLB LOAD      ACCESS:    1070316  HIT:    1070316  MISS:          0
cpu0_ITLB RFO       ACCESS:          0  HIT:          0  MISS:          0
cpu0_ITLB PREFETCH  ACCESS:          0  HIT:          0  MISS:          0
cpu0_ITLB WRITEBACK ACCESS:          0  HIT:          0  MISS:          0
cpu0_L1I TOTAL     ACCESS:    1070288  HIT:    1070282  MISS:          6
cpu0_L1I LOAD      ACCESS:    1070288  HIT:    1070282  MISS:          6
cpu0_L1I RFO       ACCESS:          0  HIT:          0  MISS:          0
cpu0_L1I PREFETCH  ACCESS:          0  HIT:          0  MISS:          0
cpu0_L1I WRITEBACK ACCESS:          0  HIT:          0  MISS:          0
cpu0_STLB TOTAL     ACCESS:       8380  HIT:       8371  MISS:          9
cpu0_STLB LOAD      ACCESS:       4309  HIT:       4301  MISS:          8
cpu0_STLB RFO       ACCESS:       4071  HIT:       4070  MISS:          1
cpu0_STLB PREFETCH  ACCESS:          0  HIT:          0  MISS:          0
cpu0_STLB WRITEBACK ACCESS:          0  HIT:          0  MISS:          0
cpu0_L1D TOTAL     ACCESS:    4948840  HIT:    4844379  MISS:     104461
cpu0_L1D LOAD      ACCESS:    2661650  HIT:    2571274  MISS:      90376
cpu0_L1D RFO       ACCESS:    2287181  HIT:    2273104  MISS:      14077
cpu0_L1D PREFETCH  ACCESS:          0  HIT:          0  MISS:          0
cpu0_L1D WRITEBACK ACCESS:          0  HIT:          0  MISS:          0
cpu0_L2C TOTAL     ACCESS:     165535  HIT:      72146  MISS:      93389
cpu0_L2C LOAD      ACCESS:      90382  HIT:      10716  MISS:      79666
cpu0_L2C RFO       ACCESS:      14077  HIT:        443  MISS:      13634
cpu0_L2C PREFETCH  ACCESS:          0  HIT:          0  MISS:          0
cpu0_L2C WRITEBACK ACCESS:      61068  HIT:      60981  MISS:         87
LLC TOTAL     ACCESS:     153635  HIT:     100011  MISS:      53624
LLC LOAD      ACCESS:      79666  HIT:      38135  MISS:      41531
LLC RFO       ACCESS:      13634  HIT:       1573  MISS:      12061
LLC PREFETCH  ACCESS:          0  HIT:          0  MISS:          0
LLC WRITEBACK ACCESS:      60333  HIT:      60302  MISS:         31
Heartbeat CPU 0 instructions: 72000004 cycles: 32320404 heartbeat IPC: 2.14856 cumulative IPC: 1.11339 (Simulation time: 0 hr 35 min 4 sec) 

Region of Interest Statistics
cpu0_DTLB TOTAL     ACCESS:    5437672  HIT:    5386837  MISS:      50835
cpu0_DTLB LOAD      ACCESS:    3005781  HIT:    2959104  MISS:      46677
cpu0_DTLB RFO       ACCESS:    2431891  HIT:    2427733  MISS:       4158
cpu0_DTLB PREFETCH  ACCESS:          0  HIT:          0  MISS:          0
cpu0_DTLB WRITEBACK ACCESS:          0  HIT:          0  MISS:          0
cpu0_ITLB TOTAL     ACCESS:    1196479  HIT:    1196479  MISS:          0
cpu0_ITLB LOAD      ACCESS:    1196479  HIT:    1196479  MISS:          0
cpu0_ITLB RFO       ACCESS:          0  HIT:          0  MISS:          0
cpu0_ITLB PREFETCH  ACCESS:          0  HIT:          0  MISS:          0
cpu0_ITLB WRITEBACK ACCESS:          0  HIT:          0  MISS:          0
cpu0_L1I TOTAL     ACCESS:    1070483  HIT:    1070477  MISS:          6
cpu0_L1I LOAD      ACCESS:    1070483  HIT:    1070477  MISS:          6
cpu0_L1I RFO       ACCESS:          0  HIT:          0  MISS:          0
cpu0_L1I PREFETCH  ACCESS:          0  HIT:          0  MISS:          0
cpu0_L1I WRITEBACK ACCESS:          0  HIT:          0  MISS:          0
cpu0_STLB TOTAL     ACCESS:      50835  HIT:      50806  MISS:         29
cpu0_STLB LOAD      ACCESS:      46677  HIT:      46669  MISS:          8
cpu0_STLB RFO       ACCESS:       4158  HIT:       4137  MISS:         21
cpu0_STLB PREFETCH  ACCESS:          0  HIT:          0  MISS:          0
cpu0_STLB WRITEBACK ACCESS:          0  HIT:          0  MISS:          0
cpu0_L1D TOTAL     ACCESS:    5191119  HIT:    5036697  MISS:     154422
cpu0_L1D LOAD      ACCESS:    2822146  HIT:    2684160  MISS:     137986
cpu0_L1D RFO       ACCESS:    2368944  HIT:    2352532  MISS:      16412
cpu0_L1D PREFETCH  ACCESS:          0  HIT:          0  MISS:          0
cpu0_L1D WRITEBACK ACCESS:          0  HIT:          0  MISS:          0
cpu0_L2C TOTAL     ACCESS:     218275  HIT:      94246  MISS:     124029
cpu0_L2C LOAD      ACCESS:     137992  HIT:      28980  MISS:     109012
cpu0_L2C RFO       ACCESS:      16412  HIT:       1486  MISS:      14926
cpu0_L2C PREFETCH  ACCESS:          0  HIT:          0  MISS:          0
cpu0_L2C WRITEBACK ACCESS:      63847  HIT:      63759  MISS:         88
LLC TOTAL     ACCESS:     186810  HIT:     128146  MISS:      58664
LLC LOAD      ACCESS:     109012  HIT:      63693  MISS:      45319
LLC RFO       ACCESS:      14926  HIT:       1614  MISS:      13312
LLC PREFETCH  ACCESS:          0  HIT:          0  MISS:          0
LLC WRITEBACK ACCESS:      62869  HIT:      62837  MISS:         32
Heartbeat CPU 0 instructions: 74000001 cycles: 33076087 heartbeat IPC: 2.64661 cumulative IPC: 1.16987 (Simulation time: 0 hr 35 min 53 sec) 

Region of Interest Statistics
cpu0_DTLB TOTAL     ACCESS:    5688634  HIT:    5597963  MISS:      90671
cpu0_DTLB LOAD      ACCESS:    3167623  HIT:    3081193  MISS:      86430
cpu0_DTLB RFO       ACCESS:    2521011  HIT:    2516770  MISS:       4241
cpu0_DTLB PREFETCH  ACCESS:          0  HIT:          0  MISS:          0
cpu0_DTLB WRITEBACK ACCESS:          0  HIT:          0  MISS:          0
cpu0_ITLB TOTAL     ACCESS:    1367329  HIT:    1367329  MISS:          0
cpu0_ITLB LOAD      ACCESS:    1367329  HIT:    1367329  MISS:          0
cpu0_ITLB RFO       ACCESS:          0  HIT:          0  MISS:          0
cpu0_ITLB PREFETCH  ACCESS:          0  HIT:          0  MISS:          0
cpu0_ITLB WRITEBACK ACCESS:          0  HIT:          0  MISS:          0
cpu0_L1I TOTAL     ACCESS:    1070675  HIT:    1070669  MISS:          6
cpu0_L1I LOAD      ACCESS:    1070675  HIT:    1070669  MISS:          6
cpu0_L1I RFO       ACCESS:          0  HIT:          0  MISS:          0
cpu0_L1I PREFETCH  ACCESS:          0  HIT:          0  MISS:          0
cpu0_L1I WRITEBACK ACCESS:          0  HIT:          0  MISS:          0
cpu0_STLB TOTAL     ACCESS:      90671  HIT:      90623  MISS:         48
cpu0_STLB LOAD      ACCESS:      86430  HIT:      86422  MISS:          8
cpu0_STLB RFO       ACCESS:       4241  HIT:       4201  MISS:         40
cpu0_STLB PREFETCH  ACCESS:          0  HIT:          0  MISS:          0
cpu0_STLB WRITEBACK ACCESS:          0  HIT:          0  MISS:          0
cpu0_L1D TOTAL     ACCESS:    5431560  HIT:    5226301  MISS:     205259
cpu0_L1D LOAD      ACCESS:    2983265  HIT:    2796785  MISS:     186480
cpu0_L1D RFO       ACCESS:    2448247  HIT:    2429508  MISS:      18739
cpu0_L1D PREFETCH  ACCESS:          0  HIT:          0  MISS:          0
cpu0_L1D WRITEBACK ACCESS:          0  HIT:          0  MISS:          0
cpu0_L2C TOTAL     ACCESS:     271676  HIT:     118553  MISS:     153123
cpu0_L2C LOAD      ACCESS:     186486  HIT:      49678  MISS:     136808
cpu0_L2C RFO       ACCESS:      18739  HIT:       2518  MISS:      16221
cpu0_L2C PREFETCH  ACCESS:          0  HIT:          0  MISS:          0
cpu0_L2C WRITEBACK ACCESS:      66411  HIT:      66323  MISS:         88
LLC TOTAL     ACCESS:     217298  HIT:     156341  MISS:      60957
LLC LOAD      ACCESS:     136808  HIT:      90446  MISS:      46362
LLC RFO       ACCESS:      16221  HIT:       1659  MISS:      14562
LLC PREFETCH  ACCESS:          0  HIT:          0  MISS:          0
LLC WRITEBACK ACCESS:      64263  HIT:      64231  MISS:         32
Heartbeat CPU 0 instructions: 76000001 cycles: 33879280 heartbeat IPC: 2.49006 cumulative IPC: 1.21961 (Simulation time: 0 hr 36 min 51 sec) 

Region of Interest Statistics
cpu0_DTLB TOTAL     ACCESS:    5941530  HIT:    5808410  MISS:     133120
cpu0_DTLB LOAD      ACCESS:    3328920  HIT:    3200125  MISS:     128795
cpu0_DTLB RFO       ACCESS:    2612610  HIT:    2608285  MISS:       4325
cpu0_DTLB PREFETCH  ACCESS:          0  HIT:          0  MISS:          0
cpu0_DTLB WRITEBACK ACCESS:          0  HIT:          0  MISS:          0
cpu0_ITLB TOTAL     ACCESS:    1511456  HIT:    1511456  MISS:          0
cpu0_ITLB LOAD      ACCESS:    1511456  HIT:    1511456  MISS:          0
cpu0_ITLB RFO       ACCESS:          0  HIT:          0  MISS:          0
cpu0_ITLB PREFETCH  ACCESS:          0  HIT:          0  MISS:          0
cpu0_ITLB WRITEBACK ACCESS:          0  HIT:          0  MISS:          0
cpu0_L1I TOTAL     ACCESS:    1070867  HIT:    1070861  MISS:          6
cpu0_L1I LOAD      ACCESS:    1070867  HIT:    1070861  MISS:          6
cpu0_L1I RFO       ACCESS:          0  HIT:          0  MISS:          0
cpu0_L1I PREFETCH  ACCESS:          0  HIT:          0  MISS:          0
cpu0_L1I WRITEBACK ACCESS:          0  HIT:          0  MISS:          0
cpu0_STLB TOTAL     ACCESS:     133120  HIT:     133052  MISS:         68
cpu0_STLB LOAD      ACCESS:     128795  HIT:     128787  MISS:          8
cpu0_STLB RFO       ACCESS:       4325  HIT:       4265  MISS:         60
cpu0_STLB PREFETCH  ACCESS:          0  HIT:          0  MISS:          0
cpu0_STLB WRITEBACK ACCESS:          0  HIT:          0  MISS:          0
cpu0_L1D TOTAL     ACCESS:    5673509  HIT:    5421000  MISS:     252509
cpu0_L1D LOAD      ACCESS:    3143556  HIT:    2912155  MISS:     231401
cpu0_L1D RFO       ACCESS:    2529885  HIT:    2508833  MISS:      21052
cpu0_L1D PREFETCH  ACCESS:          0  HIT:          0  MISS:          0
cpu0_L1D WRITEBACK ACCESS:          0  HIT:          0  MISS:          0
cpu0_L2C TOTAL     ACCESS:     321715  HIT:     138872  MISS:     182843
cpu0_L2C LOAD      ACCESS:     231407  HIT:      66175  MISS:     165232
cpu0_L2C RFO       ACCESS:      21052  HIT:       3536  MISS:      17516
cpu0_L2C PREFETCH  ACCESS:          0  HIT:          0  MISS:          0
cpu0_L2C WRITEBACK ACCESS:      69200  HIT:      69112  MISS:         88
LLC TOTAL     ACCESS:     248380  HIT:     183976  MISS:      64404
LLC LOAD      ACCESS:     165232  HIT:     116673  MISS:      48559
LLC RFO       ACCESS:      17516  HIT:       1704  MISS:      15812
LLC PREFETCH  ACCESS:          0  HIT:          0  MISS:          0
LLC WRITEBACK ACCESS:      65625  HIT:      65593  MISS:         32
Heartbeat CPU 0 instructions: 78000001 cycles: 35060894 heartbeat IPC: 1.6926 cumulative IPC: 1.24445 (Simulation time: 0 hr 38 min 8 sec) 

Region of Interest Statistics
cpu0_DTLB TOTAL     ACCESS:    6188751  HIT:    6018330  MISS:     170421
cpu0_DTLB LOAD      ACCESS:    3488737  HIT:    3322720  MISS:     166017
cpu0_DTLB RFO       ACCESS:    2700014  HIT:    2695610  MISS:       4404
cpu0_DTLB PREFETCH  ACCESS:          0  HIT:          0  MISS:          0
cpu0_DTLB WRITEBACK ACCESS:          0  HIT:          0  MISS:          0
cpu0_ITLB TOTAL     ACCESS:    1666936  HIT:    1666936  MISS:          0
cpu0_ITLB LOAD      ACCESS:    1666936  HIT:    1666936  MISS:          0
cpu0_ITLB RFO       ACCESS:          0  HIT:          0  MISS:          0
cpu0_ITLB PREFETCH  ACCESS:          0  HIT:          0  MISS:          0
cpu0_ITLB WRITEBACK ACCESS:          0  HIT:          0  MISS:          0
cpu0_L1I TOTAL     ACCESS:    1071054  HIT:    1071048  MISS:          6
cpu0_L1I LOAD      ACCESS:    1071054  HIT:    1071048  MISS:          6
cpu0_L1I RFO       ACCESS:          0  HIT:          0  MISS:          0
cpu0_L1I PREFETCH  ACCESS:          0  HIT:          0  MISS:          0
cpu0_L1I WRITEBACK ACCESS:          0  HIT:          0  MISS:          0
cpu0_STLB TOTAL     ACCESS:     170421  HIT:     170335  MISS:         86
cpu0_STLB LOAD      ACCESS:     166017  HIT:     166009  MISS:          8
cpu0_STLB RFO       ACCESS:       4404  HIT:       4326  MISS:         78
cpu0_STLB PREFETCH  ACCESS:          0  HIT:          0  MISS:          0
cpu0_STLB WRITEBACK ACCESS:          0  HIT:          0  MISS:          0
cpu0_L1D TOTAL     ACCESS:    5910909  HIT:    5624365  MISS:     286544
cpu0_L1D LOAD      ACCESS:    3302635  HIT:    3039332  MISS:     263303
cpu0_L1D RFO       ACCESS:    2608188  HIT:    2585018  MISS:      23170
cpu0_L1D PREFETCH  ACCESS:          0  HIT:          0  MISS:          0
cpu0_L1D WRITEBACK ACCESS:          0  HIT:          0  MISS:          0
cpu0_L2C TOTAL     ACCESS:     358233  HIT:     153619  MISS:     204614
cpu0_L2C LOAD      ACCESS:     263309  HIT:      77498  MISS:     185811
cpu0_L2C RFO       ACCESS:      23170  HIT:       4463  MISS:      18707
cpu0_L2C PREFETCH  ACCESS:          0  HIT:          0  MISS:          0
cpu0_L2C WRITEBACK ACCESS:      71683  HIT:      71595  MISS:         88
LLC TOTAL     ACCESS:     271221  HIT:     198717  MISS:      72504
LLC LOAD      ACCESS:     185811  HIT:     130325  MISS:      55486
LLC RFO       ACCESS:      18707  HIT:       1723  MISS:      16984
LLC PREFETCH  ACCESS:          0  HIT:          0  MISS:          0
LLC WRITEBACK ACCESS:      66695  HIT:      66662  MISS:         33
Heartbeat CPU 0 instructions: 80000002 cycles: 35982562 heartbeat IPC: 2.16998 cumulative IPC: 1.28087 (Simulation time: 0 hr 39 min 9 sec) 

Region of Interest Statistics
cpu0_DTLB TOTAL     ACCESS:    6438782  HIT:    6231683  MISS:     207099
cpu0_DTLB LOAD      ACCESS:    3648964  HIT:    3446354  MISS:     202610
cpu0_DTLB RFO       ACCESS:    2789818  HIT:    2785329  MISS:       4489
cpu0_DTLB PREFETCH  ACCESS:          0  HIT:          0  MISS:          0
cpu0_DTLB WRITEBACK ACCESS:          0  HIT:          0  MISS:          0
cpu0_ITLB TOTAL     ACCESS:    1829858  HIT:    1829858  MISS:          0
cpu0_ITLB LOAD      ACCESS:    1829858  HIT:    1829858  MISS:          0
cpu0_ITLB RFO       ACCESS:          0  HIT:          0  MISS:          0
cpu0_ITLB PREFETCH  ACCESS:          0  HIT:          0  MISS:          0
cpu0_ITLB WRITEBACK ACCESS:          0  HIT:          0  MISS:          0
cpu0_L1I TOTAL     ACCESS:    1071249  HIT:    1071243  MISS:          6
cpu0_L1I LOAD      ACCESS:    1071249  HIT:    1071243  MISS:          6
cpu0_L1I RFO       ACCESS:          0  HIT:          0  MISS:          0
cpu0_L1I PREFETCH  ACCESS:          0  HIT:          0  MISS:          0
cpu0_L1I WRITEBACK ACCESS:          0  HIT:          0  MISS:          0
cpu0_STLB TOTAL     ACCESS:     207099  HIT:     206993  MISS:        106
cpu0_STLB LOAD      ACCESS:     202610  HIT:     202602  MISS:          8
cpu0_STLB RFO       ACCESS:       4489  HIT:       4391  MISS:         98
cpu0_STLB PREFETCH  ACCESS:          0  HIT:          0  MISS:          0
cpu0_STLB WRITEBACK ACCESS:          0  HIT:          0  MISS:          0
cpu0_L1D TOTAL     ACCESS:    6150476  HIT:    5830882  MISS:     319594
cpu0_L1D LOAD      ACCESS:    3461952  HIT:    3167755  MISS:     294197
cpu0_L1D RFO       ACCESS:    2688418  HIT:    2663108  MISS:      25310
cpu0_L1D PREFETCH  ACCESS:          0  HIT:          0  MISS:          0
cpu0_L1D WRITEBACK ACCESS:          0  HIT:          0  MISS:          0
cpu0_L2C TOTAL     ACCESS:     393920  HIT:     168875  MISS:     225045
cpu0_L2C LOAD      ACCESS:     294203  HIT:      89230  MISS:     204973
cpu0_L2C RFO       ACCESS:      25310  HIT:       5334  MISS:      19976
cpu0_L2C PREFETCH  ACCESS:          0  HIT:          0  MISS:          0
cpu0_L2C WRITEBACK ACCESS:      74320  HIT:      74232  MISS:         88
LLC TOTAL     ACCESS:     293043  HIT:     215188  MISS:      77855
LLC LOAD      ACCESS:     204973  HIT:     145389  MISS:      59584
LLC RFO       ACCESS:      19976  HIT:       1742  MISS:      18234
LLC PREFETCH  ACCESS:          0  HIT:          0  MISS:          0
LLC WRITEBACK ACCESS:      68086  HIT:      68050  MISS:         36
Heartbeat CPU 0 instructions: 82000002 cycles: 36865311 heartbeat IPC: 2.26565 cumulative IPC: 1.31663 (Simulation time: 0 hr 40 min 12 sec) 

Region of Interest Statistics
cpu0_DTLB TOTAL     ACCESS:    6688478  HIT:    6437846  MISS:     250632
cpu0_DTLB LOAD      ACCESS:    3810702  HIT:    3564644  MISS:     246058
cpu0_DTLB RFO       ACCESS:    2877776  HIT:    2873202  MISS:       4574
cpu0_DTLB PREFETCH  ACCESS:          0  HIT:          0  MISS:          0
cpu0_DTLB WRITEBACK ACCESS:          0  HIT:          0  MISS:          0
cpu0_ITLB TOTAL     ACCESS:    1968402  HIT:    1968402  MISS:          0
cpu0_ITLB LOAD      ACCESS:    1968402  HIT:    1968402  MISS:          0
cpu0_ITLB RFO       ACCESS:          0  HIT:          0  MISS:          0
cpu0_ITLB PREFETCH  ACCESS:          0  HIT:          0  MISS:          0
cpu0_ITLB WRITEBACK ACCESS:          0  HIT:          0  MISS:          0
cpu0_L1I TOTAL     ACCESS:    1071444  HIT:    1071438  MISS:          6
cpu0_L1I LOAD      ACCESS:    1071444  HIT:    1071438  MISS:          6
cpu0_L1I RFO       ACCESS:          0  HIT:          0  MISS:          0
cpu0_L1I PREFETCH  ACCESS:          0  HIT:          0  MISS:          0
cpu0_L1I WRITEBACK ACCESS:          0  HIT:          0  MISS:          0
cpu0_STLB TOTAL     ACCESS:     250632  HIT:     250507  MISS:        125
cpu0_STLB LOAD      ACCESS:     246058  HIT:     246050  MISS:          8
cpu0_STLB RFO       ACCESS:       4574  HIT:       4457  MISS:        117
cpu0_STLB PREFETCH  ACCESS:          0  HIT:          0  MISS:          0
cpu0_STLB WRITEBACK ACCESS:          0  HIT:          0  MISS:          0
cpu0_L1D TOTAL     ACCESS:    6389854  HIT:    6023522  MISS:     366332
cpu0_L1D LOAD      ACCESS:    3623063  HIT:    3284386  MISS:     338677
cpu0_L1D RFO       ACCESS:    2766666  HIT:    2739114  MISS:      27552
cpu0_L1D PREFETCH  ACCESS:          0  HIT:          0  MISS:          0
cpu0_L1D WRITEBACK ACCESS:          0  HIT:          0  MISS:          0
cpu0_L2C TOTAL     ACCESS:     443301  HIT:     190101  MISS:     253200
cpu0_L2C LOAD      ACCESS:     338683  HIT:     106854  MISS:     231829
cpu0_L2C RFO       ACCESS:      27552  HIT:       6278  MISS:      21274
cpu0_L2C PREFETCH  ACCESS:          0  HIT:          0  MISS:          0
cpu0_L2C WRITEBACK ACCESS:      76963  HIT:      76875  MISS:         88
LLC TOTAL     ACCESS:     322594  HIT:     239896  MISS:      82698
LLC LOAD      ACCESS:     231829  HIT:     168659  MISS:      63170
LLC RFO       ACCESS:      21274  HIT:       1790  MISS:      19484
LLC PREFETCH  ACCESS:          0  HIT:          0  MISS:          0
LLC WRITEBACK ACCESS:      69482  HIT:      69439  MISS:         43
Heartbeat CPU 0 instructions: 84000000 cycles: 37867878 heartbeat IPC: 1.99488 cumulative IPC: 1.3435 (Simulation time: 0 hr 41 min 24 sec) 

Region of Interest Statistics
cpu0_DTLB TOTAL     ACCESS:    6937271  HIT:    6651670  MISS:     285601
cpu0_DTLB LOAD      ACCESS:    3971782  HIT:    3690837  MISS:     280945
cpu0_DTLB RFO       ACCESS:    2965489  HIT:    2960833  MISS:       4656
cpu0_DTLB PREFETCH  ACCESS:          0  HIT:          0  MISS:          0
cpu0_DTLB WRITEBACK ACCESS:          0  HIT:          0  MISS:          0
cpu0_ITLB TOTAL     ACCESS:    2077397  HIT:    2077397  MISS:          0
cpu0_ITLB LOAD      ACCESS:    2077397  HIT:    2077397  MISS:          0
cpu0_ITLB RFO       ACCESS:          0  HIT:          0  MISS:          0
cpu0_ITLB PREFETCH  ACCESS:          0  HIT:          0  MISS:          0
cpu0_ITLB WRITEBACK ACCESS:          0  HIT:          0  MISS:          0
cpu0_L1I TOTAL     ACCESS:    1071624  HIT:    1071618  MISS:          6
cpu0_L1I LOAD      ACCESS:    1071624  HIT:    1071618  MISS:          6
cpu0_L1I RFO       ACCESS:          0  HIT:          0  MISS:          0
cpu0_L1I PREFETCH  ACCESS:          0  HIT:          0  MISS:          0
cpu0_L1I WRITEBACK ACCESS:          0  HIT:          0  MISS:          0
cpu0_STLB TOTAL     ACCESS:     285601  HIT:     285457  MISS:        144
cpu0_STLB LOAD      ACCESS:     280945  HIT:     280937  MISS:          8
cpu0_STLB RFO       ACCESS:       4656  HIT:       4520  MISS:        136
cpu0_STLB PREFETCH  ACCESS:          0  HIT:          0  MISS:          0
cpu0_STLB WRITEBACK ACCESS:          0  HIT:          0  MISS:          0
cpu0_L1D TOTAL     ACCESS:    6628779  HIT:    6223491  MISS:     405288
cpu0_L1D LOAD      ACCESS:    3783374  HIT:    3407895  MISS:     375479
cpu0_L1D RFO       ACCESS:    2845261  HIT:    2815570  MISS:      29691
cpu0_L1D PREFETCH  ACCESS:          0  HIT:          0  MISS:          0
cpu0_L1D WRITEBACK ACCESS:          0  HIT:          0  MISS:          0
cpu0_L2C TOTAL     ACCESS:     484794  HIT:     208468  MISS:     276326
cpu0_L2C LOAD      ACCESS:     375485  HIT:     121737  MISS:     253748
cpu0_L2C RFO       ACCESS:      29691  HIT:       7211  MISS:      22480
cpu0_L2C PREFETCH  ACCESS:          0  HIT:          0  MISS:          0
cpu0_L2C WRITEBACK ACCESS:      79500  HIT:      79411  MISS:         89
LLC TOTAL     ACCESS:     346956  HIT:     257061  MISS:      89895
LLC LOAD      ACCESS:     253748  HIT:     184561  MISS:      69187
LLC RFO       ACCESS:      22480  HIT:       1824  MISS:      20656
LLC PREFETCH  ACCESS:          0  HIT:          0  MISS:          0
LLC WRITEBACK ACCESS:      70719  HIT:      70668  MISS:         51
Heartbeat CPU 0 instructions: 86000004 cycles: 38688094 heartbeat IPC: 2.43839 cumulative IPC: 1.37788 (Simulation time: 0 hr 42 min 24 sec) 

Region of Interest Statistics
cpu0_DTLB TOTAL     ACCESS:    7185581  HIT:    6864900  MISS:     320681
cpu0_DTLB LOAD      ACCESS:    4133166  HIT:    3817224  MISS:     315942
cpu0_DTLB RFO       ACCESS:    3052415  HIT:    3047676  MISS:       4739
cpu0_DTLB PREFETCH  ACCESS:          0  HIT:          0  MISS:          0
cpu0_DTLB WRITEBACK ACCESS:          0  HIT:          0  MISS:          0
cpu0_ITLB TOTAL     ACCESS:    2230067  HIT:    2230067  MISS:          0
cpu0_ITLB LOAD      ACCESS:    2230067  HIT:    2230067  MISS:          0
cpu0_ITLB RFO       ACCESS:          0  HIT:          0  MISS:          0
cpu0_ITLB PREFETCH  ACCESS:          0  HIT:          0  MISS:          0
cpu0_ITLB WRITEBACK ACCESS:          0  HIT:          0  MISS:          0
cpu0_L1I TOTAL     ACCESS:    1071816  HIT:    1071810  MISS:          6
cpu0_L1I LOAD      ACCESS:    1071816  HIT:    1071810  MISS:          6
cpu0_L1I RFO       ACCESS:          0  HIT:          0  MISS:          0
cpu0_L1I PREFETCH  ACCESS:          0  HIT:          0  MISS:          0
cpu0_L1I WRITEBACK ACCESS:          0  HIT:          0  MISS:          0
cpu0_STLB TOTAL     ACCESS:     320681  HIT:     320518  MISS:        163
cpu0_STLB LOAD      ACCESS:     315942  HIT:     315934  MISS:          8
cpu0_STLB RFO       ACCESS:       4739  HIT:       4584  MISS:        155
cpu0_STLB PREFETCH  ACCESS:          0  HIT:          0  MISS:          0
cpu0_STLB WRITEBACK ACCESS:          0  HIT:          0  MISS:          0
cpu0_L1D TOTAL     ACCESS:    6867033  HIT:    6427980  MISS:     439053
cpu0_L1D LOAD      ACCESS:    3944190  HIT:    3537114  MISS:     407076
cpu0_L1D RFO       ACCESS:    2922680  HIT:    2890837  MISS:      31843
cpu0_L1D PREFETCH  ACCESS:          0  HIT:          0  MISS:          0
cpu0_L1D WRITEBACK ACCESS:          0  HIT:          0  MISS:          0
cpu0_L2C TOTAL     ACCESS:     521115  HIT:     226011  MISS:     295104
cpu0_L2C LOAD      ACCESS:     407082  HIT:     135823  MISS:     271259
cpu0_L2C RFO       ACCESS:      31843  HIT:       8096  MISS:      23747
cpu0_L2C PREFETCH  ACCESS:          0  HIT:          0  MISS:          0
cpu0_L2C WRITEBACK ACCESS:      82056  HIT:      81967  MISS:         89
LLC TOTAL     ACCESS:     366932  HIT:     272724  MISS:      94208
LLC LOAD      ACCESS:     271259  HIT:     199019  MISS:      72240
LLC RFO       ACCESS:      23747  HIT:       1841  MISS:      21906
LLC PREFETCH  ACCESS:          0  HIT:          0  MISS:          0
LLC WRITEBACK ACCESS:      71917  HIT:      71856  MISS:         61
Heartbeat CPU 0 instructions: 88000003 cycles: 39460709 heartbeat IPC: 2.58861 cumulative IPC: 1.41265 (Simulation time: 0 hr 43 min 19 sec) 

Region of Interest Statistics
cpu0_DTLB TOTAL     ACCESS:    7431841  HIT:    7088267  MISS:     343574
cpu0_DTLB LOAD      ACCESS:    4294188  HIT:    3955432  MISS:     338756
cpu0_DTLB RFO       ACCESS:    3137653  HIT:    3132835  MISS:       4818
cpu0_DTLB PREFETCH  ACCESS:          0  HIT:          0  MISS:          0
cpu0_DTLB WRITEBACK ACCESS:          0  HIT:          0  MISS:          0
cpu0_ITLB TOTAL     ACCESS:    2371570  HIT:    2371570  MISS:          0
cpu0_ITLB LOAD      ACCESS:    2371570  HIT:    2371570  MISS:          0
cpu0_ITLB RFO       ACCESS:          0  HIT:          0  MISS:          0
cpu0_ITLB PREFETCH  ACCESS:          0  HIT:          0  MISS:          0
cpu0_ITLB WRITEBACK ACCESS:          0  HIT:          0  MISS:          0
cpu0_L1I TOTAL     ACCESS:    1072005  HIT:    1071999  MISS:          6
cpu0_L1I LOAD      ACCESS:    1072005  HIT:    1071999  MISS:          6
cpu0_L1I RFO       ACCESS:          0  HIT:          0  MISS:          0
cpu0_L1I PREFETCH  ACCESS:          0  HIT:          0  MISS:          0
cpu0_L1I WRITEBACK ACCESS:          0  HIT:          0  MISS:          0
cpu0_STLB TOTAL     ACCESS:     343574  HIT:     343393  MISS:        181
cpu0_STLB LOAD      ACCESS:     338756  HIT:     338748  MISS:          8
cpu0_STLB RFO       ACCESS:       4818  HIT:       4645  MISS:        173
cpu0_STLB PREFETCH  ACCESS:          0  HIT:          0  MISS:          0
cpu0_STLB WRITEBACK ACCESS:          0  HIT:          0  MISS:          0
cpu0_L1D TOTAL     ACCESS:    7104075  HIT:    6633305  MISS:     470770
cpu0_L1D LOAD      ACCESS:    4104919  HIT:    3668221  MISS:     436698
cpu0_L1D RFO       ACCESS:    2998975  HIT:    2965052  MISS:      33923
cpu0_L1D PREFETCH  ACCESS:          0  HIT:          0  MISS:          0
cpu0_L1D WRITEBACK ACCESS:          0  HIT:          0  MISS:          0
cpu0_L2C TOTAL     ACCESS:     555313  HIT:     246843  MISS:     308470
cpu0_L2C LOAD      ACCESS:     436704  HIT:     153260  MISS:     283444
cpu0_L2C RFO       ACCESS:      33923  HIT:       8995  MISS:      24928
cpu0_L2C PREFETCH  ACCESS:          0  HIT:          0  MISS:          0
cpu0_L2C WRITEBACK ACCESS:      84537  HIT:      84448  MISS:         89
LLC TOTAL     ACCESS:     381439  HIT:     283615  MISS:      97824
LLC LOAD      ACCESS:     283444  HIT:     208762  MISS:      74682
LLC RFO       ACCESS:      24928  HIT:       1850  MISS:      23078
LLC PREFETCH  ACCESS:          0  HIT:          0  MISS:          0
LLC WRITEBACK ACCESS:      73058  HIT:      72995  MISS:         63
Heartbeat CPU 0 instructions: 90000000 cycles: 40662074 heartbeat IPC: 1.66477 cumulative IPC: 1.42343 (Simulation time: 0 hr 44 min 12 sec) 

Region of Interest Statistics
cpu0_DTLB TOTAL     ACCESS:    7749846  HIT:    7396385  MISS:     353461
cpu0_DTLB LOAD      ACCESS:    4486266  HIT:    4137685  MISS:     348581
cpu0_DTLB RFO       ACCESS:    3263580  HIT:    3258700  MISS:       4880
cpu0_DTLB PREFETCH  ACCESS:          0  HIT:          0  MISS:          0
cpu0_DTLB WRITEBACK ACCESS:          0  HIT:          0  MISS:          0
cpu0_ITLB TOTAL     ACCESS:    2547012  HIT:    2547012  MISS:          0
cpu0_ITLB LOAD      ACCESS:    2547012  HIT:    2547012  MISS:          0
cpu0_ITLB RFO       ACCESS:          0  HIT:          0  MISS:          0
cpu0_ITLB PREFETCH  ACCESS:          0  HIT:          0  MISS:          0
cpu0_ITLB WRITEBACK ACCESS:          0  HIT:          0  MISS:          0
cpu0_L1I TOTAL     ACCESS:    1102977  HIT:    1102970  MISS:          7
cpu0_L1I LOAD      ACCESS:    1102977  HIT:    1102970  MISS:          7
cpu0_L1I RFO       ACCESS:          0  HIT:          0  MISS:          0
cpu0_L1I PREFETCH  ACCESS:          0  HIT:          0  MISS:          0
cpu0_L1I WRITEBACK ACCESS:          0  HIT:          0  MISS:          0
cpu0_STLB TOTAL     ACCESS:     353461  HIT:     353269  MISS:        192
cpu0_STLB LOAD      ACCESS:     348581  HIT:     348573  MISS:          8
cpu0_STLB RFO       ACCESS:       4880  HIT:       4696  MISS:        184
cpu0_STLB PREFETCH  ACCESS:          0  HIT:          0  MISS:          0
cpu0_STLB WRITEBACK ACCESS:          0  HIT:          0  MISS:          0
cpu0_L1D TOTAL     ACCESS:    7439901  HIT:    6955947  MISS:     483954
cpu0_L1D LOAD      ACCESS:    4299509  HIT:    3851260  MISS:     448249
cpu0_L1D RFO       ACCESS:    3140200  HIT:    3104653  MISS:      35547
cpu0_L1D PREFETCH  ACCESS:          0  HIT:          0  MISS:          0
cpu0_L1D WRITEBACK ACCESS:          0  HIT:          0  MISS:          0
cpu0_L2C TOTAL     ACCESS:     569990  HIT:     254286  MISS:     315704
cpu0_L2C LOAD      ACCESS:     448256  HIT:     158787  MISS:     289469
cpu0_L2C RFO       ACCESS:      35547  HIT:       9410  MISS:      26137
cpu0_L2C PREFETCH  ACCESS:          0  HIT:          0  MISS:          0
cpu0_L2C WRITEBACK ACCESS:      86029  HIT:      85940  MISS:         89
LLC TOTAL     ACCESS:     389327  HIT:     288437  MISS:     100890
LLC LOAD      ACCESS:     289469  HIT:     212835  MISS:      76634
LLC RFO       ACCESS:      26137  HIT:       1946  MISS:      24191
LLC PREFETCH  ACCESS:          0  HIT:          0  MISS:          0
LLC WRITEBACK ACCESS:      73712  HIT:      73648  MISS:         64
Heartbeat CPU 0 instructions: 92000000 cycles: 42791958 heartbeat IPC: 0.939018 cumulative IPC: 1.3893 (Simulation time: 0 hr 45 min 0 sec) 

Region of Interest Statistics
cpu0_DTLB TOTAL     ACCESS:    8218356  HIT:    7864875  MISS:     353481
cpu0_DTLB LOAD      ACCESS:    4800400  HIT:    4451814  MISS:     348586
cpu0_DTLB RFO       ACCESS:    3417956  HIT:    3413061  MISS:       4895
cpu0_DTLB PREFETCH  ACCESS:          0  HIT:          0  MISS:          0
cpu0_DTLB WRITEBACK ACCESS:          0  HIT:          0  MISS:          0
cpu0_ITLB TOTAL     ACCESS:    2723062  HIT:    2723062  MISS:          0
cpu0_ITLB LOAD      ACCESS:    2723062  HIT:    2723062  MISS:          0
cpu0_ITLB RFO       ACCESS:          0  HIT:          0  MISS:          0
cpu0_ITLB PREFETCH  ACCESS:          0  HIT:          0  MISS:          0
cpu0_ITLB WRITEBACK ACCESS:          0  HIT:          0  MISS:          0
cpu0_L1I TOTAL     ACCESS:    1275894  HIT:    1275887  MISS:          7
cpu0_L1I LOAD      ACCESS:    1275894  HIT:    1275887  MISS:          7
cpu0_L1I RFO       ACCESS:          0  HIT:          0  MISS:          0
cpu0_L1I PREFETCH  ACCESS:          0  HIT:          0  MISS:          0
cpu0_L1I WRITEBACK ACCESS:          0  HIT:          0  MISS:          0
cpu0_STLB TOTAL     ACCESS:     353481  HIT:     353286  MISS:        195
cpu0_STLB LOAD      ACCESS:     348586  HIT:     348575  MISS:         11
cpu0_STLB RFO       ACCESS:       4895  HIT:       4711  MISS:        184
cpu0_STLB PREFETCH  ACCESS:          0  HIT:          0  MISS:          0
cpu0_STLB WRITEBACK ACCESS:          0  HIT:          0  MISS:          0
cpu0_L1D TOTAL     ACCESS:    7994295  HIT:    7509137  MISS:     485158
cpu0_L1D LOAD      ACCESS:    4627173  HIT:    4178722  MISS:     448451
cpu0_L1D RFO       ACCESS:    3366927  HIT:    3330380  MISS:      36547
cpu0_L1D PREFETCH  ACCESS:          0  HIT:          0  MISS:          0
cpu0_L1D WRITEBACK ACCESS:          0  HIT:          0  MISS:          0
cpu0_L2C TOTAL     ACCESS:     572110  HIT:     255252  MISS:     316858
cpu0_L2C LOAD      ACCESS:     448458  HIT:     158822  MISS:     289636
cpu0_L2C RFO       ACCESS:      36547  HIT:       9424  MISS:      27123
cpu0_L2C PREFETCH  ACCESS:          0  HIT:          0  MISS:          0
cpu0_L2C WRITEBACK ACCESS:      86945  HIT:      86856  MISS:         89
LLC TOTAL     ACCESS:     390630  HIT:     288889  MISS:     101741
LLC LOAD      ACCESS:     289636  HIT:     212837  MISS:      76799
LLC RFO       ACCESS:      27123  HIT:       2256  MISS:      24867
LLC PREFETCH  ACCESS:          0  HIT:          0  MISS:          0
LLC WRITEBACK ACCESS:      73861  HIT:      73788  MISS:         73
Heartbeat CPU 0 instructions: 94000004 cycles: 44830269 heartbeat IPC: 0.981206 cumulative IPC: 1.36352 (Simulation time: 0 hr 45 min 48 sec) 

Region of Interest Statistics
cpu0_DTLB TOTAL     ACCESS:    8693180  HIT:    8339667  MISS:     353513
cpu0_DTLB LOAD      ACCESS:    5103427  HIT:    4754840  MISS:     348587
cpu0_DTLB RFO       ACCESS:    3589753  HIT:    3584827  MISS:       4926
cpu0_DTLB PREFETCH  ACCESS:          0  HIT:          0  MISS:          0
cpu0_DTLB WRITEBACK ACCESS:          0  HIT:          0  MISS:          0
cpu0_ITLB TOTAL     ACCESS:    2894027  HIT:    2894027  MISS:          0
cpu0_ITLB LOAD      ACCESS:    2894027  HIT:    2894027  MISS:          0
cpu0_ITLB RFO       ACCESS:          0  HIT:          0  MISS:          0
cpu0_ITLB PREFETCH  ACCESS:          0  HIT:          0  MISS:          0
cpu0_ITLB WRITEBACK ACCESS:          0  HIT:          0  MISS:          0
cpu0_L1I TOTAL     ACCESS:    1450628  HIT:    1450621  MISS:          7
cpu0_L1I LOAD      ACCESS:    1450628  HIT:    1450621  MISS:          7
cpu0_L1I RFO       ACCESS:          0  HIT:          0  MISS:          0
cpu0_L1I PREFETCH  ACCESS:          0  HIT:          0  MISS:          0
cpu0_L1I WRITEBACK ACCESS:          0  HIT:          0  MISS:          0
cpu0_STLB TOTAL     ACCESS:     353513  HIT:     353317  MISS:        196
cpu0_STLB LOAD      ACCESS:     348587  HIT:     348575  MISS:         12
cpu0_STLB RFO       ACCESS:       4926  HIT:       4742  MISS:        184
cpu0_STLB PREFETCH  ACCESS:          0  HIT:          0  MISS:          0
cpu0_STLB WRITEBACK ACCESS:          0  HIT:          0  MISS:          0
cpu0_L1D TOTAL     ACCESS:    8534352  HIT:    8046905  MISS:     487447
cpu0_L1D LOAD      ACCESS:    4946097  HIT:    4497460  MISS:     448637
cpu0_L1D RFO       ACCESS:    3588059  HIT:    3549410  MISS:      38649
cpu0_L1D PREFETCH  ACCESS:          0  HIT:          0  MISS:          0
cpu0_L1D WRITEBACK ACCESS:          0  HIT:          0  MISS:          0
cpu0_L2C TOTAL     ACCESS:     576499  HIT:     257489  MISS:     319010
cpu0_L2C LOAD      ACCESS:     448644  HIT:     158923  MISS:     289721
cpu0_L2C RFO       ACCESS:      38649  HIT:       9480  MISS:      29169
cpu0_L2C PREFETCH  ACCESS:          0  HIT:          0  MISS:          0
cpu0_L2C WRITEBACK ACCESS:      89045  HIT:      88935  MISS:        110
LLC TOTAL     ACCESS:     393682  HIT:     290627  MISS:     103055
LLC LOAD      ACCESS:     289721  HIT:     212843  MISS:      76878
LLC RFO       ACCESS:      29169  HIT:       3092  MISS:      26077
LLC PREFETCH  ACCESS:          0  HIT:          0  MISS:          0
LLC WRITEBACK ACCESS:      74782  HIT:      74684  MISS:         98
Heartbeat CPU 0 instructions: 96000002 cycles: 46985894 heartbeat IPC: 0.927804 cumulative IPC: 1.33624 (Simulation time: 0 hr 46 min 39 sec) 

Region of Interest Statistics
cpu0_DTLB TOTAL     ACCESS:    9180259  HIT:    8826716  MISS:     353543
cpu0_DTLB LOAD      ACCESS:    5419569  HIT:    5070981  MISS:     348588
cpu0_DTLB RFO       ACCESS:    3760690  HIT:    3755735  MISS:       4955
cpu0_DTLB PREFETCH  ACCESS:          0  HIT:          0  MISS:          0
cpu0_DTLB WRITEBACK ACCESS:          0  HIT:          0  MISS:          0
cpu0_ITLB TOTAL     ACCESS:    3070755  HIT:    3070755  MISS:          0
cpu0_ITLB LOAD      ACCESS:    3070755  HIT:    3070755  MISS:          0
cpu0_ITLB RFO       ACCESS:          0  HIT:          0  MISS:          0
cpu0_ITLB PREFETCH  ACCESS:          0  HIT:          0  MISS:          0
cpu0_ITLB WRITEBACK ACCESS:          0  HIT:          0  MISS:          0
cpu0_L1I TOTAL     ACCESS:    1642756  HIT:    1642749  MISS:          7
cpu0_L1I LOAD      ACCESS:    1642756  HIT:    1642749  MISS:          7
cpu0_L1I RFO       ACCESS:          0  HIT:          0  MISS:          0
cpu0_L1I PREFETCH  ACCESS:          0  HIT:          0  MISS:          0
cpu0_L1I WRITEBACK ACCESS:          0  HIT:          0  MISS:          0
cpu0_STLB TOTAL     ACCESS:     353543  HIT:     353346  MISS:        197
cpu0_STLB LOAD      ACCESS:     348588  HIT:     348575  MISS:         13
cpu0_STLB RFO       ACCESS:       4955  HIT:       4771  MISS:        184
cpu0_STLB PREFETCH  ACCESS:          0  HIT:          0  MISS:          0
cpu0_STLB WRITEBACK ACCESS:          0  HIT:          0  MISS:          0
cpu0_L1D TOTAL     ACCESS:    9080418  HIT:    8590878  MISS:     489540
cpu0_L1D LOAD      ACCESS:    5277107  HIT:    4828284  MISS:     448823
cpu0_L1D RFO       ACCESS:    3803114  HIT:    3762559  MISS:      40555
cpu0_L1D PREFETCH  ACCESS:          0  HIT:          0  MISS:          0
cpu0_L1D WRITEBACK ACCESS:          0  HIT:          0  MISS:          0
cpu0_L2C TOTAL     ACCESS:     580531  HIT:     259581  MISS:     320950
cpu0_L2C LOAD      ACCESS:     448830  HIT:     159028  MISS:     289802
cpu0_L2C RFO       ACCESS:      40555  HIT:       9527  MISS:      31028
cpu0_L2C PREFETCH  ACCESS:          0  HIT:          0  MISS:          0
cpu0_L2C WRITEBACK ACCESS:      90984  HIT:      90874  MISS:        110
LLC TOTAL     ACCESS:     396669  HIT:     292579  MISS:     104090
LLC LOAD      ACCESS:     289802  HIT:     212846  MISS:      76956
LLC RFO       ACCESS:      31028  HIT:       3995  MISS:      27033
LLC PREFETCH  ACCESS:          0  HIT:          0  MISS:          0
LLC WRITEBACK ACCESS:      75829  HIT:      75730  MISS:         99
Heartbeat CPU 0 instructions: 98000002 cycles: 49207604 heartbeat IPC: 0.900208 cumulative IPC: 1.3098 (Simulation time: 0 hr 47 min 27 sec) 

Region of Interest Statistics
cpu0_DTLB TOTAL     ACCESS:    9674318  HIT:    9320746  MISS:     353572
cpu0_DTLB LOAD      ACCESS:    5740491  HIT:    5391902  MISS:     348589
cpu0_DTLB RFO       ACCESS:    3933827  HIT:    3928844  MISS:       4983
cpu0_DTLB PREFETCH  ACCESS:          0  HIT:          0  MISS:          0
cpu0_DTLB WRITEBACK ACCESS:          0  HIT:          0  MISS:          0
cpu0_ITLB TOTAL     ACCESS:    3250487  HIT:    3250487  MISS:          0
cpu0_ITLB LOAD      ACCESS:    3250487  HIT:    3250487  MISS:          0
cpu0_ITLB RFO       ACCESS:          0  HIT:          0  MISS:          0
cpu0_ITLB PREFETCH  ACCESS:          0  HIT:          0  MISS:          0
cpu0_ITLB WRITEBACK ACCESS:          0  HIT:          0  MISS:          0
cpu0_L1I TOTAL     ACCESS:    1835355  HIT:    1835348  MISS:          7
cpu0_L1I LOAD      ACCESS:    1835355  HIT:    1835348  MISS:          7
cpu0_L1I RFO       ACCESS:          0  HIT:          0  MISS:          0
cpu0_L1I PREFETCH  ACCESS:          0  HIT:          0  MISS:          0
cpu0_L1I WRITEBACK ACCESS:          0  HIT:          0  MISS:          0
cpu0_STLB TOTAL     ACCESS:     353572  HIT:     353374  MISS:        198
cpu0_STLB LOAD      ACCESS:     348589  HIT:     348575  MISS:         14
cpu0_STLB RFO       ACCESS:       4983  HIT:       4799  MISS:        184
cpu0_STLB PREFETCH  ACCESS:          0  HIT:          0  MISS:          0
cpu0_STLB WRITEBACK ACCESS:          0  HIT:          0  MISS:          0
cpu0_L1D TOTAL     ACCESS:    9632569  HIT:    9141036  MISS:     491533
cpu0_L1D LOAD      ACCESS:    5611625  HIT:    5162636  MISS:     448989
cpu0_L1D RFO       ACCESS:    4020746  HIT:    3978365  MISS:      42381
cpu0_L1D PREFETCH  ACCESS:          0  HIT:          0  MISS:          0
cpu0_L1D WRITEBACK ACCESS:          0  HIT:          0  MISS:          0
cpu0_L2C TOTAL     ACCESS:     584391  HIT:     261593  MISS:     322798
cpu0_L2C LOAD      ACCESS:     448996  HIT:     159105  MISS:     289891
cpu0_L2C RFO       ACCESS:      42381  HIT:       9596  MISS:      32785
cpu0_L2C PREFETCH  ACCESS:          0  HIT:          0  MISS:          0
cpu0_L2C WRITEBACK ACCESS:      92851  HIT:      92739  MISS:        112
LLC TOTAL     ACCESS:     400239  HIT:     295869  MISS:     104370
LLC LOAD      ACCESS:     289891  HIT:     212857  MISS:      77034
LLC RFO       ACCESS:      32785  HIT:       5550  MISS:      27235
LLC PREFETCH  ACCESS:          0  HIT:          0  MISS:          0
LLC WRITEBACK ACCESS:      77553  HIT:      77454  MISS:         99
Heartbeat CPU 0 instructions: 100000003 cycles: 51264023 heartbeat IPC: 0.972565 cumulative IPC: 1.29189 (Simulation time: 0 hr 48 min 17 sec) 

Region of Interest Statistics
cpu0_DTLB TOTAL     ACCESS:   10164887  HIT:    9811276  MISS:     353611
cpu0_DTLB LOAD      ACCESS:    6046950  HIT:    5698356  MISS:     348594
cpu0_DTLB RFO       ACCESS:    4117937  HIT:    4112920  MISS:       5017
cpu0_DTLB PREFETCH  ACCESS:          0  HIT:          0  MISS:          0
cpu0_DTLB WRITEBACK ACCESS:          0  HIT:          0  MISS:          0
cpu0_ITLB TOTAL     ACCESS:    3415014  HIT:    3415014  MISS:          0
cpu0_ITLB LOAD      ACCESS:    3415014  HIT:    3415014  MISS:          0
cpu0_ITLB RFO       ACCESS:          0  HIT:          0  MISS:          0
cpu0_ITLB PREFETCH  ACCESS:          0  HIT:          0  MISS:          0
cpu0_ITLB WRITEBACK ACCESS:          0  HIT:          0  MISS:          0
cpu0_L1I TOTAL     ACCESS:    2004700  HIT:    2004693  MISS:          7
cpu0_L1I LOAD      ACCESS:    2004700  HIT:    2004693  MISS:          7
cpu0_L1I RFO       ACCESS:          0  HIT:          0  MISS:          0
cpu0_L1I PREFETCH  ACCESS:          0  HIT:          0  MISS:          0
cpu0_L1I WRITEBACK ACCESS:          0  HIT:          0  MISS:          0
cpu0_STLB TOTAL     ACCESS:     353611  HIT:     353410  MISS:        201
cpu0_STLB LOAD      ACCESS:     348594  HIT:     348577  MISS:         17
cpu0_STLB RFO       ACCESS:       5017  HIT:       4833  MISS:        184
cpu0_STLB PREFETCH  ACCESS:          0  HIT:          0  MISS:          0
cpu0_STLB WRITEBACK ACCESS:          0  HIT:          0  MISS:          0
cpu0_L1D TOTAL     ACCESS:   10166187  HIT:    9672066  MISS:     494121
cpu0_L1D LOAD      ACCESS:    5930853  HIT:    5481564  MISS:     449289
cpu0_L1D RFO       ACCESS:    4235133  HIT:    4190466  MISS:      44667
cpu0_L1D PREFETCH  ACCESS:          0  HIT:          0  MISS:          0
cpu0_L1D WRITEBACK ACCESS:          0  HIT:          0  MISS:          0
cpu0_L2C TOTAL     ACCESS:     589430  HIT:     264224  MISS:     325206
cpu0_L2C LOAD      ACCESS:     449296  HIT:     159200  MISS:     290096
cpu0_L2C RFO       ACCESS:      44667  HIT:       9684  MISS:      34983
cpu0_L2C PREFETCH  ACCESS:          0  HIT:          0  MISS:          0
cpu0_L2C WRITEBACK ACCESS:      95302  HIT:      95185  MISS:        117
LLC TOTAL     ACCESS:     404869  HIT:     298977  MISS:     105892
LLC LOAD      ACCESS:     290096  HIT:     212905  MISS:      77191
LLC RFO       ACCESS:      34983  HIT:       6383  MISS:      28600
LLC PREFETCH  ACCESS:          0  HIT:          0  MISS:          0
LLC WRITEBACK ACCESS:      79780  HIT:      79681  MISS:         99
Heartbeat CPU 0 instructions: 102000000 cycles: 53529906 heartbeat IPC: 0.882657 cumulative IPC: 1.26925 (Simulation time: 0 hr 49 min 6 sec) 

Region of Interest Statistics
cpu0_DTLB TOTAL     ACCESS:   10636973  HIT:   10283343  MISS:     353630
cpu0_DTLB LOAD      ACCESS:    6363382  HIT:    6014787  MISS:     348595
cpu0_DTLB RFO       ACCESS:    4273591  HIT:    4268556  MISS:       5035
cpu0_DTLB PREFETCH  ACCESS:          0  HIT:          0  MISS:          0
cpu0_DTLB WRITEBACK ACCESS:          0  HIT:          0  MISS:          0
cpu0_ITLB TOTAL     ACCESS:    3594468  HIT:    3594468  MISS:          0
cpu0_ITLB LOAD      ACCESS:    3594468  HIT:    3594468  MISS:          0
cpu0_ITLB RFO       ACCESS:          0  HIT:          0  MISS:          0
cpu0_ITLB PREFETCH  ACCESS:          0  HIT:          0  MISS:          0
cpu0_ITLB WRITEBACK ACCESS:          0  HIT:          0  MISS:          0
cpu0_L1I TOTAL     ACCESS:    2197881  HIT:    2197874  MISS:          7
cpu0_L1I LOAD      ACCESS:    2197881  HIT:    2197874  MISS:          7
cpu0_L1I RFO       ACCESS:          0  HIT:          0  MISS:          0
cpu0_L1I PREFETCH  ACCESS:          0  HIT:          0  MISS:          0
cpu0_L1I WRITEBACK ACCESS:          0  HIT:          0  MISS:          0
cpu0_STLB TOTAL     ACCESS:     353630  HIT:     353428  MISS:        202
cpu0_STLB LOAD      ACCESS:     348595  HIT:     348577  MISS:         18
cpu0_STLB RFO       ACCESS:       5035  HIT:       4851  MISS:        184
cpu0_STLB PREFETCH  ACCESS:          0  HIT:          0  MISS:          0
cpu0_STLB WRITEBACK ACCESS:          0  HIT:          0  MISS:          0
cpu0_L1D TOTAL     ACCESS:   10745504  HIT:   10250043  MISS:     495461
cpu0_L1D LOAD      ACCESS:    6271104  HIT:    5821683  MISS:     449421
cpu0_L1D RFO       ACCESS:    4474198  HIT:    4428324  MISS:      45874
cpu0_L1D PREFETCH  ACCESS:          0  HIT:          0  MISS:          0
cpu0_L1D WRITEBACK ACCESS:          0  HIT:          0  MISS:          0
cpu0_L2C TOTAL     ACCESS:     591978  HIT:     265498  MISS:     326480
cpu0_L2C LOAD      ACCESS:     449428  HIT:     159243  MISS:     290185
cpu0_L2C RFO       ACCESS:      45874  HIT:       9706  MISS:      36168
cpu0_L2C PREFETCH  ACCESS:          0  HIT:          0  MISS:          0
cpu0_L2C WRITEBACK ACCESS:      96510  HIT:      96393  MISS:        117
LLC TOTAL     ACCESS:     407405  HIT:     300749  MISS:     106656
LLC LOAD      ACCESS:     290185  HIT:     212916  MISS:      77269
LLC RFO       ACCESS:      36168  HIT:       6882  MISS:      29286
LLC PREFETCH  ACCESS:          0  HIT:          0  MISS:          0
LLC WRITEBACK ACCESS:      81042  HIT:      80943  MISS:         99
Heartbeat CPU 0 instructions: 104000000 cycles: 55702372 heartbeat IPC: 0.920613 cumulative IPC: 1.2517 (Simulation time: 0 hr 49 min 57 sec) 

Region of Interest Statistics
cpu0_DTLB TOTAL     ACCESS:   11104011  HIT:   10750363  MISS:     353648
cpu0_DTLB LOAD      ACCESS:    6677877  HIT:    6329281  MISS:     348596
cpu0_DTLB RFO       ACCESS:    4426134  HIT:    4421082  MISS:       5052
cpu0_DTLB PREFETCH  ACCESS:          0  HIT:          0  MISS:          0
cpu0_DTLB WRITEBACK ACCESS:          0  HIT:          0  MISS:          0
cpu0_ITLB TOTAL     ACCESS:    3768648  HIT:    3768648  MISS:          0
cpu0_ITLB LOAD      ACCESS:    3768648  HIT:    3768648  MISS:          0
cpu0_ITLB RFO       ACCESS:          0  HIT:          0  MISS:          0
cpu0_ITLB PREFETCH  ACCESS:          0  HIT:          0  MISS:          0
cpu0_ITLB WRITEBACK ACCESS:          0  HIT:          0  MISS:          0
cpu0_L1I TOTAL     ACCESS:    2394442  HIT:    2394435  MISS:          7
cpu0_L1I LOAD      ACCESS:    2394442  HIT:    2394435  MISS:          7
cpu0_L1I RFO       ACCESS:          0  HIT:          0  MISS:          0
cpu0_L1I PREFETCH  ACCESS:          0  HIT:          0  MISS:          0
cpu0_L1I WRITEBACK ACCESS:          0  HIT:          0  MISS:          0
cpu0_STLB TOTAL     ACCESS:     353648  HIT:     353445  MISS:        203
cpu0_STLB LOAD      ACCESS:     348596  HIT:     348577  MISS:         19
cpu0_STLB RFO       ACCESS:       5052  HIT:       4868  MISS:        184
cpu0_STLB PREFETCH  ACCESS:          0  HIT:          0  MISS:          0
cpu0_STLB WRITEBACK ACCESS:          0  HIT:          0  MISS:          0
cpu0_L1D TOTAL     ACCESS:   11318746  HIT:   10822043  MISS:     496703
cpu0_L1D LOAD      ACCESS:    6609508  HIT:    6159960  MISS:     449548
cpu0_L1D RFO       ACCESS:    4709035  HIT:    4662047  MISS:      46988
cpu0_L1D PREFETCH  ACCESS:          0  HIT:          0  MISS:          0
cpu0_L1D WRITEBACK ACCESS:          0  HIT:          0  MISS:          0
cpu0_L2C TOTAL     ACCESS:     594315  HIT:     266665  MISS:     327650
cpu0_L2C LOAD      ACCESS:     449555  HIT:     159285  MISS:     290270
cpu0_L2C RFO       ACCESS:      46988  HIT:       9737  MISS:      37251
cpu0_L2C PREFETCH  ACCESS:          0  HIT:          0  MISS:          0
cpu0_L2C WRITEBACK ACCESS:      97605  HIT:      97486  MISS:        119
LLC TOTAL     ACCESS:     409637  HIT:     302009  MISS:     107628
LLC LOAD      ACCESS:     290270  HIT:     212923  MISS:      77347
LLC RFO       ACCESS:      37251  HIT:       7071  MISS:      30180
LLC PREFETCH  ACCESS:          0  HIT:          0  MISS:          0
LLC WRITEBACK ACCESS:      82106  HIT:      82007  MISS:         99
Heartbeat CPU 0 instructions: 106000002 cycles: 57923265 heartbeat IPC: 0.90054 cumulative IPC: 1.2345 (Simulation time: 0 hr 50 min 48 sec) 

Region of Interest Statistics
cpu0_DTLB TOTAL     ACCESS:   11557024  HIT:   11203357  MISS:     353667
cpu0_DTLB LOAD      ACCESS:    6987277  HIT:    6638676  MISS:     348601
cpu0_DTLB RFO       ACCESS:    4569747  HIT:    4564681  MISS:       5066
cpu0_DTLB PREFETCH  ACCESS:          0  HIT:          0  MISS:          0
cpu0_DTLB WRITEBACK ACCESS:          0  HIT:          0  MISS:          0
cpu0_ITLB TOTAL     ACCESS:    3946235  HIT:    3946235  MISS:          0
cpu0_ITLB LOAD      ACCESS:    3946235  HIT:    3946235  MISS:          0
cpu0_ITLB RFO       ACCESS:          0  HIT:          0  MISS:          0
cpu0_ITLB PREFETCH  ACCESS:          0  HIT:          0  MISS:          0
cpu0_ITLB WRITEBACK ACCESS:          0  HIT:          0  MISS:          0
cpu0_L1I TOTAL     ACCESS:    2568955  HIT:    2568948  MISS:          7
cpu0_L1I LOAD      ACCESS:    2568955  HIT:    2568948  MISS:          7
cpu0_L1I RFO       ACCESS:          0  HIT:          0  MISS:          0
cpu0_L1I PREFETCH  ACCESS:          0  HIT:          0  MISS:          0
cpu0_L1I WRITEBACK ACCESS:          0  HIT:          0  MISS:          0
cpu0_STLB TOTAL     ACCESS:     353667  HIT:     353461  MISS:        206
cpu0_STLB LOAD      ACCESS:     348601  HIT:     348579  MISS:         22
cpu0_STLB RFO       ACCESS:       5066  HIT:       4882  MISS:        184
cpu0_STLB PREFETCH  ACCESS:          0  HIT:          0  MISS:          0
cpu0_STLB WRITEBACK ACCESS:          0  HIT:          0  MISS:          0
cpu0_L1D TOTAL     ACCESS:   11897307  HIT:   11399511  MISS:     497796
cpu0_L1D LOAD      ACCESS:    6941372  HIT:    6491622  MISS:     449750
cpu0_L1D RFO       ACCESS:    4955729  HIT:    4907852  MISS:      47877
cpu0_L1D PREFETCH  ACCESS:          0  HIT:          0  MISS:          0
cpu0_L1D WRITEBACK ACCESS:          0  HIT:          0  MISS:          0
cpu0_L2C TOTAL     ACCESS:     596373  HIT:     267692  MISS:     328681
cpu0_L2C LOAD      ACCESS:     449757  HIT:     159324  MISS:     290433
cpu0_L2C RFO       ACCESS:      47877  HIT:       9758  MISS:      38119
cpu0_L2C PREFETCH  ACCESS:          0  HIT:          0  MISS:          0
[...]
cpu0_DTLB LOAD      ACCESS:  200869350  HIT:  191868384  MISS:    9000966
cpu0_DTLB RFO       ACCESS:  124381578  HIT:  124257010  MISS:     124568
cpu0_DTLB PREFETCH  ACCESS:          0  HIT:          0  MISS:          0
cpu0_DTLB WRITEBACK ACCESS:          0  HIT:          0  MISS:          0
cpu0_ITLB TOTAL     ACCESS:  107628732  HIT:  107628732  MISS:          0
cpu0_ITLB LOAD      ACCESS:  107628732  HIT:  107628732  MISS:          0
cpu0_ITLB RFO       ACCESS:          0  HIT:          0  MISS:          0
cpu0_ITLB PREFETCH  ACCESS:          0  HIT:          0  MISS:          0
cpu0_ITLB WRITEBACK ACCESS:          0  HIT:          0  MISS:          0
cpu0_L1I TOTAL     ACCESS:   88017916  HIT:   88017907  MISS:          9
cpu0_L1I LOAD      ACCESS:   88017916  HIT:   88017907  MISS:          9
cpu0_L1I RFO       ACCESS:          0  HIT:          0  MISS:          0
cpu0_L1I PREFETCH  ACCESS:          0  HIT:          0  MISS:          0
cpu0_L1I WRITEBACK ACCESS:          0  HIT:          0  MISS:          0
cpu0_STLB TOTAL     ACCESS:    9125534  HIT:    9121193  MISS:       4341
cpu0_STLB LOAD      ACCESS:    9000966  HIT:    9000217  MISS:        749
cpu0_STLB RFO       ACCESS:     124568  HIT:     120976  MISS:       3592
cpu0_STLB PREFETCH  ACCESS:          0  HIT:          0  MISS:          0
cpu0_STLB WRITEBACK ACCESS:          0  HIT:          0  MISS:          0
cpu0_L1D TOTAL     ACCESS:  344314793  HIT:  332555156  MISS:   11759637
cpu0_L1D LOAD      ACCESS:  203246536  HIT:  192801169  MISS:   10445367
cpu0_L1D RFO       ACCESS:  141063916  HIT:  139753191  MISS:    1310725
cpu0_L1D PREFETCH  ACCESS:          0  HIT:          0  MISS:          0
cpu0_L1D WRITEBACK ACCESS:          0  HIT:          0  MISS:          0
cpu0_L2C TOTAL     ACCESS:   14079681  HIT:    5118943  MISS:    8960738
cpu0_L2C LOAD      ACCESS:   10445343  HIT:    2595562  MISS:    7849781
cpu0_L2C RFO       ACCESS:    1310725  HIT:     204112  MISS:    1106613
cpu0_L2C PREFETCH  ACCESS:          0  HIT:          0  MISS:          0
cpu0_L2C WRITEBACK ACCESS:    2320068  HIT:    2316385  MISS:       3683
LLC TOTAL     ACCESS:   10968797  HIT:    7908917  MISS:    3059880
LLC LOAD      ACCESS:    7849771  HIT:    5600867  MISS:    2248904
LLC RFO       ACCESS:    1106598  HIT:     298057  MISS:     808541
LLC PREFETCH  ACCESS:          0  HIT:          0  MISS:          0
LLC WRITEBACK ACCESS:    2011767  HIT:    2009401  MISS:       2366
Heartbeat CPU 0 instructions: 1550000003 cycles: 1385440490 heartbeat IPC: 0.902717 cumulative IPC: 1.09259 (Simulation time: 13 hr 42 min 33 sec) 

Region of Interest Statistics
cpu0_DTLB TOTAL     ACCESS:  325734410  HIT:  316608845  MISS:    9125565
cpu0_DTLB LOAD      ACCESS:  201187388  HIT:  192186415  MISS:    9000973
cpu0_DTLB RFO       ACCESS:  124547022  HIT:  124422430  MISS:     124592
cpu0_DTLB PREFETCH  ACCESS:          0  HIT:          0  MISS:          0
cpu0_DTLB WRITEBACK ACCESS:          0  HIT:          0  MISS:          0
cpu0_ITLB TOTAL     ACCESS:  107812319  HIT:  107812319  MISS:          0
cpu0_ITLB LOAD      ACCESS:  107812319  HIT:  107812319  MISS:          0
cpu0_ITLB RFO       ACCESS:          0  HIT:          0  MISS:          0
cpu0_ITLB PREFETCH  ACCESS:          0  HIT:          0  MISS:          0
cpu0_ITLB WRITEBACK ACCESS:          0  HIT:          0  MISS:          0
cpu0_L1I TOTAL     ACCESS:   88209861  HIT:   88209852  MISS:          9
cpu0_L1I LOAD      ACCESS:   88209861  HIT:   88209852  MISS:          9
cpu0_L1I RFO       ACCESS:          0  HIT:          0  MISS:          0
cpu0_L1I PREFETCH  ACCESS:          0  HIT:          0  MISS:          0
cpu0_L1I WRITEBACK ACCESS:          0  HIT:          0  MISS:          0
cpu0_STLB TOTAL     ACCESS:    9125565  HIT:    9121221  MISS:       4344
cpu0_STLB LOAD      ACCESS:    9000973  HIT:    9000221  MISS:        752
cpu0_STLB RFO       ACCESS:     124592  HIT:     121000  MISS:       3592
cpu0_STLB PREFETCH  ACCESS:          0  HIT:          0  MISS:          0
cpu0_STLB WRITEBACK ACCESS:          0  HIT:          0  MISS:          0
cpu0_L1D TOTAL     ACCESS:  344871417  HIT:  333109842  MISS:   11761575
cpu0_L1D LOAD      ACCESS:  203581050  HIT:  193135384  MISS:   10445666
cpu0_L1D RFO       ACCESS:  141286023  HIT:  139973661  MISS:    1312362
cpu0_L1D PREFETCH  ACCESS:          0  HIT:          0  MISS:          0
cpu0_L1D WRITEBACK ACCESS:          0  HIT:          0  MISS:          0
cpu0_L2C TOTAL     ACCESS:   14083450  HIT:    5120962  MISS:    8962488
cpu0_L2C LOAD      ACCESS:   10445642  HIT:    2595655  MISS:    7849987
cpu0_L2C RFO       ACCESS:    1312362  HIT:     204207  MISS:    1108155
cpu0_L2C PREFETCH  ACCESS:          0  HIT:          0  MISS:          0
cpu0_L2C WRITEBACK ACCESS:    2321899  HIT:    2318214  MISS:       3685
LLC TOTAL     ACCESS:   10972094  HIT:    7911297  MISS:    3060797
LLC LOAD      ACCESS:    7849977  HIT:    5600917  MISS:    2249060
LLC RFO       ACCESS:    1108140  HIT:     298838  MISS:     809302
LLC PREFETCH  ACCESS:          0  HIT:          0  MISS:          0
LLC WRITEBACK ACCESS:    2013316  HIT:    2010950  MISS:       2366
Finished CPU 0 instructions: 1500000001 cycles: 1372879575 cumulative IPC: 1.09259 (Simulation time: 13 hr 42 min 33 sec) 

ChampSim completed all CPUs

Region of Interest Statistics

CPU 0 cumulative IPC: 1.09259 instructions: 1500000001 cycles: 1372879575
cpu0_DTLB TOTAL     ACCESS:  325734410  HIT:  316608845  MISS:    9125565
cpu0_DTLB LOAD      ACCESS:  201187388  HIT:  192186415  MISS:    9000973
cpu0_DTLB RFO       ACCESS:  124547022  HIT:  124422430  MISS:     124592
cpu0_DTLB PREFETCH  ACCESS:          0  HIT:          0  MISS:          0
cpu0_DTLB WRITEBACK ACCESS:          0  HIT:          0  MISS:          0
cpu0_DTLB TRANSLATION ACCESS:          0  HIT:          0  MISS:          0
cpu0_DTLB PREFETCH  REQUESTED:          0  ISSUED:          0  USEFUL:          0  USELESS:          0
cpu0_DTLB AVERAGE MISS LATENCY: 9.10693 cycles
cpu0_ITLB TOTAL     ACCESS:  107812319  HIT:  107812319  MISS:          0
cpu0_ITLB LOAD      ACCESS:  107812319  HIT:  107812319  MISS:          0
cpu0_ITLB RFO       ACCESS:          0  HIT:          0  MISS:          0
cpu0_ITLB PREFETCH  ACCESS:          0  HIT:          0  MISS:          0
cpu0_ITLB WRITEBACK ACCESS:          0  HIT:          0  MISS:          0
cpu0_ITLB TRANSLATION ACCESS:          0  HIT:          0  MISS:          0
cpu0_ITLB PREFETCH  REQUESTED:          0  ISSUED:          0  USEFUL:          0  USELESS:          0
cpu0_ITLB AVERAGE MISS LATENCY: -nan cycles
cpu0_L1I TOTAL     ACCESS:   88209861  HIT:   88209852  MISS:          9
cpu0_L1I LOAD      ACCESS:   88209861  HIT:   88209852  MISS:          9
cpu0_L1I RFO       ACCESS:          0  HIT:          0  MISS:          0
cpu0_L1I PREFETCH  ACCESS:          0  HIT:          0  MISS:          0
cpu0_L1I WRITEBACK ACCESS:          0  HIT:          0  MISS:          0
cpu0_L1I TRANSLATION ACCESS:          0  HIT:          0  MISS:          0
cpu0_L1I PREFETCH  REQUESTED:          0  ISSUED:          0  USEFUL:          0  USELESS:          0
cpu0_L1I AVERAGE MISS LATENCY: 266.444 cycles
cpu0_STLB TOTAL     ACCESS:    9125565  HIT:    9121221  MISS:       4344
cpu0_STLB LOAD      ACCESS:    9000973  HIT:    9000221  MISS:        752
cpu0_STLB RFO       ACCESS:     124592  HIT:     121000  MISS:       3592
cpu0_STLB PREFETCH  ACCESS:          0  HIT:          0  MISS:          0
cpu0_STLB WRITEBACK ACCESS:          0  HIT:          0  MISS:          0
cpu0_STLB TRANSLATION ACCESS:          0  HIT:          0  MISS:          0
cpu0_STLB PREFETCH  REQUESTED:          0  ISSUED:          0  USEFUL:          0  USELESS:          0
cpu0_STLB AVERAGE MISS LATENCY: 223.786 cycles
cpu0_L1D TOTAL     ACCESS:  344871417  HIT:  333109842  MISS:   11761575
cpu0_L1D LOAD      ACCESS:  203581050  HIT:  193135384  MISS:   10445666
cpu0_L1D RFO       ACCESS:  141286023  HIT:  139973661  MISS:    1312362
cpu0_L1D PREFETCH  ACCESS:          0  HIT:          0  MISS:          0
cpu0_L1D WRITEBACK ACCESS:          0  HIT:          0  MISS:          0
cpu0_L1D TRANSLATION ACCESS:       4344  HIT:        797  MISS:       3547
cpu0_L1D PREFETCH  REQUESTED:          0  ISSUED:          0  USEFUL:          0  USELESS:          0
cpu0_L1D AVERAGE MISS LATENCY: 86.7275 cycles
cpu0_L2C TOTAL     ACCESS:   14083450  HIT:    5120962  MISS:    8962488
cpu0_L2C LOAD      ACCESS:   10445642  HIT:    2595655  MISS:    7849987
cpu0_L2C RFO       ACCESS:    1312362  HIT:     204207  MISS:    1108155
cpu0_L2C PREFETCH  ACCESS:          0  HIT:          0  MISS:          0
cpu0_L2C WRITEBACK ACCESS:    2321899  HIT:    2318214  MISS:       3685
cpu0_L2C TRANSLATION ACCESS:       3547  HIT:       2886  MISS:        661
cpu0_L2C PREFETCH  REQUESTED:          0  ISSUED:          0  USEFUL:          0  USELESS:          0
cpu0_L2C AVERAGE MISS LATENCY: 99.3743 cycles
LLC TOTAL     ACCESS:   10972094  HIT:    7911297  MISS:    3060797
LLC LOAD      ACCESS:    7849977  HIT:    5600917  MISS:    2249060
LLC RFO       ACCESS:    1108140  HIT:     298838  MISS:     809302
LLC PREFETCH  ACCESS:          0  HIT:          0  MISS:          0
LLC WRITEBACK ACCESS:    2013316  HIT:    2010950  MISS:       2366
LLC TRANSLATION ACCESS:        661  HIT:        592  MISS:         69
LLC PREFETCH  REQUESTED:          0  ISSUED:          0  USEFUL:          0  USELESS:          0
LLC AVERAGE MISS LATENCY: 229.514 cycles
~~~~~~~~~~Reuse Distance Profiler output~~~~~~~~~~
0	0	0
1	0	0
2	0	0
3	0	0
4	0	0
5	0	0
6	0	0
7	0	0
8	0	0
9	0	0
10	0	0
11	0	0
12	0	0
13	0	0
14	0	0
15	0	0
16	0	0
17	0	0
18	0	0
19	0	0
20	0	0
21	0	0
22	0	0
23	0	0
24	0	0
25	0	0
26	0	0
27	0	0
28	0	0
29	0	0
30	0	0
31	0	0
32	0	0
33	0	0
34	0	0
35	0	0
36	0	0
37	0	0
38	0	0
39	0	0
40	0	0
41	0	0
42	0	0
43	0	0
44	0	0
45	0	0
46	0	0
47	0	0
48	0	0
49	0	0
50	0	0
51	0	0
52	0	0
53	0	0
54	0	0
55	0	0
56	0	0
57	0	0
58	0	0
59	0	0
60	0	0
61	0	0
62	0	0
63	0	0
64	0	0
66	0	0
68	0	0
70	0	0
72	0	0
74	0	0
76	0	0
78	0	0
80	0	0
82	0	0
84	0	0
86	0	0
88	0	0
90	0	0
92	0	0
94	0	0
96	0	0
98	0	0
100	0	0
102	0	0
104	0	0
106	0	0
108	0	0
110	0	0
112	0	0
114	0	0
116	0	0
118	0	0
120	0	0
122	0	0
124	0	0
126	0	0
128	0	0
132	0	0
136	0	0
140	0	0
144	0	0
148	0	0
152	0	0
156	0	0
160	0	0
164	0	0
168	0	0
172	0	0
176	0	0
180	0	0
184	0	0
188	0	0
192	0	0
196	0	0
200	0	0
204	0	0
208	0	0
212	0	0
216	0	0
220	0	0
224	0	0
228	0	0
232	0	0
236	0	0
240	0	0
244	0	0
248	0	0
252	0	0
256	0	0
264	0	0
272	0	0
280	0	0
288	0	0
296	0	0
304	0	0
312	0	0
320	0	0
328	0	0
336	0	0
344	0	0
352	0	0
360	0	0
368	0	0
376	0	0
384	0	0
392	0	0
400	0	0
408	0	0
416	0	0
424	0	0
432	0	0
440	0	0
448	0	0
456	0	0
464	0	0
472	0	0
480	0	0
488	0	0
496	0	0
504	0	0
512	0	0
528	0	0
544	0	0
560	0	0
576	0	0
592	0	0
608	0	0
624	0	0
640	0	0
656	0	0
672	0	0
688	0	0
704	0	0
720	0	0
736	0	0
752	0	0
768	0	0
784	0	0
800	0	0
816	0	0
832	0	0
848	0	0
864	0	0
880	0	0
896	0	0
912	0	0
928	0	0
944	0	0
960	0	0
976	0	0
992	0	0
1008	0	0
1024	0	0
1056	0	0
1088	0	0
1120	0	0
1152	0	0
1184	0	0
1216	0	0
1248	0	0
1280	0	0
1312	0	0
1344	0	0
1376	0	0
1408	0	0
1440	0	0
1472	0	0
1504	0	0
1536	0	0
1568	0	0
1600	0	0
1632	0	0
1664	0	0
1696	0	0
1728	0	0
1760	0	0
1792	0	0
1824	0	0
1856	0	0
1888	0	0
1920	0	0
1952	0	0
1984	0	0
2016	0	0
2048	0	0
2112	0	0
2176	0	0
2240	0	0
2304	0	0
2368	0	0
2432	0	0
2496	0	0
2560	0	0
2624	0	0
2688	0	0
2752	0	0
2816	0	0
2880	0	0
2944	0	0
3008	0	0
3072	0	0
3136	0	0
3200	0	0
3264	0	0
3328	0	0
3392	0	0
3456	0	0
3520	0	0
3584	0	0
3648	0	0
3712	0	0
3776	0	0
3840	0	0
3904	0	0
3968	0	0
4032	0	0
4096	0	0
4224	0	0
4352	0	0
4480	0	0
4608	0	0
4736	0	0
4864	0	0
4992	0	0
5120	0	0
5248	0	0
5376	0	0
5504	0	0
5632	0	0
5760	0	0
5888	0	0
6016	0	0
6144	0	0
6272	0	0
6400	0	0
6528	0	0
6656	0	0
6784	0	0
6912	0	0
7040	0	0
7168	0	0
7296	0	0
7424	0	0
7552	0	0
7680	0	0
7808	0	0
7936	0	0
8064	0	0
8192	0	0
8448	0	0
8704	0	0
8960	0	0
9216	0	0
9472	0	0
9728	0	0
9984	0	0
10240	0	0
10496	0	0
10752	0	0
11008	0	0
11264	0	0
11520	0	0
11776	0	0
12032	0	0
12288	0	0
12544	0	0
12800	0	0
13056	0	0
13312	0	0
13568	0	0
13824	0	0
14080	0	0
14336	0	0
14592	0	0
14848	0	0
15104	0	0
15360	0	0
15616	0	0
15872	0	0
16128	0	0
16384	0	0
16896	0	0
17408	0	0
17920	0	0
18432	0	0
18944	0	0
19456	0	0
19968	0	0
20480	0	0
20992	0	0
21504	0	0
22016	0	0
22528	0	0
23040	0	0
23552	0	0
24064	0	0
24576	0	0
25088	0	0
25600	0	0
26112	0	0
26624	0	0
27136	0	0
27648	0	0
28160	0	0
28672	0	0
29184	0	0
29696	0	0
30208	0	0
30720	0	0
31232	0	0
31744	0	0
32256	0	0
32768	0	0
33792	0	0
34816	0	0
35840	0	0
36864	0	0
37888	0	0
38912	0	0
39936	0	0
40960	0	0
41984	0	0
43008	0	0
44032	0	0
45056	0	0
46080	0	0
47104	0	0
48128	0	0
49152	0	0
50176	0	0
51200	0	0
52224	0	0
53248	0	0
54272	0	0
55296	0	0
56320	0	0
57344	0	0
58368	0	0
59392	0	0
60416	0	0
61440	0	0
62464	0	0
63488	0	0
64512	0	0
65536	0	0
67584	0	0
69632	0	0
71680	0	0
73728	0	0
75776	0	0
77824	0	0
79872	0	0
81920	0	0
83968	0	0
86016	0	0
88064	0	0
90112	0	0
92160	0	0
94208	0	0
96256	0	0
98304	0	0
100352	0	0
102400	0	0
104448	0	0
106496	0	0
108544	0	0
110592	0	0
112640	0	0
114688	0	0
116736	0	0
118784	0	0
120832	0	0
122880	0	0
124928	0	0
126976	0	0
129024	0	0
131072	0	0
135168	0	0
139264	0	0
143360	0	0
147456	0	0
151552	0	0
155648	0	0
159744	0	0
163840	0	0
167936	0	0
172032	0	0
176128	0	0
180224	0	0
184320	0	0
188416	0	0
192512	0	0
196608	0	0
200704	0	0
204800	0	0
208896	0	0
212992	0	0
217088	0	0
221184	0	0
225280	0	0
229376	0	0
233472	0	0
237568	0	0
241664	0	0
245760	0	0
249856	0	0
253952	0	0
258048	0	0
262144	0	0
270336	0	0
278528	0	0
286720	0	0
294912	0	0
303104	0	0
311296	0	0
319488	0	0
327680	0	0
335872	0	0
344064	0	0
352256	0	0
360448	0	0
368640	0	0
376832	0	0
385024	0	0
393216	0	0
401408	0	0
409600	0	0
417792	0	0
425984	0	0
434176	0	0
442368	0	0
450560	0	0
458752	0	0
466944	0	0
475136	0	0
483328	0	0
491520	0	0
499712	0	0
507904	0	0
516096	0	0
524288	0	0
540672	0	0
557056	0	0
573440	0	0
589824	0	0
606208	0	0
622592	0	0
638976	0	0
655360	0	0
671744	0	0
688128	0	0
704512	0	0
720896	0	0
737280	0	0
753664	0	0
770048	0	0
786432	0	0
802816	0	0
819200	0	0
835584	0	0
851968	0	0
868352	0	0
884736	0	0
901120	0	0
917504	0	0
933888	0	0
950272	0	0
966656	0	0
983040	0	0
999424	0	0
1015808	0	0
1032192	0	0
1048576	0	0
1081344	0	0
1114112	0	0
1146880	0	0
1179648	0	0
1212416	0	0
1245184	0	0
1277952	0	0
1310720	0	0
1343488	0	0
1376256	0	0
1409024	0	0
1441792	0	0
1474560	0	0
1507328	0	0
1540096	0	0
1572864	0	0
1605632	0	0
1638400	0	0
1671168	0	0
1703936	0	0
1736704	0	0
1769472	0	0
1802240	0	0
1835008	0	0
1867776	0	0
1900544	0	0
1933312	0	0
1966080	0	0
1998848	0	0
2031616	0	0
2064384	0	0
2097152	0	0
2162688	0	0
2228224	0	0
2293760	0	0
2359296	0	0
2424832	0	0
2490368	0	0
2555904	0	0
2621440	0	0
2686976	0	0
2752512	0	0
2818048	0	0
2883584	0	0
2949120	0	0
3014656	0	0
3080192	0	0
3145728	0	0
3211264	0	0
3276800	0	0
3342336	0	0
3407872	0	0
3473408	0	0
3538944	0	0
3604480	0	0
3670016	0	0
3735552	0	0
3801088	0	0
3866624	0	0
3932160	0	0
3997696	0	0
4063232	0	0
4128768	0	0
4194304	0	0
4325376	0	0
4456448	0	0
4587520	0	0
4718592	0	0
4849664	0	0
4980736	0	0
5111808	0	0
5242880	0	0
5373952	0	0
5505024	0	0
5636096	0	0
5767168	0	0
5898240	0	0
6029312	0	0
6160384	0	0
6291456	0	0
6422528	0	0
6553600	0	0
6684672	0	0
6815744	0	0
6946816	0	0
7077888	0	0
7208960	0	0
7340032	0	0
7471104	0	0
7602176	0	0
7733248	0	0
7864320	0	0
7995392	0	0
8126464	0	0
8257536	0	0
8388608	0	0
8650752	0	0
8912896	0	0
9175040	0	0
9437184	0	0
9699328	0	0
9961472	0	0
10223616	0	0
10485760	0	0
10747904	0	0
11010048	0	0
11272192	0	0
11534336	0	0
11796480	0	0
12058624	0	0
12320768	0	0
12582912	0	0
12845056	0	0
13107200	0	0
13369344	0	0
13631488	0	0
13893632	0	0
14155776	0	0
14417920	0	0
14680064	0	0
14942208	0	0
15204352	0	0
15466496	0	0
15728640	0	0
15990784	0	0
16252928	0	0
16515072	0	0
16777216	0	0
17301504	0	0
17825792	0	0
18350080	0	0
18874368	0	0
19398656	0	0
19922944	0	0
20447232	0	0
20971520	0	0
21495808	0	0
22020096	0	0
22544384	0	0
23068672	0	0
23592960	0	0
24117248	0	0
24641536	0	0
25165824	0	0
25690112	0	0
26214400	0	0
26738688	0	0
27262976	0	0
27787264	0	0
28311552	0	0
28835840	0	0
29360128	0	0
29884416	0	0
30408704	0	0
30932992	0	0
31457280	0	0
31981568	0	0
32505856	0	0
33030144	0	0
33554432	0	0
34603008	0	0
35651584	0	0
36700160	0	0
37748736	0	0
38797312	0	0
39845888	0	0
40894464	0	0
41943040	0	0
42991616	0	0
44040192	0	0
45088768	0	0
46137344	0	0
47185920	0	0
48234496	0	0
49283072	0	0
50331648	0	0
51380224	0	0
52428800	0	0
53477376	0	0
54525952	0	0
55574528	0	0
56623104	0	0
57671680	0	0
58720256	0	0
59768832	0	0
60817408	0	0
61865984	0	0
62914560	0	0
63963136	0	0
65011712	0	0
66060288	0	0
67108864	0	0
69206016	0	0
71303168	0	0
73400320	0	0
75497472	0	0
77594624	0	0
79691776	0	0
81788928	0	0
83886080	0	0
85983232	0	0
88080384	0	0
90177536	0	0
92274688	0	0
94371840	0	0
96468992	0	0
98566144	0	0
100663296	0	0
102760448	0	0
104857600	0	0
106954752	0	0
109051904	0	0
111149056	0	0
113246208	0	0
115343360	0	0
117440512	0	0
119537664	0	0
121634816	0	0
123731968	0	0
125829120	0	0
127926272	0	0
130023424	0	0
132120576	0	0
134217728	0	0
138412032	0	0
142606336	0	0
146800640	0	0
150994944	0	0
155189248	0	0
159383552	0	0
163577856	0	0
167772160	0	0
171966464	0	0
176160768	0	0
180355072	0	0
184549376	0	0
188743680	0	0
192937984	0	0
197132288	0	0
201326592	0	0
205520896	0	0
209715200	0	0
213909504	0	0
218103808	0	0
222298112	0	0
226492416	0	0
230686720	0	0
234881024	0	0
239075328	0	0
243269632	0	0
247463936	0	0
251658240	0	0
255852544	0	0
260046848	0	0
264241152	0	0
268435456	0	0
276824064	0	0
285212672	0	0
293601280	0	0
301989888	0	0
310378496	0	0
318767104	0	0
327155712	0	0
335544320	0	0
343932928	0	0
352321536	0	0
360710144	0	0
369098752	0	0
377487360	0	0
385875968	0	0
394264576	0	0
402653184	0	0
411041792	0	0
419430400	0	0
427819008	0	0
436207616	0	0
444596224	0	0
452984832	0	0
461373440	0	0
469762048	0	0
478150656	0	0
486539264	0	0
494927872	0	0
503316480	0	0
511705088	0	0
520093696	0	0
528482304	0	0
536870912	0	0
553648128	0	0
570425344	0	0
587202560	0	0
603979776	0	0
620756992	0	0
637534208	0	0
654311424	0	0
671088640	0	0
687865856	0	0
704643072	0	0
721420288	0	0
738197504	0	0
754974720	0	0
771751936	0	0
788529152	0	0
805306368	0	0
822083584	0	0
838860800	0	0
855638016	0	0
872415232	0	0
889192448	0	0
905969664	0	0
922746880	0	0
939524096	0	0
956301312	0	0
973078528	0	0
989855744	0	0
1006632960	0	0
1023410176	0	0
1040187392	0	0
1056964608	0	0
1073741824	0	0
1107296256	0	0
1140850688	0	0
1174405120	0	0
1207959552	0	0
1241513984	0	0
1275068416	0	0
1308622848	0	0
1342177280	0	0
1375731712	0	0
1409286144	0	0
1442840576	0	0
1476395008	0	0
1509949440	0	0
1543503872	0	0
1577058304	0	0
1610612736	0	0
1644167168	0	0
1677721600	0	0
1711276032	0	0
1744830464	0	0
1778384896	0	0
1811939328	0	0
1845493760	0	0
1879048192	0	0
1912602624	0	0
1946157056	0	0
1979711488	0	0
2013265920	0	0
2046820352	0	0
2080374784	0	0
2113929216	0	0
2147483648	0	0
2214592512	0	0
2281701376	0	0
2348810240	0	0
2415919104	0	0
2483027968	0	0
2550136832	0	0
2617245696	0	0
2684354560	0	0
2751463424	0	0
2818572288	0	0
2885681152	0	0
2952790016	0	0
3019898880	0	0
3087007744	0	0
3154116608	0	0
3221225472	0	0
3288334336	0	0
3355443200	0	0
3422552064	0	0
3489660928	0	0
3556769792	0	0
3623878656	0	0
3690987520	0	0
3758096384	0	0
3825205248	0	0
3892314112	0	0
3959422976	0	0
4026531840	0	0
4093640704	0	0
4160749568	0	0
4227858432	0	0
~~~~~~~~~~Reuse Distance Profiler output end~~~~~~~~~~

Sampler size:0

DRAM Statistics
 CHANNEL 0
 RQ ROW_BUFFER_HIT:     321423  ROW_BUFFER_MISS:    2734093
 DBUS AVG_CONGESTED_CYCLE:    3.94518
 WQ ROW_BUFFER_HIT:     163855  ROW_BUFFER_MISS:    1567387  FULL:          0


CPU 0 Branch Prediction Accuracy: 88.0813% MPKI: 18.9696 Average ROB Occupancy at Mispredict: 16.7026
Branch type MPKI
BRANCH_DIRECT_JUMP: 1.33333e-06
BRANCH_INDIRECT: 0.000304
BRANCH_CONDITIONAL: 18.9693
BRANCH_DIRECT_CALL: 0
BRANCH_INDIRECT_CALL: 0
BRANCH_RETURN: 0

