
*** ChampSim Multicore Out-of-Order Simulator ***

Warmup Instructions: 50000000
Simulation Instructions: 1500000000
Number of CPUs: 1
Off-chip DRAM Size: 4 GiB Channels: 1 Width: 64-bit Data Rate: 3200 MT/s

VirtualMemory physical capacity: 8588881920 num_ppages: 2096895
VirtualMemory page size: 4096 log2_page_size: 12

CPU 0 runs /s/traces/champsim_traces/456.hmmer-88B.champsimtrace.xz
CPU 0 Bimodal branch predictor
Basic BTB sets: 1024 ways: 8 indirect buffer size: 4096 RAS size: 64
Initializing LRU.
Initializing LRU.
Initializing LRU.
Initializing LRU.
Initializing rdLRU.
Initializing LRU.
Initializing LRU.
Heartbeat CPU 0 instructions: 2000002 cycles: 788553 heartbeat IPC: 2.53629 cumulative IPC: 2.53629 (Simulation time: 0 hr 1 min 41 sec) 
Heartbeat CPU 0 instructions: 4000003 cycles: 1577234 heartbeat IPC: 2.53588 cumulative IPC: 2.53609 (Simulation time: 0 hr 3 min 24 sec) 
Heartbeat CPU 0 instructions: 6000000 cycles: 2348586 heartbeat IPC: 2.59285 cumulative IPC: 2.55473 (Simulation time: 0 hr 5 min 2 sec) 
Heartbeat CPU 0 instructions: 8000003 cycles: 3137280 heartbeat IPC: 2.53584 cumulative IPC: 2.54998 (Simulation time: 0 hr 6 min 37 sec) 
Heartbeat CPU 0 instructions: 10000003 cycles: 3925710 heartbeat IPC: 2.53669 cumulative IPC: 2.54731 (Simulation time: 0 hr 8 min 4 sec) 
Heartbeat CPU 0 instructions: 12000000 cycles: 4714384 heartbeat IPC: 2.5359 cumulative IPC: 2.5454 (Simulation time: 0 hr 9 min 38 sec) 
Heartbeat CPU 0 instructions: 14000002 cycles: 5502808 heartbeat IPC: 2.53671 cumulative IPC: 2.54416 (Simulation time: 0 hr 11 min 13 sec) 
Heartbeat CPU 0 instructions: 16000001 cycles: 6291487 heartbeat IPC: 2.53588 cumulative IPC: 2.54312 (Simulation time: 0 hr 12 min 34 sec) 
Heartbeat CPU 0 instructions: 18000000 cycles: 7079905 heartbeat IPC: 2.53672 cumulative IPC: 2.54241 (Simulation time: 0 hr 14 min 2 sec) 
Heartbeat CPU 0 instructions: 20000004 cycles: 7868588 heartbeat IPC: 2.53588 cumulative IPC: 2.54175 (Simulation time: 0 hr 15 min 46 sec) 
Heartbeat CPU 0 instructions: 22000001 cycles: 8657014 heartbeat IPC: 2.5367 cumulative IPC: 2.54129 (Simulation time: 0 hr 17 min 24 sec) 
Heartbeat CPU 0 instructions: 24000003 cycles: 9445694 heartbeat IPC: 2.53589 cumulative IPC: 2.54084 (Simulation time: 0 hr 18 min 57 sec) 
Heartbeat CPU 0 instructions: 26000001 cycles: 10234117 heartbeat IPC: 2.53671 cumulative IPC: 2.54052 (Simulation time: 0 hr 20 min 29 sec) 
Heartbeat CPU 0 instructions: 28000004 cycles: 11022798 heartbeat IPC: 2.53588 cumulative IPC: 2.54019 (Simulation time: 0 hr 22 min 0 sec) 
Heartbeat CPU 0 instructions: 30000002 cycles: 11811219 heartbeat IPC: 2.53671 cumulative IPC: 2.53996 (Simulation time: 0 hr 23 min 33 sec) 
Heartbeat CPU 0 instructions: 32000000 cycles: 12599898 heartbeat IPC: 2.53588 cumulative IPC: 2.5397 (Simulation time: 0 hr 25 min 6 sec) 
Heartbeat CPU 0 instructions: 34000002 cycles: 13371951 heartbeat IPC: 2.5905 cumulative IPC: 2.54264 (Simulation time: 0 hr 26 min 36 sec) 
Heartbeat CPU 0 instructions: 36000000 cycles: 14160641 heartbeat IPC: 2.53585 cumulative IPC: 2.54226 (Simulation time: 0 hr 28 min 7 sec) 
Heartbeat CPU 0 instructions: 38000000 cycles: 14949068 heartbeat IPC: 2.5367 cumulative IPC: 2.54196 (Simulation time: 0 hr 29 min 39 sec) 
Heartbeat CPU 0 instructions: 40000003 cycles: 15737752 heartbeat IPC: 2.53587 cumulative IPC: 2.54166 (Simulation time: 0 hr 31 min 11 sec) 
Heartbeat CPU 0 instructions: 42000000 cycles: 16526174 heartbeat IPC: 2.53671 cumulative IPC: 2.54142 (Simulation time: 0 hr 32 min 40 sec) 
Heartbeat CPU 0 instructions: 44000001 cycles: 17314853 heartbeat IPC: 2.53589 cumulative IPC: 2.54117 (Simulation time: 0 hr 34 min 11 sec) 
Heartbeat CPU 0 instructions: 46000000 cycles: 18103277 heartbeat IPC: 2.5367 cumulative IPC: 2.54098 (Simulation time: 0 hr 35 min 42 sec) 
Heartbeat CPU 0 instructions: 48000002 cycles: 18891960 heartbeat IPC: 2.53588 cumulative IPC: 2.54076 (Simulation time: 0 hr 37 min 13 sec) 
Heartbeat CPU 0 instructions: 50000004 cycles: 19680384 heartbeat IPC: 2.53671 cumulative IPC: 2.5406 (Simulation time: 0 hr 38 min 43 sec) 

Warmup complete CPU 0 instructions: 50000004 cycles: 19680384 (Simulation time: 0 hr 38 min 43 sec) 

Heartbeat CPU 0 instructions: 52000000 cycles: 20782544 heartbeat IPC: 1.81461 cumulative IPC: 1.81461 (Simulation time: 0 hr 40 min 43 sec) 

Region of Interest Statistics
cpu0_DTLB TOTAL     ACCESS:     738138  HIT:     738052  MISS:         86
cpu0_DTLB LOAD      ACCESS:     590421  HIT:     590417  MISS:          4
cpu0_DTLB RFO       ACCESS:     147717  HIT:     147635  MISS:         82
cpu0_DTLB PREFETCH  ACCESS:          0  HIT:          0  MISS:          0
cpu0_DTLB WRITEBACK ACCESS:          0  HIT:          0  MISS:          0
cpu0_ITLB TOTAL     ACCESS:      31388  HIT:      31388  MISS:          0
cpu0_ITLB LOAD      ACCESS:      31388  HIT:      31388  MISS:          0
cpu0_ITLB RFO       ACCESS:          0  HIT:          0  MISS:          0
cpu0_ITLB PREFETCH  ACCESS:          0  HIT:          0  MISS:          0
cpu0_ITLB WRITEBACK ACCESS:          0  HIT:          0  MISS:          0
cpu0_STLB TOTAL     ACCESS:         86  HIT:         86  MISS:          0
cpu0_STLB LOAD      ACCESS:          4  HIT:          4  MISS:          0
cpu0_STLB RFO       ACCESS:         82  HIT:         82  MISS:          0
cpu0_STLB PREFETCH  ACCESS:          0  HIT:          0  MISS:          0
cpu0_STLB WRITEBACK ACCESS:          0  HIT:          0  MISS:          0
cpu0_L1D TOTAL     ACCESS:     609782  HIT:     601738  MISS:       8044
cpu0_L1D LOAD      ACCESS:     596708  HIT:     593974  MISS:       2734
cpu0_L1D RFO       ACCESS:      13074  HIT:       7764  MISS:       5310
cpu0_L1D PREFETCH  ACCESS:          0  HIT:          0  MISS:          0
cpu0_L1D WRITEBACK ACCESS:          0  HIT:          0  MISS:          0
cpu0_L2C TOTAL     ACCESS:      13217  HIT:       7572  MISS:       5645
cpu0_L2C LOAD      ACCESS:       2734  HIT:       2399  MISS:        335
cpu0_L2C RFO       ACCESS:       5310  HIT:          0  MISS:       5310
cpu0_L2C PREFETCH  ACCESS:          0  HIT:          0  MISS:          0
cpu0_L2C WRITEBACK ACCESS:       5173  HIT:       5173  MISS:          0
LLC TOTAL     ACCESS:      10910  HIT:       5504  MISS:       5406
LLC LOAD      ACCESS:        335  HIT:        237  MISS:         98
LLC RFO       ACCESS:       5310  HIT:          2  MISS:       5308
LLC PREFETCH  ACCESS:          0  HIT:          0  MISS:          0
LLC WRITEBACK ACCESS:       5265  HIT:       5265  MISS:          0
Heartbeat CPU 0 instructions: 54000002 cycles: 21869854 heartbeat IPC: 1.8394 cumulative IPC: 1.82693 (Simulation time: 0 hr 42 min 39 sec) 

Region of Interest Statistics
cpu0_DTLB TOTAL     ACCESS:    1476836  HIT:    1476658  MISS:        178
cpu0_DTLB LOAD      ACCESS:    1181609  HIT:    1181597  MISS:         12
cpu0_DTLB RFO       ACCESS:     295227  HIT:     295061  MISS:        166
cpu0_DTLB PREFETCH  ACCESS:          0  HIT:          0  MISS:          0
cpu0_DTLB WRITEBACK ACCESS:          0  HIT:          0  MISS:          0
cpu0_ITLB TOTAL     ACCESS:      63331  HIT:      63331  MISS:          0
cpu0_ITLB LOAD      ACCESS:      63331  HIT:      63331  MISS:          0
cpu0_ITLB RFO       ACCESS:          0  HIT:          0  MISS:          0
cpu0_ITLB PREFETCH  ACCESS:          0  HIT:          0  MISS:          0
cpu0_ITLB WRITEBACK ACCESS:          0  HIT:          0  MISS:          0
cpu0_STLB TOTAL     ACCESS:        178  HIT:        178  MISS:          0
cpu0_STLB LOAD      ACCESS:         12  HIT:         12  MISS:          0
cpu0_STLB RFO       ACCESS:        166  HIT:        166  MISS:          0
cpu0_STLB PREFETCH  ACCESS:          0  HIT:          0  MISS:          0
cpu0_STLB WRITEBACK ACCESS:          0  HIT:          0  MISS:          0
cpu0_L1D TOTAL     ACCESS:    1218191  HIT:    1201807  MISS:      16384
cpu0_L1D LOAD      ACCESS:    1193686  HIT:    1187934  MISS:       5752
cpu0_L1D RFO       ACCESS:      24505  HIT:      13873  MISS:      10632
cpu0_L1D PREFETCH  ACCESS:          0  HIT:          0  MISS:          0
cpu0_L1D WRITEBACK ACCESS:          0  HIT:          0  MISS:          0
cpu0_L2C TOTAL     ACCESS:      26682  HIT:      15525  MISS:      11157
cpu0_L2C LOAD      ACCESS:       5752  HIT:       5227  MISS:        525
cpu0_L2C RFO       ACCESS:      10632  HIT:          0  MISS:      10632
cpu0_L2C PREFETCH  ACCESS:          0  HIT:          0  MISS:          0
cpu0_L2C WRITEBACK ACCESS:      10298  HIT:      10298  MISS:          0
LLC TOTAL     ACCESS:      21571  HIT:      10786  MISS:      10785
LLC LOAD      ACCESS:        525  HIT:        370  MISS:        155
LLC RFO       ACCESS:      10632  HIT:          2  MISS:      10630
LLC PREFETCH  ACCESS:          0  HIT:          0  MISS:          0
LLC WRITEBACK ACCESS:      10414  HIT:      10414  MISS:          0
Heartbeat CPU 0 instructions: 56000002 cycles: 22966399 heartbeat IPC: 1.82391 cumulative IPC: 1.82592 (Simulation time: 0 hr 44 min 35 sec) 

Region of Interest Statistics
cpu0_DTLB TOTAL     ACCESS:    2216004  HIT:    2215726  MISS:        278
cpu0_DTLB LOAD      ACCESS:    1773072  HIT:    1773042  MISS:         30
cpu0_DTLB RFO       ACCESS:     442932  HIT:     442684  MISS:        248
cpu0_DTLB PREFETCH  ACCESS:          0  HIT:          0  MISS:          0
cpu0_DTLB WRITEBACK ACCESS:          0  HIT:          0  MISS:          0
cpu0_ITLB TOTAL     ACCESS:      94582  HIT:      94582  MISS:          0
cpu0_ITLB LOAD      ACCESS:      94582  HIT:      94582  MISS:          0
cpu0_ITLB RFO       ACCESS:          0  HIT:          0  MISS:          0
cpu0_ITLB PREFETCH  ACCESS:          0  HIT:          0  MISS:          0
cpu0_ITLB WRITEBACK ACCESS:          0  HIT:          0  MISS:          0
cpu0_STLB TOTAL     ACCESS:        278  HIT:        278  MISS:          0
cpu0_STLB LOAD      ACCESS:         30  HIT:         30  MISS:          0
cpu0_STLB RFO       ACCESS:        248  HIT:        248  MISS:          0
cpu0_STLB PREFETCH  ACCESS:          0  HIT:          0  MISS:          0
cpu0_STLB WRITEBACK ACCESS:          0  HIT:          0  MISS:          0
cpu0_L1D TOTAL     ACCESS:    1826962  HIT:    1802647  MISS:      24315
cpu0_L1D LOAD      ACCESS:    1790726  HIT:    1782369  MISS:       8357
cpu0_L1D RFO       ACCESS:      36236  HIT:      20278  MISS:      15958
cpu0_L1D PREFETCH  ACCESS:          0  HIT:          0  MISS:          0
cpu0_L1D WRITEBACK ACCESS:          0  HIT:          0  MISS:          0
cpu0_L2C TOTAL     ACCESS:      39694  HIT:      22788  MISS:      16906
cpu0_L2C LOAD      ACCESS:       8357  HIT:       7409  MISS:        948
cpu0_L2C RFO       ACCESS:      15958  HIT:          0  MISS:      15958
cpu0_L2C PREFETCH  ACCESS:          0  HIT:          0  MISS:          0
cpu0_L2C WRITEBACK ACCESS:      15379  HIT:      15379  MISS:          0
LLC TOTAL     ACCESS:      32470  HIT:      16297  MISS:      16173
LLC LOAD      ACCESS:        948  HIT:        731  MISS:        217
LLC RFO       ACCESS:      15958  HIT:          2  MISS:      15956
LLC PREFETCH  ACCESS:          0  HIT:          0  MISS:          0
LLC WRITEBACK ACCESS:      15564  HIT:      15564  MISS:          0
Heartbeat CPU 0 instructions: 58000000 cycles: 24054553 heartbeat IPC: 1.83797 cumulative IPC: 1.82892 (Simulation time: 0 hr 46 min 33 sec) 

Region of Interest Statistics
cpu0_DTLB TOTAL     ACCESS:    2955344  HIT:    2954973  MISS:        371
cpu0_DTLB LOAD      ACCESS:    2364566  HIT:    2364527  MISS:         39
cpu0_DTLB RFO       ACCESS:     590778  HIT:     590446  MISS:        332
cpu0_DTLB PREFETCH  ACCESS:          0  HIT:          0  MISS:          0
cpu0_DTLB WRITEBACK ACCESS:          0  HIT:          0  MISS:          0
cpu0_ITLB TOTAL     ACCESS:     126465  HIT:     126465  MISS:          0
cpu0_ITLB LOAD      ACCESS:     126465  HIT:     126465  MISS:          0
cpu0_ITLB RFO       ACCESS:          0  HIT:          0  MISS:          0
cpu0_ITLB PREFETCH  ACCESS:          0  HIT:          0  MISS:          0
cpu0_ITLB WRITEBACK ACCESS:          0  HIT:          0  MISS:          0
cpu0_STLB TOTAL     ACCESS:        371  HIT:        371  MISS:          0
cpu0_STLB LOAD      ACCESS:         39  HIT:         39  MISS:          0
cpu0_STLB RFO       ACCESS:        332  HIT:        332  MISS:          0
cpu0_STLB PREFETCH  ACCESS:          0  HIT:          0  MISS:          0
cpu0_STLB WRITEBACK ACCESS:          0  HIT:          0  MISS:          0
cpu0_L1D TOTAL     ACCESS:    2435865  HIT:    2403393  MISS:      32472
cpu0_L1D LOAD      ACCESS:    2387278  HIT:    2376091  MISS:      11187
cpu0_L1D RFO       ACCESS:      48587  HIT:      27302  MISS:      21285
cpu0_L1D PREFETCH  ACCESS:          0  HIT:          0  MISS:          0
cpu0_L1D WRITEBACK ACCESS:          0  HIT:          0  MISS:          0
cpu0_L2C TOTAL     ACCESS:      52896  HIT:      30369  MISS:      22527
cpu0_L2C LOAD      ACCESS:      11187  HIT:       9945  MISS:       1242
cpu0_L2C RFO       ACCESS:      21285  HIT:          0  MISS:      21285
cpu0_L2C PREFETCH  ACCESS:          0  HIT:          0  MISS:          0
cpu0_L2C WRITEBACK ACCESS:      20424  HIT:      20424  MISS:          0
LLC TOTAL     ACCESS:      43174  HIT:      21605  MISS:      21569
LLC LOAD      ACCESS:       1242  HIT:        956  MISS:        286
LLC RFO       ACCESS:      21285  HIT:          2  MISS:      21283
LLC PREFETCH  ACCESS:          0  HIT:          0  MISS:          0
LLC WRITEBACK ACCESS:      20647  HIT:      20647  MISS:          0
Heartbeat CPU 0 instructions: 60000004 cycles: 25316487 heartbeat IPC: 1.58487 cumulative IPC: 1.77428 (Simulation time: 0 hr 48 min 36 sec) 

Region of Interest Statistics
cpu0_DTLB TOTAL     ACCESS:    3683219  HIT:    3682559  MISS:        660
cpu0_DTLB LOAD      ACCESS:    2942734  HIT:    2942501  MISS:        233
cpu0_DTLB RFO       ACCESS:     740485  HIT:     740058  MISS:        427
cpu0_DTLB PREFETCH  ACCESS:          0  HIT:          0  MISS:          0
cpu0_DTLB WRITEBACK ACCESS:          0  HIT:          0  MISS:          0
cpu0_ITLB TOTAL     ACCESS:     163129  HIT:     163129  MISS:          0
cpu0_ITLB LOAD      ACCESS:     163129  HIT:     163129  MISS:          0
cpu0_ITLB RFO       ACCESS:          0  HIT:          0  MISS:          0
cpu0_ITLB PREFETCH  ACCESS:          0  HIT:          0  MISS:          0
cpu0_ITLB WRITEBACK ACCESS:          0  HIT:          0  MISS:          0
cpu0_L1I TOTAL     ACCESS:      11969  HIT:      11961  MISS:          8
cpu0_L1I LOAD      ACCESS:      11969  HIT:      11961  MISS:          8
cpu0_L1I RFO       ACCESS:          0  HIT:          0  MISS:          0
cpu0_L1I PREFETCH  ACCESS:          0  HIT:          0  MISS:          0
cpu0_L1I WRITEBACK ACCESS:          0  HIT:          0  MISS:          0
cpu0_STLB TOTAL     ACCESS:        660  HIT:        659  MISS:          1
cpu0_STLB LOAD      ACCESS:        233  HIT:        232  MISS:          1
cpu0_STLB RFO       ACCESS:        427  HIT:        427  MISS:          0
cpu0_STLB PREFETCH  ACCESS:          0  HIT:          0  MISS:          0
cpu0_STLB WRITEBACK ACCESS:          0  HIT:          0  MISS:          0
cpu0_L1D TOTAL     ACCESS:    3035585  HIT:    2993713  MISS:      41872
cpu0_L1D LOAD      ACCESS:    2965211  HIT:    2950076  MISS:      15135
cpu0_L1D RFO       ACCESS:      70373  HIT:      43637  MISS:      26736
cpu0_L1D PREFETCH  ACCESS:          0  HIT:          0  MISS:          0
cpu0_L1D WRITEBACK ACCESS:          0  HIT:          0  MISS:          0
cpu0_L2C TOTAL     ACCESS:      67682  HIT:      38218  MISS:      29464
cpu0_L2C LOAD      ACCESS:      15143  HIT:      12399  MISS:       2744
cpu0_L2C RFO       ACCESS:      26736  HIT:         20  MISS:      26716
cpu0_L2C PREFETCH  ACCESS:          0  HIT:          0  MISS:          0
cpu0_L2C WRITEBACK ACCESS:      25802  HIT:      25799  MISS:          3
LLC TOTAL     ACCESS:      56100  HIT:      28074  MISS:      28026
LLC LOAD      ACCESS:       2744  HIT:       1431  MISS:       1313
LLC RFO       ACCESS:      26716  HIT:          4  MISS:      26712
LLC PREFETCH  ACCESS:          0  HIT:          0  MISS:          0
LLC WRITEBACK ACCESS:      26639  HIT:      26639  MISS:          0
Heartbeat CPU 0 instructions: 62000002 cycles: 26373025 heartbeat IPC: 1.89297 cumulative IPC: 1.79301 (Simulation time: 0 hr 50 min 31 sec) 

Region of Interest Statistics
cpu0_DTLB TOTAL     ACCESS:    4421739  HIT:    4420950  MISS:        789
cpu0_DTLB LOAD      ACCESS:    3533388  HIT:    3533108  MISS:        280
cpu0_DTLB RFO       ACCESS:     888351  HIT:     887842  MISS:        509
cpu0_DTLB PREFETCH  ACCESS:          0  HIT:          0  MISS:          0
cpu0_DTLB WRITEBACK ACCESS:          0  HIT:          0  MISS:          0
cpu0_ITLB TOTAL     ACCESS:     195250  HIT:     195250  MISS:          0
cpu0_ITLB LOAD      ACCESS:     195250  HIT:     195250  MISS:          0
cpu0_ITLB RFO       ACCESS:          0  HIT:          0  MISS:          0
cpu0_ITLB PREFETCH  ACCESS:          0  HIT:          0  MISS:          0
cpu0_ITLB WRITEBACK ACCESS:          0  HIT:          0  MISS:          0
cpu0_L1I TOTAL     ACCESS:      11969  HIT:      11961  MISS:          8
cpu0_L1I LOAD      ACCESS:      11969  HIT:      11961  MISS:          8
cpu0_L1I RFO       ACCESS:          0  HIT:          0  MISS:          0
cpu0_L1I PREFETCH  ACCESS:          0  HIT:          0  MISS:          0
cpu0_L1I WRITEBACK ACCESS:          0  HIT:          0  MISS:          0
cpu0_STLB TOTAL     ACCESS:        789  HIT:        788  MISS:          1
cpu0_STLB LOAD      ACCESS:        280  HIT:        279  MISS:          1
cpu0_STLB RFO       ACCESS:        509  HIT:        509  MISS:          0
cpu0_STLB PREFETCH  ACCESS:          0  HIT:          0  MISS:          0
cpu0_STLB WRITEBACK ACCESS:          0  HIT:          0  MISS:          0
cpu0_L1D TOTAL     ACCESS:    3647244  HIT:    3597432  MISS:      49812
cpu0_L1D LOAD      ACCESS:    3561145  HIT:    3543402  MISS:      17743
cpu0_L1D RFO       ACCESS:      86098  HIT:      54030  MISS:      32068
cpu0_L1D PREFETCH  ACCESS:          0  HIT:          0  MISS:          0
cpu0_L1D WRITEBACK ACCESS:          0  HIT:          0  MISS:          0
cpu0_L2C TOTAL     ACCESS:      80697  HIT:      45520  MISS:      35177
cpu0_L2C LOAD      ACCESS:      17751  HIT:      14570  MISS:       3181
cpu0_L2C RFO       ACCESS:      32068  HIT:         76  MISS:      31992
cpu0_L2C PREFETCH  ACCESS:          0  HIT:          0  MISS:          0
cpu0_L2C WRITEBACK ACCESS:      30877  HIT:      30874  MISS:          3
LLC TOTAL     ACCESS:      66224  HIT:      32924  MISS:      33300
LLC LOAD      ACCESS:       3181  HIT:       1774  MISS:       1407
LLC RFO       ACCESS:      31992  HIT:        103  MISS:      31889
LLC PREFETCH  ACCESS:          0  HIT:          0  MISS:          0
LLC WRITEBACK ACCESS:      31050  HIT:      31047  MISS:          3
Heartbeat CPU 0 instructions: 64000000 cycles: 27433363 heartbeat IPC: 1.88619 cumulative IPC: 1.80576 (Simulation time: 0 hr 52 min 25 sec) 

Region of Interest Statistics
cpu0_DTLB TOTAL     ACCESS:    5160573  HIT:    5159683  MISS:        890
cpu0_DTLB LOAD      ACCESS:    4124275  HIT:    4123975  MISS:        300
cpu0_DTLB RFO       ACCESS:    1036298  HIT:    1035708  MISS:        590
cpu0_DTLB PREFETCH  ACCESS:          0  HIT:          0  MISS:          0
cpu0_DTLB WRITEBACK ACCESS:          0  HIT:          0  MISS:          0
cpu0_ITLB TOTAL     ACCESS:     226395  HIT:     226395  MISS:          0
cpu0_ITLB LOAD      ACCESS:     226395  HIT:     226395  MISS:          0
cpu0_ITLB RFO       ACCESS:          0  HIT:          0  MISS:          0
cpu0_ITLB PREFETCH  ACCESS:          0  HIT:          0  MISS:          0
cpu0_ITLB WRITEBACK ACCESS:          0  HIT:          0  MISS:          0
cpu0_L1I TOTAL     ACCESS:      11969  HIT:      11961  MISS:          8
cpu0_L1I LOAD      ACCESS:      11969  HIT:      11961  MISS:          8
cpu0_L1I RFO       ACCESS:          0  HIT:          0  MISS:          0
cpu0_L1I PREFETCH  ACCESS:          0  HIT:          0  MISS:          0
cpu0_L1I WRITEBACK ACCESS:          0  HIT:          0  MISS:          0
cpu0_STLB TOTAL     ACCESS:        890  HIT:        889  MISS:          1
cpu0_STLB LOAD      ACCESS:        300  HIT:        299  MISS:          1
cpu0_STLB RFO       ACCESS:        590  HIT:        590  MISS:          0
cpu0_STLB PREFETCH  ACCESS:          0  HIT:          0  MISS:          0
cpu0_STLB WRITEBACK ACCESS:          0  HIT:          0  MISS:          0
cpu0_L1D TOTAL     ACCESS:    4258287  HIT:    4200416  MISS:      57871
cpu0_L1D LOAD      ACCESS:    4158147  HIT:    4137660  MISS:      20487
cpu0_L1D RFO       ACCESS:     100139  HIT:      62756  MISS:      37383
cpu0_L1D PREFETCH  ACCESS:          0  HIT:          0  MISS:          0
cpu0_L1D WRITEBACK ACCESS:          0  HIT:          0  MISS:          0
cpu0_L2C TOTAL     ACCESS:      93796  HIT:      53012  MISS:      40784
cpu0_L2C LOAD      ACCESS:      20495  HIT:      17022  MISS:       3473
cpu0_L2C RFO       ACCESS:      37383  HIT:         76  MISS:      37307
cpu0_L2C PREFETCH  ACCESS:          0  HIT:          0  MISS:          0
cpu0_L2C WRITEBACK ACCESS:      35917  HIT:      35914  MISS:          3
LLC TOTAL     ACCESS:      76836  HIT:      38319  MISS:      38517
LLC LOAD      ACCESS:       3473  HIT:       2030  MISS:       1443
LLC RFO       ACCESS:      37307  HIT:        237  MISS:      37070
LLC PREFETCH  ACCESS:          0  HIT:          0  MISS:          0
LLC WRITEBACK ACCESS:      36055  HIT:      36052  MISS:          3
Heartbeat CPU 0 instructions: 66000002 cycles: 28507552 heartbeat IPC: 1.86187 cumulative IPC: 1.81259 (Simulation time: 0 hr 54 min 17 sec) 

Region of Interest Statistics
cpu0_DTLB TOTAL     ACCESS:    5898911  HIT:    5897924  MISS:        987
cpu0_DTLB LOAD      ACCESS:    4714846  HIT:    4714534  MISS:        312
cpu0_DTLB RFO       ACCESS:    1184065  HIT:    1183390  MISS:        675
cpu0_DTLB PREFETCH  ACCESS:          0  HIT:          0  MISS:          0
cpu0_DTLB WRITEBACK ACCESS:          0  HIT:          0  MISS:          0
cpu0_ITLB TOTAL     ACCESS:     258268  HIT:     258268  MISS:          0
cpu0_ITLB LOAD      ACCESS:     258268  HIT:     258268  MISS:          0
cpu0_ITLB RFO       ACCESS:          0  HIT:          0  MISS:          0
cpu0_ITLB PREFETCH  ACCESS:          0  HIT:          0  MISS:          0
cpu0_ITLB WRITEBACK ACCESS:          0  HIT:          0  MISS:          0
cpu0_L1I TOTAL     ACCESS:      11969  HIT:      11961  MISS:          8
cpu0_L1I LOAD      ACCESS:      11969  HIT:      11961  MISS:          8
cpu0_L1I RFO       ACCESS:          0  HIT:          0  MISS:          0
cpu0_L1I PREFETCH  ACCESS:          0  HIT:          0  MISS:          0
cpu0_L1I WRITEBACK ACCESS:          0  HIT:          0  MISS:          0
cpu0_STLB TOTAL     ACCESS:        987  HIT:        986  MISS:          1
cpu0_STLB LOAD      ACCESS:        312  HIT:        311  MISS:          1
cpu0_STLB RFO       ACCESS:        675  HIT:        675  MISS:          0
cpu0_STLB PREFETCH  ACCESS:          0  HIT:          0  MISS:          0
cpu0_STLB WRITEBACK ACCESS:          0  HIT:          0  MISS:          0
cpu0_L1D TOTAL     ACCESS:    4865680  HIT:    4800167  MISS:      65513
cpu0_L1D LOAD      ACCESS:    4754620  HIT:    4731822  MISS:      22798
cpu0_L1D RFO       ACCESS:     111059  HIT:      68345  MISS:      42714
cpu0_L1D PREFETCH  ACCESS:          0  HIT:          0  MISS:          0
cpu0_L1D WRITEBACK ACCESS:          0  HIT:          0  MISS:          0
cpu0_L2C TOTAL     ACCESS:     106589  HIT:      60119  MISS:      46470
cpu0_L2C LOAD      ACCESS:      22806  HIT:      18978  MISS:       3828
cpu0_L2C RFO       ACCESS:      42714  HIT:         76  MISS:      42638
cpu0_L2C PREFETCH  ACCESS:          0  HIT:          0  MISS:          0
cpu0_L2C WRITEBACK ACCESS:      41068  HIT:      41065  MISS:          3
LLC TOTAL     ACCESS:      87694  HIT:      43829  MISS:      43865
LLC LOAD      ACCESS:       3828  HIT:       2339  MISS:       1489
LLC RFO       ACCESS:      42638  HIT:        266  MISS:      42372
LLC PREFETCH  ACCESS:          0  HIT:          0  MISS:          0
LLC WRITEBACK ACCESS:      41227  HIT:      41224  MISS:          3
Heartbeat CPU 0 instructions: 68000001 cycles: 29507245 heartbeat IPC: 2.00061 cumulative IPC: 1.83171 (Simulation time: 0 hr 56 min 11 sec) 

Region of Interest Statistics
cpu0_DTLB TOTAL     ACCESS:    6628009  HIT:    6626801  MISS:       1208
cpu0_DTLB LOAD      ACCESS:    5295803  HIT:    5295362  MISS:        441
cpu0_DTLB RFO       ACCESS:    1332206  HIT:    1331439  MISS:        767
cpu0_DTLB PREFETCH  ACCESS:          0  HIT:          0  MISS:          0
cpu0_DTLB WRITEBACK ACCESS:          0  HIT:          0  MISS:          0
cpu0_ITLB TOTAL     ACCESS:     294596  HIT:     294596  MISS:          0
cpu0_ITLB LOAD      ACCESS:     294596  HIT:     294596  MISS:          0
cpu0_ITLB RFO       ACCESS:          0  HIT:          0  MISS:          0
cpu0_ITLB PREFETCH  ACCESS:          0  HIT:          0  MISS:          0
cpu0_ITLB WRITEBACK ACCESS:          0  HIT:          0  MISS:          0
cpu0_L1I TOTAL     ACCESS:      17567  HIT:      17559  MISS:          8
cpu0_L1I LOAD      ACCESS:      17567  HIT:      17559  MISS:          8
cpu0_L1I RFO       ACCESS:          0  HIT:          0  MISS:          0
cpu0_L1I PREFETCH  ACCESS:          0  HIT:          0  MISS:          0
cpu0_L1I WRITEBACK ACCESS:          0  HIT:          0  MISS:          0
cpu0_STLB TOTAL     ACCESS:       1208  HIT:       1206  MISS:          2
cpu0_STLB LOAD      ACCESS:        441  HIT:        439  MISS:          2
cpu0_STLB RFO       ACCESS:        767  HIT:        767  MISS:          0
cpu0_STLB PREFETCH  ACCESS:          0  HIT:          0  MISS:          0
cpu0_STLB WRITEBACK ACCESS:          0  HIT:          0  MISS:          0
cpu0_L1D TOTAL     ACCESS:    5501268  HIT:    5427107  MISS:      74161
cpu0_L1D LOAD      ACCESS:    5340386  HIT:    5314294  MISS:      26092
cpu0_L1D RFO       ACCESS:     160880  HIT:     112813  MISS:      48067
cpu0_L1D PREFETCH  ACCESS:          0  HIT:          0  MISS:          0
cpu0_L1D WRITEBACK ACCESS:          0  HIT:          0  MISS:          0
cpu0_L2C TOTAL     ACCESS:     120456  HIT:      67797  MISS:      52659
cpu0_L2C LOAD      ACCESS:      26100  HIT:      21428  MISS:       4672
cpu0_L2C RFO       ACCESS:      48067  HIT:         88  MISS:      47979
cpu0_L2C PREFETCH  ACCESS:          0  HIT:          0  MISS:          0
cpu0_L2C WRITEBACK ACCESS:      46287  HIT:      46281  MISS:          6
LLC TOTAL     ACCESS:      99354  HIT:      51842  MISS:      47512
LLC LOAD      ACCESS:       4672  HIT:       3099  MISS:       1573
LLC RFO       ACCESS:      47979  HIT:       2044  MISS:      45935
LLC PREFETCH  ACCESS:          0  HIT:          0  MISS:          0
LLC WRITEBACK ACCESS:      46701  HIT:      46698  MISS:          3
Heartbeat CPU 0 instructions: 70000001 cycles: 30309776 heartbeat IPC: 2.49212 cumulative IPC: 1.88157 (Simulation time: 0 hr 57 min 55 sec) 

Region of Interest Statistics
cpu0_DTLB TOTAL     ACCESS:    7366041  HIT:    7364696  MISS:       1345
cpu0_DTLB LOAD      ACCESS:    5885839  HIT:    5885350  MISS:        489
cpu0_DTLB RFO       ACCESS:    1480202  HIT:    1479346  MISS:        856
cpu0_DTLB PREFETCH  ACCESS:          0  HIT:          0  MISS:          0
cpu0_DTLB WRITEBACK ACCESS:          0  HIT:          0  MISS:          0
cpu0_ITLB TOTAL     ACCESS:     327749  HIT:     327749  MISS:          0
cpu0_ITLB LOAD      ACCESS:     327749  HIT:     327749  MISS:          0
cpu0_ITLB RFO       ACCESS:          0  HIT:          0  MISS:          0
cpu0_ITLB PREFETCH  ACCESS:          0  HIT:          0  MISS:          0
cpu0_ITLB WRITEBACK ACCESS:          0  HIT:          0  MISS:          0
cpu0_L1I TOTAL     ACCESS:      17567  HIT:      17559  MISS:          8
cpu0_L1I LOAD      ACCESS:      17567  HIT:      17559  MISS:          8
cpu0_L1I RFO       ACCESS:          0  HIT:          0  MISS:          0
cpu0_L1I PREFETCH  ACCESS:          0  HIT:          0  MISS:          0
cpu0_L1I WRITEBACK ACCESS:          0  HIT:          0  MISS:          0
cpu0_STLB TOTAL     ACCESS:       1345  HIT:       1343  MISS:          2
cpu0_STLB LOAD      ACCESS:        489  HIT:        487  MISS:          2
cpu0_STLB RFO       ACCESS:        856  HIT:        856  MISS:          0
cpu0_STLB PREFETCH  ACCESS:          0  HIT:          0  MISS:          0
cpu0_STLB WRITEBACK ACCESS:          0  HIT:          0  MISS:          0
cpu0_L1D TOTAL     ACCESS:    6215776  HIT:    6133779  MISS:      81997
cpu0_L1D LOAD      ACCESS:    5939098  HIT:    5910491  MISS:      28607
cpu0_L1D RFO       ACCESS:     276676  HIT:     223288  MISS:      53388
cpu0_L1D PREFETCH  ACCESS:          0  HIT:          0  MISS:          0
cpu0_L1D WRITEBACK ACCESS:          0  HIT:          0  MISS:          0
cpu0_L2C TOTAL     ACCESS:     133568  HIT:      75225  MISS:      58343
cpu0_L2C LOAD      ACCESS:      28615  HIT:      23578  MISS:       5037
cpu0_L2C RFO       ACCESS:      53388  HIT:         90  MISS:      53298
cpu0_L2C PREFETCH  ACCESS:          0  HIT:          0  MISS:          0
cpu0_L2C WRITEBACK ACCESS:      51563  HIT:      51557  MISS:          6
LLC TOTAL     ACCESS:     109942  HIT:      62227  MISS:      47715
LLC LOAD      ACCESS:       5037  HIT:       3433  MISS:       1604
LLC RFO       ACCESS:      53298  HIT:       7191  MISS:      46107
LLC PREFETCH  ACCESS:          0  HIT:          0  MISS:          0
LLC WRITEBACK ACCESS:      51605  HIT:      51602  MISS:          3
Heartbeat CPU 0 instructions: 72000000 cycles: 31110106 heartbeat IPC: 2.49897 cumulative IPC: 1.92481 (Simulation time: 0 hr 59 min 36 sec) 

Region of Interest Statistics
cpu0_DTLB TOTAL     ACCESS:    8103822  HIT:    8102372  MISS:       1450
cpu0_DTLB LOAD      ACCESS:    6475665  HIT:    6475153  MISS:        512
cpu0_DTLB RFO       ACCESS:    1628157  HIT:    1627219  MISS:        938
cpu0_DTLB PREFETCH  ACCESS:          0  HIT:          0  MISS:          0
cpu0_DTLB WRITEBACK ACCESS:          0  HIT:          0  MISS:          0
cpu0_ITLB TOTAL     ACCESS:     360616  HIT:     360616  MISS:          0
cpu0_ITLB LOAD      ACCESS:     360616  HIT:     360616  MISS:          0
cpu0_ITLB RFO       ACCESS:          0  HIT:          0  MISS:          0
cpu0_ITLB PREFETCH  ACCESS:          0  HIT:          0  MISS:          0
cpu0_ITLB WRITEBACK ACCESS:          0  HIT:          0  MISS:          0
cpu0_L1I TOTAL     ACCESS:      17567  HIT:      17559  MISS:          8
cpu0_L1I LOAD      ACCESS:      17567  HIT:      17559  MISS:          8
cpu0_L1I RFO       ACCESS:          0  HIT:          0  MISS:          0
cpu0_L1I PREFETCH  ACCESS:          0  HIT:          0  MISS:          0
cpu0_L1I WRITEBACK ACCESS:          0  HIT:          0  MISS:          0
cpu0_STLB TOTAL     ACCESS:       1450  HIT:       1448  MISS:          2
cpu0_STLB LOAD      ACCESS:        512  HIT:        510  MISS:          2
cpu0_STLB RFO       ACCESS:        938  HIT:        938  MISS:          0
cpu0_STLB PREFETCH  ACCESS:          0  HIT:          0  MISS:          0
cpu0_STLB WRITEBACK ACCESS:          0  HIT:          0  MISS:          0
cpu0_L1D TOTAL     ACCESS:    6930145  HIT:    6840293  MISS:      89852
cpu0_L1D LOAD      ACCESS:    6538104  HIT:    6506969  MISS:      31135
cpu0_L1D RFO       ACCESS:     392039  HIT:     333324  MISS:      58715
cpu0_L1D PREFETCH  ACCESS:          0  HIT:          0  MISS:          0
cpu0_L1D WRITEBACK ACCESS:          0  HIT:          0  MISS:          0
cpu0_L2C TOTAL     ACCESS:     146781  HIT:      82714  MISS:      64067
cpu0_L2C LOAD      ACCESS:      31143  HIT:      25709  MISS:       5434
cpu0_L2C RFO       ACCESS:      58715  HIT:         90  MISS:      58625
cpu0_L2C PREFETCH  ACCESS:          0  HIT:          0  MISS:          0
cpu0_L2C WRITEBACK ACCESS:      56921  HIT:      56915  MISS:          6
LLC TOTAL     ACCESS:     120977  HIT:      73076  MISS:      47901
LLC LOAD      ACCESS:       5434  HIT:       3809  MISS:       1625
LLC RFO       ACCESS:      58625  HIT:      12353  MISS:      46272
LLC PREFETCH  ACCESS:          0  HIT:          0  MISS:          0
LLC WRITEBACK ACCESS:      56916  HIT:      56913  MISS:          3
Heartbeat CPU 0 instructions: 74000003 cycles: 31907211 heartbeat IPC: 2.50908 cumulative IPC: 1.9629 (Simulation time: 1 hr 1 min 19 sec) 

Region of Interest Statistics
cpu0_DTLB TOTAL     ACCESS:    8841950  HIT:    8840408  MISS:       1542
cpu0_DTLB LOAD      ACCESS:    7065834  HIT:    7065315  MISS:        519
cpu0_DTLB RFO       ACCESS:    1776116  HIT:    1775093  MISS:       1023
cpu0_DTLB PREFETCH  ACCESS:          0  HIT:          0  MISS:          0
cpu0_DTLB WRITEBACK ACCESS:          0  HIT:          0  MISS:          0
cpu0_ITLB TOTAL     ACCESS:     393952  HIT:     393952  MISS:          0
cpu0_ITLB LOAD      ACCESS:     393952  HIT:     393952  MISS:          0
cpu0_ITLB RFO       ACCESS:          0  HIT:          0  MISS:          0
cpu0_ITLB PREFETCH  ACCESS:          0  HIT:          0  MISS:          0
cpu0_ITLB WRITEBACK ACCESS:          0  HIT:          0  MISS:          0
cpu0_L1I TOTAL     ACCESS:      17567  HIT:      17559  MISS:          8
cpu0_L1I LOAD      ACCESS:      17567  HIT:      17559  MISS:          8
cpu0_L1I RFO       ACCESS:          0  HIT:          0  MISS:          0
cpu0_L1I PREFETCH  ACCESS:          0  HIT:          0  MISS:          0
cpu0_L1I WRITEBACK ACCESS:          0  HIT:          0  MISS:          0
cpu0_STLB TOTAL     ACCESS:       1542  HIT:       1540  MISS:          2
cpu0_STLB LOAD      ACCESS:        519  HIT:        517  MISS:          2
cpu0_STLB RFO       ACCESS:       1023  HIT:       1023  MISS:          0
cpu0_STLB PREFETCH  ACCESS:          0  HIT:          0  MISS:          0
cpu0_STLB WRITEBACK ACCESS:          0  HIT:          0  MISS:          0
cpu0_L1D TOTAL     ACCESS:    7645875  HIT:    7548388  MISS:      97487
cpu0_L1D LOAD      ACCESS:    7137561  HIT:    7104111  MISS:      33450
cpu0_L1D RFO       ACCESS:     508312  HIT:     444277  MISS:      64035
cpu0_L1D PREFETCH  ACCESS:          0  HIT:          0  MISS:          0
cpu0_L1D WRITEBACK ACCESS:          0  HIT:          0  MISS:          0
cpu0_L2C TOTAL     ACCESS:     159738  HIT:      90068  MISS:      69670
cpu0_L2C LOAD      ACCESS:      33458  HIT:      27741  MISS:       5717
cpu0_L2C RFO       ACCESS:      64035  HIT:         90  MISS:      63945
cpu0_L2C PREFETCH  ACCESS:          0  HIT:          0  MISS:          0
cpu0_L2C WRITEBACK ACCESS:      62243  HIT:      62237  MISS:          6
LLC TOTAL     ACCESS:     131916  HIT:      83908  MISS:      48008
LLC LOAD      ACCESS:       5717  HIT:       4091  MISS:       1626
LLC RFO       ACCESS:      63945  HIT:      17567  MISS:      46378
LLC PREFETCH  ACCESS:          0  HIT:          0  MISS:          0
LLC WRITEBACK ACCESS:      62252  HIT:      62249  MISS:          3
Heartbeat CPU 0 instructions: 76000000 cycles: 32732173 heartbeat IPC: 2.42435 cumulative IPC: 1.99206 (Simulation time: 1 hr 3 min 0 sec) 

Region of Interest Statistics
cpu0_DTLB TOTAL     ACCESS:    9570986  HIT:    9569164  MISS:       1822
cpu0_DTLB LOAD      ACCESS:    7646894  HIT:    7646189  MISS:        705
cpu0_DTLB RFO       ACCESS:    1924092  HIT:    1922975  MISS:       1117
cpu0_DTLB PREFETCH  ACCESS:          0  HIT:          0  MISS:          0
cpu0_DTLB WRITEBACK ACCESS:          0  HIT:          0  MISS:          0
cpu0_ITLB TOTAL     ACCESS:     431165  HIT:     431165  MISS:          0
cpu0_ITLB LOAD      ACCESS:     431165  HIT:     431165  MISS:          0
cpu0_ITLB RFO       ACCESS:          0  HIT:          0  MISS:          0
cpu0_ITLB PREFETCH  ACCESS:          0  HIT:          0  MISS:          0
cpu0_ITLB WRITEBACK ACCESS:          0  HIT:          0  MISS:          0
cpu0_L1I TOTAL     ACCESS:      23342  HIT:      23334  MISS:          8
cpu0_L1I LOAD      ACCESS:      23342  HIT:      23334  MISS:          8
cpu0_L1I RFO       ACCESS:          0  HIT:          0  MISS:          0
cpu0_L1I PREFETCH  ACCESS:          0  HIT:          0  MISS:          0
cpu0_L1I WRITEBACK ACCESS:          0  HIT:          0  MISS:          0
cpu0_STLB TOTAL     ACCESS:       1822  HIT:       1819  MISS:          3
cpu0_STLB LOAD      ACCESS:        705  HIT:        702  MISS:          3
cpu0_STLB RFO       ACCESS:       1117  HIT:       1117  MISS:          0
cpu0_STLB PREFETCH  ACCESS:          0  HIT:          0  MISS:          0
cpu0_STLB WRITEBACK ACCESS:          0  HIT:          0  MISS:          0
cpu0_L1D TOTAL     ACCESS:    8352465  HIT:    8246228  MISS:     106237
cpu0_L1D LOAD      ACCESS:    7725476  HIT:    7688622  MISS:      36854
cpu0_L1D RFO       ACCESS:     626986  HIT:     557606  MISS:      69380
cpu0_L1D PREFETCH  ACCESS:          0  HIT:          0  MISS:          0
cpu0_L1D WRITEBACK ACCESS:          0  HIT:          0  MISS:          0
cpu0_L2C TOTAL     ACCESS:     173865  HIT:      97816  MISS:      76049
cpu0_L2C LOAD      ACCESS:      36862  HIT:      30071  MISS:       6791
cpu0_L2C RFO       ACCESS:      69380  HIT:        134  MISS:      69246
cpu0_L2C PREFETCH  ACCESS:          0  HIT:          0  MISS:          0
cpu0_L2C WRITEBACK ACCESS:      67620  HIT:      67611  MISS:          9
LLC TOTAL     ACCESS:     143880  HIT:      95734  MISS:      48146
LLC LOAD      ACCESS:       6791  HIT:       5140  MISS:       1651
LLC RFO       ACCESS:      69246  HIT:      22756  MISS:      46490
LLC PREFETCH  ACCESS:          0  HIT:          0  MISS:          0
LLC WRITEBACK ACCESS:      67840  HIT:      67837  MISS:          3
Heartbeat CPU 0 instructions: 78000002 cycles: 33530905 heartbeat IPC: 2.50397 cumulative IPC: 2.02158 (Simulation time: 1 hr 5 min 5 sec) 

Region of Interest Statistics
cpu0_DTLB TOTAL     ACCESS:   10308420  HIT:   10306479  MISS:       1941
cpu0_DTLB LOAD      ACCESS:    8236540  HIT:    8235798  MISS:        742
cpu0_DTLB RFO       ACCESS:    2071880  HIT:    2070681  MISS:       1199
cpu0_DTLB PREFETCH  ACCESS:          0  HIT:          0  MISS:          0
cpu0_DTLB WRITEBACK ACCESS:          0  HIT:          0  MISS:          0
cpu0_ITLB TOTAL     ACCESS:     464339  HIT:     464339  MISS:          0
cpu0_ITLB LOAD      ACCESS:     464339  HIT:     464339  MISS:          0
cpu0_ITLB RFO       ACCESS:          0  HIT:          0  MISS:          0
cpu0_ITLB PREFETCH  ACCESS:          0  HIT:          0  MISS:          0
cpu0_ITLB WRITEBACK ACCESS:          0  HIT:          0  MISS:          0
cpu0_L1I TOTAL     ACCESS:      23342  HIT:      23334  MISS:          8
cpu0_L1I LOAD      ACCESS:      23342  HIT:      23334  MISS:          8
cpu0_L1I RFO       ACCESS:          0  HIT:          0  MISS:          0
cpu0_L1I PREFETCH  ACCESS:          0  HIT:          0  MISS:          0
cpu0_L1I WRITEBACK ACCESS:          0  HIT:          0  MISS:          0
cpu0_STLB TOTAL     ACCESS:       1941  HIT:       1938  MISS:          3
cpu0_STLB LOAD      ACCESS:        742  HIT:        739  MISS:          3
cpu0_STLB RFO       ACCESS:       1199  HIT:       1199  MISS:          0
cpu0_STLB PREFETCH  ACCESS:          0  HIT:          0  MISS:          0
cpu0_STLB WRITEBACK ACCESS:          0  HIT:          0  MISS:          0
cpu0_L1D TOTAL     ACCESS:    9067897  HIT:    8953635  MISS:     114262
cpu0_L1D LOAD      ACCESS:    8323967  HIT:    8284409  MISS:      39558
cpu0_L1D RFO       ACCESS:     743927  HIT:     669226  MISS:      74701
cpu0_L1D PREFETCH  ACCESS:          0  HIT:          0  MISS:          0
cpu0_L1D WRITEBACK ACCESS:          0  HIT:          0  MISS:          0
cpu0_L2C TOTAL     ACCESS:     187237  HIT:     105463  MISS:      81774
cpu0_L2C LOAD      ACCESS:      39566  HIT:      32361  MISS:       7205
cpu0_L2C RFO       ACCESS:      74701  HIT:        144  MISS:      74557
cpu0_L2C PREFETCH  ACCESS:          0  HIT:          0  MISS:          0
cpu0_L2C WRITEBACK ACCESS:      72967  HIT:      72958  MISS:          9
LLC TOTAL     ACCESS:     154761  HIT:     106569  MISS:      48192
LLC LOAD      ACCESS:       7205  HIT:       5547  MISS:       1658
LLC RFO       ACCESS:      74557  HIT:      28028  MISS:      46529
LLC PREFETCH  ACCESS:          0  HIT:          0  MISS:          0
LLC WRITEBACK ACCESS:      72996  HIT:      72993  MISS:          3
Heartbeat CPU 0 instructions: 80000001 cycles: 34328144 heartbeat IPC: 2.50866 cumulative IPC: 2.04809 (Simulation time: 1 hr 6 min 47 sec) 

Region of Interest Statistics
cpu0_DTLB TOTAL     ACCESS:   11047451  HIT:   11045399  MISS:       2052
cpu0_DTLB LOAD      ACCESS:    8827079  HIT:    8826311  MISS:        768
cpu0_DTLB RFO       ACCESS:    2220372  HIT:    2219088  MISS:       1284
cpu0_DTLB PREFETCH  ACCESS:          0  HIT:          0  MISS:          0
cpu0_DTLB WRITEBACK ACCESS:          0  HIT:          0  MISS:          0
cpu0_ITLB TOTAL     ACCESS:     497275  HIT:     497275  MISS:          0
cpu0_ITLB LOAD      ACCESS:     497275  HIT:     497275  MISS:          0
cpu0_ITLB RFO       ACCESS:          0  HIT:          0  MISS:          0
cpu0_ITLB PREFETCH  ACCESS:          0  HIT:          0  MISS:          0
cpu0_ITLB WRITEBACK ACCESS:          0  HIT:          0  MISS:          0
cpu0_L1I TOTAL     ACCESS:      23342  HIT:      23334  MISS:          8
cpu0_L1I LOAD      ACCESS:      23342  HIT:      23334  MISS:          8
cpu0_L1I RFO       ACCESS:          0  HIT:          0  MISS:          0
cpu0_L1I PREFETCH  ACCESS:          0  HIT:          0  MISS:          0
cpu0_L1I WRITEBACK ACCESS:          0  HIT:          0  MISS:          0
cpu0_STLB TOTAL     ACCESS:       2052  HIT:       2049  MISS:          3
cpu0_STLB LOAD      ACCESS:        768  HIT:        765  MISS:          3
cpu0_STLB RFO       ACCESS:       1284  HIT:       1284  MISS:          0
cpu0_STLB PREFETCH  ACCESS:          0  HIT:          0  MISS:          0
cpu0_STLB WRITEBACK ACCESS:          0  HIT:          0  MISS:          0
cpu0_L1D TOTAL     ACCESS:    9784321  HIT:    9662521  MISS:     121800
cpu0_L1D LOAD      ACCESS:    8923580  HIT:    8881808  MISS:      41772
cpu0_L1D RFO       ACCESS:     860738  HIT:     780713  MISS:      80025
cpu0_L1D PREFETCH  ACCESS:          0  HIT:          0  MISS:          0
cpu0_L1D WRITEBACK ACCESS:          0  HIT:          0  MISS:          0
cpu0_L2C TOTAL     ACCESS:     200035  HIT:     112684  MISS:      87351
cpu0_L2C LOAD      ACCESS:      41780  HIT:      34322  MISS:       7458
cpu0_L2C RFO       ACCESS:      80025  HIT:        144  MISS:      79881
cpu0_L2C PREFETCH  ACCESS:          0  HIT:          0  MISS:          0
cpu0_L2C WRITEBACK ACCESS:      78227  HIT:      78218  MISS:          9
LLC TOTAL     ACCESS:     165557  HIT:     117316  MISS:      48241
LLC LOAD      ACCESS:       7458  HIT:       5800  MISS:       1658
LLC RFO       ACCESS:      79881  HIT:      33303  MISS:      46578
LLC PREFETCH  ACCESS:          0  HIT:          0  MISS:          0
LLC WRITEBACK ACCESS:      78215  HIT:      78212  MISS:          3
Heartbeat CPU 0 instructions: 82000001 cycles: 35125558 heartbeat IPC: 2.50811 cumulative IPC: 2.07184 (Simulation time: 1 hr 8 min 33 sec) 

Region of Interest Statistics
cpu0_DTLB TOTAL     ACCESS:   11785488  HIT:   11783351  MISS:       2137
cpu0_DTLB LOAD      ACCESS:    9417039  HIT:    9416267  MISS:        772
cpu0_DTLB RFO       ACCESS:    2368449  HIT:    2367084  MISS:       1365
cpu0_DTLB PREFETCH  ACCESS:          0  HIT:          0  MISS:          0
cpu0_DTLB WRITEBACK ACCESS:          0  HIT:          0  MISS:          0
cpu0_ITLB TOTAL     ACCESS:     530546  HIT:     530546  MISS:          0
cpu0_ITLB LOAD      ACCESS:     530546  HIT:     530546  MISS:          0
cpu0_ITLB RFO       ACCESS:          0  HIT:          0  MISS:          0
cpu0_ITLB PREFETCH  ACCESS:          0  HIT:          0  MISS:          0
cpu0_ITLB WRITEBACK ACCESS:          0  HIT:          0  MISS:          0
cpu0_L1I TOTAL     ACCESS:      23342  HIT:      23334  MISS:          8
cpu0_L1I LOAD      ACCESS:      23342  HIT:      23334  MISS:          8
cpu0_L1I RFO       ACCESS:          0  HIT:          0  MISS:          0
cpu0_L1I PREFETCH  ACCESS:          0  HIT:          0  MISS:          0
cpu0_L1I WRITEBACK ACCESS:          0  HIT:          0  MISS:          0
cpu0_STLB TOTAL     ACCESS:       2137  HIT:       2134  MISS:          3
cpu0_STLB LOAD      ACCESS:        772  HIT:        769  MISS:          3
cpu0_STLB RFO       ACCESS:       1365  HIT:       1365  MISS:          0
cpu0_STLB PREFETCH  ACCESS:          0  HIT:          0  MISS:          0
cpu0_STLB WRITEBACK ACCESS:          0  HIT:          0  MISS:          0
cpu0_L1D TOTAL     ACCESS:   10500318  HIT:   10370837  MISS:     129481
cpu0_L1D LOAD      ACCESS:    9522801  HIT:    9478670  MISS:      44131
cpu0_L1D RFO       ACCESS:     977514  HIT:     892167  MISS:      85347
cpu0_L1D PREFETCH  ACCESS:          0  HIT:          0  MISS:          0
cpu0_L1D WRITEBACK ACCESS:          0  HIT:          0  MISS:          0
cpu0_L2C TOTAL     ACCESS:     213109  HIT:     120103  MISS:      93006
cpu0_L2C LOAD      ACCESS:      44139  HIT:      36348  MISS:       7791
cpu0_L2C RFO       ACCESS:      85347  HIT:        144  MISS:      85203
cpu0_L2C PREFETCH  ACCESS:          0  HIT:          0  MISS:          0
cpu0_L2C WRITEBACK ACCESS:      83620  HIT:      83611  MISS:          9
LLC TOTAL     ACCESS:     176529  HIT:     128248  MISS:      48281
LLC LOAD      ACCESS:       7791  HIT:       6133  MISS:       1658
LLC RFO       ACCESS:      85203  HIT:      38585  MISS:      46618
LLC PREFETCH  ACCESS:          0  HIT:          0  MISS:          0
LLC WRITEBACK ACCESS:      83532  HIT:      83529  MISS:          3
Heartbeat CPU 0 instructions: 84000000 cycles: 35949902 heartbeat IPC: 2.42617 cumulative IPC: 2.0898 (Simulation time: 1 hr 10 min 15 sec) 

Region of Interest Statistics
cpu0_DTLB TOTAL     ACCESS:   12514141  HIT:   12511731  MISS:       2410
cpu0_DTLB LOAD      ACCESS:    9997802  HIT:    9996852  MISS:        950
cpu0_DTLB RFO       ACCESS:    2516339  HIT:    2514879  MISS:       1460
cpu0_DTLB PREFETCH  ACCESS:          0  HIT:          0  MISS:          0
cpu0_DTLB WRITEBACK ACCESS:          0  HIT:          0  MISS:          0
cpu0_ITLB TOTAL     ACCESS:     568127  HIT:     568127  MISS:          0
cpu0_ITLB LOAD      ACCESS:     568127  HIT:     568127  MISS:          0
cpu0_ITLB RFO       ACCESS:          0  HIT:          0  MISS:          0
cpu0_ITLB PREFETCH  ACCESS:          0  HIT:          0  MISS:          0
cpu0_ITLB WRITEBACK ACCESS:          0  HIT:          0  MISS:          0
cpu0_L1I TOTAL     ACCESS:      28820  HIT:      28812  MISS:          8
cpu0_L1I LOAD      ACCESS:      28820  HIT:      28812  MISS:          8
cpu0_L1I RFO       ACCESS:          0  HIT:          0  MISS:          0
cpu0_L1I PREFETCH  ACCESS:          0  HIT:          0  MISS:          0
cpu0_L1I WRITEBACK ACCESS:          0  HIT:          0  MISS:          0
cpu0_STLB TOTAL     ACCESS:       2410  HIT:       2407  MISS:          3
cpu0_STLB LOAD      ACCESS:        950  HIT:        947  MISS:          3
cpu0_STLB RFO       ACCESS:       1460  HIT:       1460  MISS:          0
cpu0_STLB PREFETCH  ACCESS:          0  HIT:          0  MISS:          0
cpu0_STLB WRITEBACK ACCESS:          0  HIT:          0  MISS:          0
cpu0_L1D TOTAL     ACCESS:   11207062  HIT:   11068798  MISS:     138264
cpu0_L1D LOAD      ACCESS:   10110402  HIT:   10062825  MISS:      47577
cpu0_L1D RFO       ACCESS:    1096657  HIT:    1005973  MISS:      90684
cpu0_L1D PREFETCH  ACCESS:          0  HIT:          0  MISS:          0
cpu0_L1D WRITEBACK ACCESS:          0  HIT:          0  MISS:          0
cpu0_L2C TOTAL     ACCESS:     227313  HIT:     127961  MISS:      99352
cpu0_L2C LOAD      ACCESS:      47585  HIT:      38771  MISS:       8814
cpu0_L2C RFO       ACCESS:      90684  HIT:        161  MISS:      90523
cpu0_L2C PREFETCH  ACCESS:          0  HIT:          0  MISS:          0
cpu0_L2C WRITEBACK ACCESS:      89041  HIT:      89029  MISS:         12
LLC TOTAL     ACCESS:     188300  HIT:     139943  MISS:      48357
LLC LOAD      ACCESS:       8813  HIT:       7137  MISS:       1676
LLC RFO       ACCESS:      90523  HIT:      43847  MISS:      46676
LLC PREFETCH  ACCESS:          0  HIT:          0  MISS:          0
LLC WRITEBACK ACCESS:      88961  HIT:      88958  MISS:          3
Heartbeat CPU 0 instructions: 86000000 cycles: 36748549 heartbeat IPC: 2.50424 cumulative IPC: 2.10919 (Simulation time: 1 hr 11 min 59 sec) 

Region of Interest Statistics
cpu0_DTLB TOTAL     ACCESS:   13252481  HIT:   13249959  MISS:       2522
cpu0_DTLB LOAD      ACCESS:   10587990  HIT:   10587010  MISS:        980
cpu0_DTLB RFO       ACCESS:    2664491  HIT:    2662949  MISS:       1542
cpu0_DTLB PREFETCH  ACCESS:          0  HIT:          0  MISS:          0
cpu0_DTLB WRITEBACK ACCESS:          0  HIT:          0  MISS:          0
cpu0_ITLB TOTAL     ACCESS:     601037  HIT:     601037  MISS:          0
cpu0_ITLB LOAD      ACCESS:     601037  HIT:     601037  MISS:          0
cpu0_ITLB RFO       ACCESS:          0  HIT:          0  MISS:          0
cpu0_ITLB PREFETCH  ACCESS:          0  HIT:          0  MISS:          0
cpu0_ITLB WRITEBACK ACCESS:          0  HIT:          0  MISS:          0
cpu0_L1I TOTAL     ACCESS:      28820  HIT:      28812  MISS:          8
cpu0_L1I LOAD      ACCESS:      28820  HIT:      28812  MISS:          8
cpu0_L1I RFO       ACCESS:          0  HIT:          0  MISS:          0
cpu0_L1I PREFETCH  ACCESS:          0  HIT:          0  MISS:          0
cpu0_L1I WRITEBACK ACCESS:          0  HIT:          0  MISS:          0
cpu0_STLB TOTAL     ACCESS:       2522  HIT:       2519  MISS:          3
cpu0_STLB LOAD      ACCESS:        980  HIT:        977  MISS:          3
cpu0_STLB RFO       ACCESS:       1542  HIT:       1542  MISS:          0
cpu0_STLB PREFETCH  ACCESS:          0  HIT:          0  MISS:          0
cpu0_STLB WRITEBACK ACCESS:          0  HIT:          0  MISS:          0
cpu0_L1D TOTAL     ACCESS:   11923190  HIT:   11777070  MISS:     146120
cpu0_L1D LOAD      ACCESS:   10709441  HIT:   10659335  MISS:      50106
cpu0_L1D RFO       ACCESS:    1213746  HIT:    1117735  MISS:      96011
cpu0_L1D PREFETCH  ACCESS:          0  HIT:          0  MISS:          0
cpu0_L1D WRITEBACK ACCESS:          0  HIT:          0  MISS:          0
cpu0_L2C TOTAL     ACCESS:     240470  HIT:     135429  MISS:     105041
cpu0_L2C LOAD      ACCESS:      50114  HIT:      40938  MISS:       9176
cpu0_L2C RFO       ACCESS:      96011  HIT:        161  MISS:      95850
cpu0_L2C PREFETCH  ACCESS:          0  HIT:          0  MISS:          0
cpu0_L2C WRITEBACK ACCESS:      94342  HIT:      94330  MISS:         12
LLC TOTAL     ACCESS:     199276  HIT:     150892  MISS:      48384
LLC LOAD      ACCESS:       9175  HIT:       7490  MISS:       1685
LLC RFO       ACCESS:      95850  HIT:      49156  MISS:      46694
LLC PREFETCH  ACCESS:          0  HIT:          0  MISS:          0
LLC WRITEBACK ACCESS:      94248  HIT:      94245  MISS:          3
Heartbeat CPU 0 instructions: 88000001 cycles: 37546606 heartbeat IPC: 2.50609 cumulative IPC: 2.12692 (Simulation time: 1 hr 13 min 44 sec) 

Region of Interest Statistics
cpu0_DTLB TOTAL     ACCESS:   13990908  HIT:   13988288  MISS:       2620
cpu0_DTLB LOAD      ACCESS:   11178266  HIT:   11177273  MISS:        993
cpu0_DTLB RFO       ACCESS:    2812642  HIT:    2811015  MISS:       1627
cpu0_DTLB PREFETCH  ACCESS:          0  HIT:          0  MISS:          0
cpu0_DTLB WRITEBACK ACCESS:          0  HIT:          0  MISS:          0
cpu0_ITLB TOTAL     ACCESS:     634335  HIT:     634335  MISS:          0
cpu0_ITLB LOAD      ACCESS:     634335  HIT:     634335  MISS:          0
cpu0_ITLB RFO       ACCESS:          0  HIT:          0  MISS:          0
cpu0_ITLB PREFETCH  ACCESS:          0  HIT:          0  MISS:          0
cpu0_ITLB WRITEBACK ACCESS:          0  HIT:          0  MISS:          0
cpu0_L1I TOTAL     ACCESS:      28820  HIT:      28812  MISS:          8
cpu0_L1I LOAD      ACCESS:      28820  HIT:      28812  MISS:          8
cpu0_L1I RFO       ACCESS:          0  HIT:          0  MISS:          0
cpu0_L1I PREFETCH  ACCESS:          0  HIT:          0  MISS:          0
cpu0_L1I WRITEBACK ACCESS:          0  HIT:          0  MISS:          0
cpu0_STLB TOTAL     ACCESS:       2620  HIT:       2617  MISS:          3
cpu0_STLB LOAD      ACCESS:        993  HIT:        990  MISS:          3
cpu0_STLB RFO       ACCESS:       1627  HIT:       1627  MISS:          0
cpu0_STLB PREFETCH  ACCESS:          0  HIT:          0  MISS:          0
cpu0_STLB WRITEBACK ACCESS:          0  HIT:          0  MISS:          0
cpu0_L1D TOTAL     ACCESS:   12638695  HIT:   12484882  MISS:     153813
cpu0_L1D LOAD      ACCESS:   11308318  HIT:   11255837  MISS:      52481
cpu0_L1D RFO       ACCESS:    1330374  HIT:    1229045  MISS:     101329
cpu0_L1D PREFETCH  ACCESS:          0  HIT:          0  MISS:          0
cpu0_L1D WRITEBACK ACCESS:          0  HIT:          0  MISS:          0
cpu0_L2C TOTAL     ACCESS:     253485  HIT:     142759  MISS:     110726
cpu0_L2C LOAD      ACCESS:      52489  HIT:      42946  MISS:       9543
cpu0_L2C RFO       ACCESS:     101329  HIT:        161  MISS:     101168
cpu0_L2C PREFETCH  ACCESS:          0  HIT:          0  MISS:          0
cpu0_L2C WRITEBACK ACCESS:      99664  HIT:      99652  MISS:         12
LLC TOTAL     ACCESS:     210341  HIT:     161898  MISS:      48443
LLC LOAD      ACCESS:       9542  HIT:       7853  MISS:       1689
LLC RFO       ACCESS:     101168  HIT:      54419  MISS:      46749
LLC PREFETCH  ACCESS:          0  HIT:          0  MISS:          0
LLC WRITEBACK ACCESS:      99628  HIT:      99625  MISS:          3
Heartbeat CPU 0 instructions: 90000002 cycles: 38370610 heartbeat IPC: 2.42717 cumulative IPC: 2.14016 (Simulation time: 1 hr 15 min 27 sec) 

Region of Interest Statistics
cpu0_DTLB TOTAL     ACCESS:   14719873  HIT:   14717002  MISS:       2871
cpu0_DTLB LOAD      ACCESS:   11759096  HIT:   11757942  MISS:       1154
cpu0_DTLB RFO       ACCESS:    2960777  HIT:    2959060  MISS:       1717
cpu0_DTLB PREFETCH  ACCESS:          0  HIT:          0  MISS:          0
cpu0_DTLB WRITEBACK ACCESS:          0  HIT:          0  MISS:          0
cpu0_ITLB TOTAL     ACCESS:     671553  HIT:     671553  MISS:          0
cpu0_ITLB LOAD      ACCESS:     671553  HIT:     671553  MISS:          0
cpu0_ITLB RFO       ACCESS:          0  HIT:          0  MISS:          0
cpu0_ITLB PREFETCH  ACCESS:          0  HIT:          0  MISS:          0
cpu0_ITLB WRITEBACK ACCESS:          0  HIT:          0  MISS:          0
cpu0_L1I TOTAL     ACCESS:      34304  HIT:      34296  MISS:          8
cpu0_L1I LOAD      ACCESS:      34304  HIT:      34296  MISS:          8
cpu0_L1I RFO       ACCESS:          0  HIT:          0  MISS:          0
cpu0_L1I PREFETCH  ACCESS:          0  HIT:          0  MISS:          0
cpu0_L1I WRITEBACK ACCESS:          0  HIT:          0  MISS:          0
cpu0_STLB TOTAL     ACCESS:       2871  HIT:       2868  MISS:          3
cpu0_STLB LOAD      ACCESS:       1154  HIT:       1151  MISS:          3
cpu0_STLB RFO       ACCESS:       1717  HIT:       1717  MISS:          0
cpu0_STLB PREFETCH  ACCESS:          0  HIT:          0  MISS:          0
cpu0_STLB WRITEBACK ACCESS:          0  HIT:          0  MISS:          0
cpu0_L1D TOTAL     ACCESS:   13345208  HIT:   13183036  MISS:     162172
cpu0_L1D LOAD      ACCESS:   11896526  HIT:   11841034  MISS:      55492
cpu0_L1D RFO       ACCESS:    1448679  HIT:    1342002  MISS:     106677
cpu0_L1D PREFETCH  ACCESS:          0  HIT:          0  MISS:          0
cpu0_L1D WRITEBACK ACCESS:          0  HIT:          0  MISS:          0
cpu0_L2C TOTAL     ACCESS:     267195  HIT:     150103  MISS:     117092
cpu0_L2C LOAD      ACCESS:      55500  HIT:      44934  MISS:      10566
cpu0_L2C RFO       ACCESS:     106677  HIT:        169  MISS:     106508
cpu0_L2C PREFETCH  ACCESS:          0  HIT:          0  MISS:          0
cpu0_L2C WRITEBACK ACCESS:     105015  HIT:     105000  MISS:         15
LLC TOTAL     ACCESS:     222553  HIT:     173949  MISS:      48604
LLC LOAD      ACCESS:      10565  HIT:       8852  MISS:       1713
LLC RFO       ACCESS:     106508  HIT:      59622  MISS:      46886
LLC PREFETCH  ACCESS:          0  HIT:          0  MISS:          0
LLC WRITEBACK ACCESS:     105477  HIT:     105474  MISS:          3
Heartbeat CPU 0 instructions: 92000001 cycles: 39170477 heartbeat IPC: 2.50041 cumulative IPC: 2.15494 (Simulation time: 1 hr 17 min 8 sec) 

Region of Interest Statistics
cpu0_DTLB TOTAL     ACCESS:   15457692  HIT:   15454691  MISS:       3001
cpu0_DTLB LOAD      ACCESS:   12349038  HIT:   12347843  MISS:       1195
cpu0_DTLB RFO       ACCESS:    3108654  HIT:    3106848  MISS:       1806
cpu0_DTLB PREFETCH  ACCESS:          0  HIT:          0  MISS:          0
cpu0_DTLB WRITEBACK ACCESS:          0  HIT:          0  MISS:          0
cpu0_ITLB TOTAL     ACCESS:     704651  HIT:     704651  MISS:          0
cpu0_ITLB LOAD      ACCESS:     704651  HIT:     704651  MISS:          0
cpu0_ITLB RFO       ACCESS:          0  HIT:          0  MISS:          0
cpu0_ITLB PREFETCH  ACCESS:          0  HIT:          0  MISS:          0
cpu0_ITLB WRITEBACK ACCESS:          0  HIT:          0  MISS:          0
cpu0_L1I TOTAL     ACCESS:      34304  HIT:      34296  MISS:          8
cpu0_L1I LOAD      ACCESS:      34304  HIT:      34296  MISS:          8
cpu0_L1I RFO       ACCESS:          0  HIT:          0  MISS:          0
cpu0_L1I PREFETCH  ACCESS:          0  HIT:          0  MISS:          0
cpu0_L1I WRITEBACK ACCESS:          0  HIT:          0  MISS:          0
cpu0_STLB TOTAL     ACCESS:       3001  HIT:       2998  MISS:          3
cpu0_STLB LOAD      ACCESS:       1195  HIT:       1192  MISS:          3
cpu0_STLB RFO       ACCESS:       1806  HIT:       1806  MISS:          0
cpu0_STLB PREFETCH  ACCESS:          0  HIT:          0  MISS:          0
cpu0_STLB WRITEBACK ACCESS:          0  HIT:          0  MISS:          0
cpu0_L1D TOTAL     ACCESS:   14059446  HIT:   13889238  MISS:     170208
cpu0_L1D LOAD      ACCESS:   12495236  HIT:   12437030  MISS:      58206
cpu0_L1D RFO       ACCESS:    1564207  HIT:    1452208  MISS:     111999
cpu0_L1D PREFETCH  ACCESS:          0  HIT:          0  MISS:          0
cpu0_L1D WRITEBACK ACCESS:          0  HIT:          0  MISS:          0
cpu0_L2C TOTAL     ACCESS:     280628  HIT:     157802  MISS:     122826
cpu0_L2C LOAD      ACCESS:      58214  HIT:      47228  MISS:      10986
cpu0_L2C RFO       ACCESS:     111999  HIT:        177  MISS:     111822
cpu0_L2C PREFETCH  ACCESS:          0  HIT:          0  MISS:          0
cpu0_L2C WRITEBACK ACCESS:     110412  HIT:     110397  MISS:         15
LLC TOTAL     ACCESS:     233188  HIT:     184368  MISS:      48820
LLC LOAD      ACCESS:      10985  HIT:       9255  MISS:       1730
LLC RFO       ACCESS:     111822  HIT:      64737  MISS:      47085
LLC PREFETCH  ACCESS:          0  HIT:          0  MISS:          0
LLC WRITEBACK ACCESS:     110378  HIT:     110375  MISS:          3
Heartbeat CPU 0 instructions: 94000001 cycles: 39968356 heartbeat IPC: 2.50665 cumulative IPC: 2.16877 (Simulation time: 1 hr 18 min 58 sec) 

Region of Interest Statistics
cpu0_DTLB TOTAL     ACCESS:   16195494  HIT:   16192373  MISS:       3121
cpu0_DTLB LOAD      ACCESS:   12938581  HIT:   12937347  MISS:       1234
cpu0_DTLB RFO       ACCESS:    3256913  HIT:    3255026  MISS:       1887
cpu0_DTLB PREFETCH  ACCESS:          0  HIT:          0  MISS:          0
cpu0_DTLB WRITEBACK ACCESS:          0  HIT:          0  MISS:          0
cpu0_ITLB TOTAL     ACCESS:     737511  HIT:     737511  MISS:          0
cpu0_ITLB LOAD      ACCESS:     737511  HIT:     737511  MISS:          0
cpu0_ITLB RFO       ACCESS:          0  HIT:          0  MISS:          0
cpu0_ITLB PREFETCH  ACCESS:          0  HIT:          0  MISS:          0
cpu0_ITLB WRITEBACK ACCESS:          0  HIT:          0  MISS:          0
cpu0_L1I TOTAL     ACCESS:      34304  HIT:      34296  MISS:          8
cpu0_L1I LOAD      ACCESS:      34304  HIT:      34296  MISS:          8
cpu0_L1I RFO       ACCESS:          0  HIT:          0  MISS:          0
cpu0_L1I PREFETCH  ACCESS:          0  HIT:          0  MISS:          0
cpu0_L1I WRITEBACK ACCESS:          0  HIT:          0  MISS:          0
cpu0_STLB TOTAL     ACCESS:       3121  HIT:       3118  MISS:          3
cpu0_STLB LOAD      ACCESS:       1234  HIT:       1231  MISS:          3
cpu0_STLB RFO       ACCESS:       1887  HIT:       1887  MISS:          0
cpu0_STLB PREFETCH  ACCESS:          0  HIT:          0  MISS:          0
cpu0_STLB WRITEBACK ACCESS:          0  HIT:          0  MISS:          0
cpu0_L1D TOTAL     ACCESS:   14773934  HIT:   14595946  MISS:     177988
cpu0_L1D LOAD      ACCESS:   13094390  HIT:   13033731  MISS:      60659
cpu0_L1D RFO       ACCESS:    1679541  HIT:    1562215  MISS:     117326
cpu0_L1D PREFETCH  ACCESS:          0  HIT:          0  MISS:          0
cpu0_L1D WRITEBACK ACCESS:          0  HIT:          0  MISS:          0
cpu0_L2C TOTAL     ACCESS:     293675  HIT:     165097  MISS:     128578
cpu0_L2C LOAD      ACCESS:      60667  HIT:      49256  MISS:      11411
cpu0_L2C RFO       ACCESS:     117326  HIT:        177  MISS:     117149
cpu0_L2C PREFETCH  ACCESS:          0  HIT:          0  MISS:          0
cpu0_L2C WRITEBACK ACCESS:     115679  HIT:     115664  MISS:         15
LLC TOTAL     ACCESS:     244225  HIT:     195203  MISS:      49022
LLC LOAD      ACCESS:      11410  HIT:       9680  MISS:       1730
LLC RFO       ACCESS:     117149  HIT:      69862  MISS:      47287
LLC PREFETCH  ACCESS:          0  HIT:          0  MISS:          0
LLC WRITEBACK ACCESS:     115663  HIT:     115660  MISS:          3
Heartbeat CPU 0 instructions: 96000003 cycles: 40765676 heartbeat IPC: 2.50841 cumulative IPC: 2.18162 (Simulation time: 1 hr 20 min 46 sec) 

Region of Interest Statistics
cpu0_DTLB TOTAL     ACCESS:   16933737  HIT:   16930521  MISS:       3216
cpu0_DTLB LOAD      ACCESS:   13528574  HIT:   13527331  MISS:       1243
cpu0_DTLB RFO       ACCESS:    3405163  HIT:    3403190  MISS:       1973
cpu0_DTLB PREFETCH  ACCESS:          0  HIT:          0  MISS:          0
cpu0_DTLB WRITEBACK ACCESS:          0  HIT:          0  MISS:          0
cpu0_ITLB TOTAL     ACCESS:     770827  HIT:     770827  MISS:          0
cpu0_ITLB LOAD      ACCESS:     770827  HIT:     770827  MISS:          0
cpu0_ITLB RFO       ACCESS:          0  HIT:          0  MISS:          0
cpu0_ITLB PREFETCH  ACCESS:          0  HIT:          0  MISS:          0
cpu0_ITLB WRITEBACK ACCESS:          0  HIT:          0  MISS:          0
cpu0_L1I TOTAL     ACCESS:      34304  HIT:      34296  MISS:          8
cpu0_L1I LOAD      ACCESS:      34304  HIT:      34296  MISS:          8
cpu0_L1I RFO       ACCESS:          0  HIT:          0  MISS:          0
cpu0_L1I PREFETCH  ACCESS:          0  HIT:          0  MISS:          0
cpu0_L1I WRITEBACK ACCESS:          0  HIT:          0  MISS:          0
cpu0_STLB TOTAL     ACCESS:       3216  HIT:       3213  MISS:          3
cpu0_STLB LOAD      ACCESS:       1243  HIT:       1240  MISS:          3
cpu0_STLB RFO       ACCESS:       1973  HIT:       1973  MISS:          0
cpu0_STLB PREFETCH  ACCESS:          0  HIT:          0  MISS:          0
cpu0_STLB WRITEBACK ACCESS:          0  HIT:          0  MISS:          0
cpu0_L1D TOTAL     ACCESS:   15489963  HIT:   15304412  MISS:     185551
cpu0_L1D LOAD      ACCESS:   13693781  HIT:   13630877  MISS:      62904
cpu0_L1D RFO       ACCESS:    1796179  HIT:    1673535  MISS:     122644
cpu0_L1D PREFETCH  ACCESS:          0  HIT:          0  MISS:          0
cpu0_L1D WRITEBACK ACCESS:          0  HIT:          0  MISS:          0
cpu0_L2C TOTAL     ACCESS:     306565  HIT:     172370  MISS:     134195
cpu0_L2C LOAD      ACCESS:      62912  HIT:      51202  MISS:      11710
cpu0_L2C RFO       ACCESS:     122644  HIT:        177  MISS:     122467
cpu0_L2C PREFETCH  ACCESS:          0  HIT:          0  MISS:          0
cpu0_L2C WRITEBACK ACCESS:     121006  HIT:     120991  MISS:         15
LLC TOTAL     ACCESS:     255123  HIT:     206039  MISS:      49084
LLC LOAD      ACCESS:      11709  HIT:       9979  MISS:       1730
LLC RFO       ACCESS:     122467  HIT:      75118  MISS:      47349
LLC PREFETCH  ACCESS:          0  HIT:          0  MISS:          0
LLC WRITEBACK ACCESS:     120944  HIT:     120941  MISS:          3
Heartbeat CPU 0 instructions: 98000000 cycles: 41590524 heartbeat IPC: 2.42469 cumulative IPC: 2.19077 (Simulation time: 1 hr 22 min 33 sec) 

Region of Interest Statistics
cpu0_DTLB TOTAL     ACCESS:   17662466  HIT:   17658983  MISS:       3483
cpu0_DTLB LOAD      ACCESS:   14109507  HIT:   14108090  MISS:       1417
cpu0_DTLB RFO       ACCESS:    3552959  HIT:    3550893  MISS:       2066
cpu0_DTLB PREFETCH  ACCESS:          0  HIT:          0  MISS:          0
cpu0_DTLB WRITEBACK ACCESS:          0  HIT:          0  MISS:          0
cpu0_ITLB TOTAL     ACCESS:     808450  HIT:     808450  MISS:          0
cpu0_ITLB LOAD      ACCESS:     808450  HIT:     808450  MISS:          0
cpu0_ITLB RFO       ACCESS:          0  HIT:          0  MISS:          0
cpu0_ITLB PREFETCH  ACCESS:          0  HIT:          0  MISS:          0
cpu0_ITLB WRITEBACK ACCESS:          0  HIT:          0  MISS:          0
cpu0_L1I TOTAL     ACCESS:      39778  HIT:      39770  MISS:          8
cpu0_L1I LOAD      ACCESS:      39778  HIT:      39770  MISS:          8
cpu0_L1I RFO       ACCESS:          0  HIT:          0  MISS:          0
cpu0_L1I PREFETCH  ACCESS:          0  HIT:          0  MISS:          0
cpu0_L1I WRITEBACK ACCESS:          0  HIT:          0  MISS:          0
cpu0_STLB TOTAL     ACCESS:       3483  HIT:       3480  MISS:          3
cpu0_STLB LOAD      ACCESS:       1417  HIT:       1414  MISS:          3
cpu0_STLB RFO       ACCESS:       2066  HIT:       2066  MISS:          0
cpu0_STLB PREFETCH  ACCESS:          0  HIT:          0  MISS:          0
cpu0_STLB WRITEBACK ACCESS:          0  HIT:          0  MISS:          0
cpu0_L1D TOTAL     ACCESS:   16195707  HIT:   16001391  MISS:     194316
cpu0_L1D LOAD      ACCESS:   14281219  HIT:   14214885  MISS:      66334
cpu0_L1D RFO       ACCESS:    1914485  HIT:    1786506  MISS:     127979
cpu0_L1D PREFETCH  ACCESS:          0  HIT:          0  MISS:          0
cpu0_L1D WRITEBACK ACCESS:          0  HIT:          0  MISS:          0
cpu0_L2C TOTAL     ACCESS:     320757  HIT:     180180  MISS:     140577
cpu0_L2C LOAD      ACCESS:      66342  HIT:      53574  MISS:      12768
cpu0_L2C RFO       ACCESS:     127979  HIT:        191  MISS:     127788
cpu0_L2C PREFETCH  ACCESS:          0  HIT:          0  MISS:          0
cpu0_L2C WRITEBACK ACCESS:     126433  HIT:     126415  MISS:         18
LLC TOTAL     ACCESS:     267242  HIT:     217980  MISS:      49262
LLC LOAD      ACCESS:      12766  HIT:      11015  MISS:       1751
LLC RFO       ACCESS:     127788  HIT:      80282  MISS:      47506
LLC PREFETCH  ACCESS:          0  HIT:          0  MISS:          0
LLC WRITEBACK ACCESS:     126685  HIT:     126682  MISS:          3
Heartbeat CPU 0 instructions: 100000000 cycles: 42389292 heartbeat IPC: 2.50386 cumulative IPC: 2.20178 (Simulation time: 1 hr 24 min 20 sec) 

Region of Interest Statistics
cpu0_DTLB TOTAL     ACCESS:   18400774  HIT:   18397170  MISS:       3604
cpu0_DTLB LOAD      ACCESS:   14699692  HIT:   14698236  MISS:       1456
cpu0_DTLB RFO       ACCESS:    3701082  HIT:    3698934  MISS:       2148
cpu0_DTLB PREFETCH  ACCESS:          0  HIT:          0  MISS:          0
cpu0_DTLB WRITEBACK ACCESS:          0  HIT:          0  MISS:          0
cpu0_ITLB TOTAL     ACCESS:     841332  HIT:     841332  MISS:          0
cpu0_ITLB LOAD      ACCESS:     841332  HIT:     841332  MISS:          0
cpu0_ITLB RFO       ACCESS:          0  HIT:          0  MISS:          0
cpu0_ITLB PREFETCH  ACCESS:          0  HIT:          0  MISS:          0
cpu0_ITLB WRITEBACK ACCESS:          0  HIT:          0  MISS:          0
cpu0_L1I TOTAL     ACCESS:      39778  HIT:      39770  MISS:          8
cpu0_L1I LOAD      ACCESS:      39778  HIT:      39770  MISS:          8
cpu0_L1I RFO       ACCESS:          0  HIT:          0  MISS:          0
cpu0_L1I PREFETCH  ACCESS:          0  HIT:          0  MISS:          0
cpu0_L1I WRITEBACK ACCESS:          0  HIT:          0  MISS:          0
cpu0_STLB TOTAL     ACCESS:       3604  HIT:       3601  MISS:          3
cpu0_STLB LOAD      ACCESS:       1456  HIT:       1453  MISS:          3
cpu0_STLB RFO       ACCESS:       2148  HIT:       2148  MISS:          0
cpu0_STLB PREFETCH  ACCESS:          0  HIT:          0  MISS:          0
cpu0_STLB WRITEBACK ACCESS:          0  HIT:          0  MISS:          0
cpu0_L1D TOTAL     ACCESS:   16911771  HIT:   16709486  MISS:     202285
cpu0_L1D LOAD      ACCESS:   14880711  HIT:   14811735  MISS:      68976
cpu0_L1D RFO       ACCESS:    2031057  HIT:    1897751  MISS:     133306
cpu0_L1D PREFETCH  ACCESS:          0  HIT:          0  MISS:          0
cpu0_L1D WRITEBACK ACCESS:          0  HIT:          0  MISS:          0
cpu0_L2C TOTAL     ACCESS:     334035  HIT:     187878  MISS:     146157
cpu0_L2C LOAD      ACCESS:      68984  HIT:      55963  MISS:      13021
cpu0_L2C RFO       ACCESS:     133306  HIT:        191  MISS:     133115
cpu0_L2C PREFETCH  ACCESS:          0  HIT:          0  MISS:          0
cpu0_L2C WRITEBACK ACCESS:     131742  HIT:     131724  MISS:         18
LLC TOTAL     ACCESS:     277824  HIT:     228501  MISS:      49323
LLC LOAD      ACCESS:      13019  HIT:      11263  MISS:       1756
LLC RFO       ACCESS:     133115  HIT:      85553  MISS:      47562
LLC PREFETCH  ACCESS:          0  HIT:          0  MISS:          0
LLC WRITEBACK ACCESS:     131687  HIT:     131684  MISS:          3
Heartbeat CPU 0 instructions: 102000001 cycles: 43186634 heartbeat IPC: 2.50834 cumulative IPC: 2.21218 (Simulation time: 1 hr 26 min 8 sec) 

Region of Interest Statistics
cpu0_DTLB TOTAL     ACCESS:   19138824  HIT:   19135100  MISS:       3724
cpu0_DTLB LOAD      ACCESS:   15289963  HIT:   15288474  MISS:       1489
cpu0_DTLB RFO       ACCESS:    3848861  HIT:    3846626  MISS:       2235
cpu0_DTLB PREFETCH  ACCESS:          0  HIT:          0  MISS:          0
cpu0_DTLB WRITEBACK ACCESS:          0  HIT:          0  MISS:          0
cpu0_ITLB TOTAL     ACCESS:     874547  HIT:     874547  MISS:          0
cpu0_ITLB LOAD      ACCESS:     874547  HIT:     874547  MISS:          0
cpu0_ITLB RFO       ACCESS:          0  HIT:          0  MISS:          0
cpu0_ITLB PREFETCH  ACCESS:          0  HIT:          0  MISS:          0
cpu0_ITLB WRITEBACK ACCESS:          0  HIT:          0  MISS:          0
cpu0_L1I TOTAL     ACCESS:      39778  HIT:      39770  MISS:          8
cpu0_L1I LOAD      ACCESS:      39778  HIT:      39770  MISS:          8
cpu0_L1I RFO       ACCESS:          0  HIT:          0  MISS:          0
cpu0_L1I PREFETCH  ACCESS:          0  HIT:          0  MISS:          0
cpu0_L1I WRITEBACK ACCESS:          0  HIT:          0  MISS:          0
cpu0_STLB TOTAL     ACCESS:       3724  HIT:       3721  MISS:          3
cpu0_STLB LOAD      ACCESS:       1489  HIT:       1486  MISS:          3
cpu0_STLB RFO       ACCESS:       2235  HIT:       2235  MISS:          0
cpu0_STLB PREFETCH  ACCESS:          0  HIT:          0  MISS:          0
cpu0_STLB WRITEBACK ACCESS:          0  HIT:          0  MISS:          0
cpu0_L1D TOTAL     ACCESS:   17626987  HIT:   17416614  MISS:     210373
cpu0_L1D LOAD      ACCESS:   15479509  HIT:   15407767  MISS:      71742
cpu0_L1D RFO       ACCESS:    2147475  HIT:    2008847  MISS:     138628
cpu0_L1D PREFETCH  ACCESS:          0  HIT:          0  MISS:          0
cpu0_L1D WRITEBACK ACCESS:          0  HIT:          0  MISS:          0
cpu0_L2C TOTAL     ACCESS:     347457  HIT:     195593  MISS:     151864
cpu0_L2C LOAD      ACCESS:      71750  HIT:      58344  MISS:      13406
cpu0_L2C RFO       ACCESS:     138628  HIT:        191  MISS:     138437
cpu0_L2C PREFETCH  ACCESS:          0  HIT:          0  MISS:          0
cpu0_L2C WRITEBACK ACCESS:     137076  HIT:     137058  MISS:         18
LLC TOTAL     ACCESS:     288886  HIT:     239496  MISS:      49390
LLC LOAD      ACCESS:      13404  HIT:      11648  MISS:       1756
LLC RFO       ACCESS:     138437  HIT:      90808  MISS:      47629
LLC PREFETCH  ACCESS:          0  HIT:          0  MISS:          0
LLC WRITEBACK ACCESS:     137042  HIT:     137039  MISS:          3
Heartbeat CPU 0 instructions: 104000002 cycles: 43984045 heartbeat IPC: 2.50812 cumulative IPC: 2.22189 (Simulation time: 1 hr 27 min 53 sec) 

Region of Interest Statistics
cpu0_DTLB TOTAL     ACCESS:   19877646  HIT:   19873835  MISS:       3811
cpu0_DTLB LOAD      ACCESS:   15880396  HIT:   15878904  MISS:       1492
cpu0_DTLB RFO       ACCESS:    3997250  HIT:    3994931  MISS:       2319
cpu0_DTLB PREFETCH  ACCESS:          0  HIT:          0  MISS:          0
cpu0_DTLB WRITEBACK ACCESS:          0  HIT:          0  MISS:          0
cpu0_ITLB TOTAL     ACCESS:     907577  HIT:     907577  MISS:          0
cpu0_ITLB LOAD      ACCESS:     907577  HIT:     907577  MISS:          0
cpu0_ITLB RFO       ACCESS:          0  HIT:          0  MISS:          0
cpu0_ITLB PREFETCH  ACCESS:          0  HIT:          0  MISS:          0
cpu0_ITLB WRITEBACK ACCESS:          0  HIT:          0  MISS:          0
cpu0_L1I TOTAL     ACCESS:      39778  HIT:      39770  MISS:          8
cpu0_L1I LOAD      ACCESS:      39778  HIT:      39770  MISS:          8
cpu0_L1I RFO       ACCESS:          0  HIT:          0  MISS:          0
cpu0_L1I PREFETCH  ACCESS:          0  HIT:          0  MISS:          0
cpu0_L1I WRITEBACK ACCESS:          0  HIT:          0  MISS:          0
cpu0_STLB TOTAL     ACCESS:       3811  HIT:       3808  MISS:          3
cpu0_STLB LOAD      ACCESS:       1492  HIT:       1489  MISS:          3
cpu0_STLB RFO       ACCESS:       2319  HIT:       2319  MISS:          0
cpu0_STLB PREFETCH  ACCESS:          0  HIT:          0  MISS:          0
cpu0_STLB WRITEBACK ACCESS:          0  HIT:          0  MISS:          0
cpu0_L1D TOTAL     ACCESS:   18343586  HIT:   18125372  MISS:     218214
cpu0_L1D LOAD      ACCESS:   16079292  HIT:   16005036  MISS:      74256
cpu0_L1D RFO       ACCESS:    2264291  HIT:    2120336  MISS:     143955
cpu0_L1D PREFETCH  ACCESS:          0  HIT:          0  MISS:          0
cpu0_L1D WRITEBACK ACCESS:          0  HIT:          0  MISS:          0
cpu0_L2C TOTAL     ACCESS:     360655  HIT:     203263  MISS:     157392
cpu0_L2C LOAD      ACCESS:      74264  HIT:      60657  MISS:      13607
cpu0_L2C RFO       ACCESS:     143955  HIT:        191  MISS:     143764
cpu0_L2C PREFETCH  ACCESS:          0  HIT:          0  MISS:          0
cpu0_L2C WRITEBACK ACCESS:     142433  HIT:     142415  MISS:         18
LLC TOTAL     ACCESS:     299746  HIT:     250302  MISS:      49444
LLC LOAD      ACCESS:      13605  HIT:      11849  MISS:       1756
LLC RFO       ACCESS:     143764  HIT:      96081  MISS:      47683
LLC PREFETCH  ACCESS:          0  HIT:          0  MISS:          0
LLC WRITEBACK ACCESS:     142374  HIT:     142371  MISS:          3
Heartbeat CPU 0 instructions: 106000000 cycles: 44809663 heartbeat IPC: 2.42243 cumulative IPC: 2.22848 (Simulation time: 1 hr 29 min 36 sec) 

Region of Interest Statistics
cpu0_DTLB TOTAL     ACCESS:   20606019  HIT:   20601988  MISS:       4031
cpu0_DTLB LOAD      ACCESS:   16460638  HIT:   16459019  MISS:       1619
cpu0_DTLB RFO       ACCESS:    4145381  HIT:    4142969  MISS:       2412
cpu0_DTLB PREFETCH  ACCESS:          0  HIT:          0  MISS:          0
cpu0_DTLB WRITEBACK ACCESS:          0  HIT:          0  MISS:          0
cpu0_ITLB TOTAL     ACCESS:     944956  HIT:     944956  MISS:          0
cpu0_ITLB LOAD      ACCESS:     944956  HIT:     944956  MISS:          0
cpu0_ITLB RFO       ACCESS:          0  HIT:          0  MISS:          0
cpu0_ITLB PREFETCH  ACCESS:          0  HIT:          0  MISS:          0
cpu0_ITLB WRITEBACK ACCESS:          0  HIT:          0  MISS:          0
cpu0_L1I TOTAL     ACCESS:      45561  HIT:      45553  MISS:          8
cpu0_L1I LOAD      ACCESS:      45561  HIT:      45553  MISS:          8
cpu0_L1I RFO       ACCESS:          0  HIT:          0  MISS:          0
cpu0_L1I PREFETCH  ACCESS:          0  HIT:          0  MISS:          0
cpu0_L1I WRITEBACK ACCESS:          0  HIT:          0  MISS:          0
cpu0_STLB TOTAL     ACCESS:       4031  HIT:       4028  MISS:          3
cpu0_STLB LOAD      ACCESS:       1619  HIT:       1616  MISS:          3
cpu0_STLB RFO       ACCESS:       2412  HIT:       2412  MISS:          0
cpu0_STLB PREFETCH  ACCESS:          0  HIT:          0  MISS:          0
cpu0_STLB WRITEBACK ACCESS:          0  HIT:          0  MISS:          0
cpu0_L1D TOTAL     ACCESS:   19048820  HIT:   18822023  MISS:     226797
cpu0_L1D LOAD      ACCESS:   16666494  HIT:   16589000  MISS:      77494
cpu0_L1D RFO       ACCESS:    2382323  HIT:    2233023  MISS:     149300
cpu0_L1D PREFETCH  ACCESS:          0  HIT:          0  MISS:          0
cpu0_L1D WRITEBACK ACCESS:          0  HIT:          0  MISS:          0
cpu0_L2C TOTAL     ACCESS:     374644  HIT:     211069  MISS:     163575
cpu0_L2C LOAD      ACCESS:      77502  HIT:      63048  MISS:      14454
cpu0_L2C RFO       ACCESS:     149300  HIT:        203  MISS:     149097
cpu0_L2C PREFETCH  ACCESS:          0  HIT:          0  MISS:          0
cpu0_L2C WRITEBACK ACCESS:     147839  HIT:     147818  MISS:         21
LLC TOTAL     ACCESS:     311369  HIT:     261672  MISS:      49697
LLC LOAD      ACCESS:      14452  HIT:      12642  MISS:       1810
LLC RFO       ACCESS:     149097  HIT:     101215  MISS:      47882
LLC PREFETCH  ACCESS:          0  HIT:          0  MISS:          0
LLC WRITEBACK ACCESS:     147817  HIT:     147814  MISS:          3
Heartbeat CPU 0 instructions: 108000001 cycles: 45609083 heartbeat IPC: 2.50182 cumulative IPC: 2.2369 (Simulation time: 1 hr 31 min 22 sec) 

Region of Interest Statistics
cpu0_DTLB TOTAL     ACCESS:   21343871  HIT:   21339723  MISS:       4148
cpu0_DTLB LOAD      ACCESS:   17050276  HIT:   17048622  MISS:       1654
cpu0_DTLB RFO       ACCESS:    4293595  HIT:    4291101  MISS:       2494
cpu0_DTLB PREFETCH  ACCESS:          0  HIT:          0  MISS:          0
cpu0_DTLB WRITEBACK ACCESS:          0  HIT:          0  MISS:          0
cpu0_ITLB TOTAL     ACCESS:     977861  HIT:     977861  MISS:          0
cpu0_ITLB LOAD      ACCESS:     977861  HIT:     977861  MISS:          0
cpu0_ITLB RFO       ACCESS:          0  HIT:          0  MISS:          0
cpu0_ITLB PREFETCH  ACCESS:          0  HIT:          0  MISS:          0
cpu0_ITLB WRITEBACK ACCESS:          0  HIT:          0  MISS:          0
cpu0_L1I TOTAL     ACCESS:      45561  HIT:      45553  MISS:          8
cpu0_L1I LOAD      ACCESS:      45561  HIT:      45553  MISS:          8
[...]
cpu0_DTLB LOAD      ACCESS:  440448115  HIT:  440413709  MISS:      34406
cpu0_DTLB RFO       ACCESS:  110837693  HIT:  110773601  MISS:      64092
cpu0_DTLB PREFETCH  ACCESS:          0  HIT:          0  MISS:          0
cpu0_DTLB WRITEBACK ACCESS:          0  HIT:          0  MISS:          0
cpu0_ITLB TOTAL     ACCESS:   25375884  HIT:   25375883  MISS:          1
cpu0_ITLB LOAD      ACCESS:   25375884  HIT:   25375883  MISS:          1
cpu0_ITLB RFO       ACCESS:          0  HIT:          0  MISS:          0
cpu0_ITLB PREFETCH  ACCESS:          0  HIT:          0  MISS:          0
cpu0_ITLB WRITEBACK ACCESS:          0  HIT:          0  MISS:          0
cpu0_L1I TOTAL     ACCESS:    1148544  HIT:    1148530  MISS:         14
cpu0_L1I LOAD      ACCESS:    1148544  HIT:    1148530  MISS:         14
cpu0_L1I RFO       ACCESS:          0  HIT:          0  MISS:          0
cpu0_L1I PREFETCH  ACCESS:          0  HIT:          0  MISS:          0
cpu0_L1I WRITEBACK ACCESS:          0  HIT:          0  MISS:          0
cpu0_STLB TOTAL     ACCESS:      98499  HIT:      98471  MISS:         28
cpu0_STLB LOAD      ACCESS:      34407  HIT:      34384  MISS:         23
cpu0_STLB RFO       ACCESS:      64092  HIT:      64087  MISS:          5
cpu0_STLB PREFETCH  ACCESS:          0  HIT:          0  MISS:          0
cpu0_STLB WRITEBACK ACCESS:          0  HIT:          0  MISS:          0
cpu0_L1D TOTAL     ACCESS:  510123878  HIT:  504002119  MISS:    6121759
cpu0_L1D LOAD      ACCESS:  446278622  HIT:  444144034  MISS:    2134588
cpu0_L1D RFO       ACCESS:   63845228  HIT:   59858085  MISS:    3987143
cpu0_L1D PREFETCH  ACCESS:          0  HIT:          0  MISS:          0
cpu0_L1D WRITEBACK ACCESS:          0  HIT:          0  MISS:          0
cpu0_L2C TOTAL     ACCESS:   10093498  HIT:    5740774  MISS:    4352724
cpu0_L2C LOAD      ACCESS:    2134598  HIT:    1765298  MISS:     369300
cpu0_L2C RFO       ACCESS:    3987143  HIT:       4170  MISS:    3982973
cpu0_L2C PREFETCH  ACCESS:          0  HIT:          0  MISS:          0
cpu0_L2C WRITEBACK ACCESS:    3971729  HIT:    3971306  MISS:        423
LLC TOTAL     ACCESS:    8320643  HIT:    6580836  MISS:    1739807
LLC LOAD      ACCESS:     369295  HIT:     323629  MISS:      45666
LLC RFO       ACCESS:    3982968  HIT:    2288877  MISS:    1694091
LLC PREFETCH  ACCESS:          0  HIT:          0  MISS:          0
LLC WRITEBACK ACCESS:    3968352  HIT:    3968309  MISS:         43
Heartbeat CPU 0 instructions: 1550000002 cycles: 654250393 heartbeat IPC: 2.33989 cumulative IPC: 2.36381 (Simulation time: 18 hr 10 min 20 sec) 

Region of Interest Statistics
cpu0_DTLB TOTAL     ACCESS:  552024249  HIT:  551925655  MISS:      98594
cpu0_DTLB LOAD      ACCESS:  441038357  HIT:  441003939  MISS:      34418
cpu0_DTLB RFO       ACCESS:  110985892  HIT:  110921716  MISS:      64176
cpu0_DTLB PREFETCH  ACCESS:          0  HIT:          0  MISS:          0
cpu0_DTLB WRITEBACK ACCESS:          0  HIT:          0  MISS:          0
cpu0_ITLB TOTAL     ACCESS:   25408519  HIT:   25408518  MISS:          1
cpu0_ITLB LOAD      ACCESS:   25408519  HIT:   25408518  MISS:          1
cpu0_ITLB RFO       ACCESS:          0  HIT:          0  MISS:          0
cpu0_ITLB PREFETCH  ACCESS:          0  HIT:          0  MISS:          0
cpu0_ITLB WRITEBACK ACCESS:          0  HIT:          0  MISS:          0
cpu0_L1I TOTAL     ACCESS:    1148544  HIT:    1148530  MISS:         14
cpu0_L1I LOAD      ACCESS:    1148544  HIT:    1148530  MISS:         14
cpu0_L1I RFO       ACCESS:          0  HIT:          0  MISS:          0
cpu0_L1I PREFETCH  ACCESS:          0  HIT:          0  MISS:          0
cpu0_L1I WRITEBACK ACCESS:          0  HIT:          0  MISS:          0
cpu0_STLB TOTAL     ACCESS:      98595  HIT:      98567  MISS:         28
cpu0_STLB LOAD      ACCESS:      34419  HIT:      34396  MISS:         23
cpu0_STLB RFO       ACCESS:      64176  HIT:      64171  MISS:          5
cpu0_STLB PREFETCH  ACCESS:          0  HIT:          0  MISS:          0
cpu0_STLB WRITEBACK ACCESS:          0  HIT:          0  MISS:          0
cpu0_L1D TOTAL     ACCESS:  510792179  HIT:  504662329  MISS:    6129850
cpu0_L1D LOAD      ACCESS:  446877482  HIT:  444740116  MISS:    2137366
cpu0_L1D RFO       ACCESS:   63914669  HIT:   59922213  MISS:    3992456
cpu0_L1D PREFETCH  ACCESS:          0  HIT:          0  MISS:          0
cpu0_L1D WRITEBACK ACCESS:          0  HIT:          0  MISS:          0
cpu0_L2C TOTAL     ACCESS:   10106893  HIT:    5748475  MISS:    4358418
cpu0_L2C LOAD      ACCESS:    2137376  HIT:    1767695  MISS:     369681
cpu0_L2C RFO       ACCESS:    3992456  HIT:       4170  MISS:    3988286
cpu0_L2C PREFETCH  ACCESS:          0  HIT:          0  MISS:          0
cpu0_L2C WRITEBACK ACCESS:    3977033  HIT:    3976610  MISS:        423
LLC TOTAL     ACCESS:    8331577  HIT:    6588682  MISS:    1742895
LLC LOAD      ACCESS:     369676  HIT:     323975  MISS:      45701
LLC RFO       ACCESS:    3988281  HIT:    2291137  MISS:    1697144
LLC PREFETCH  ACCESS:          0  HIT:          0  MISS:          0
LLC WRITEBACK ACCESS:    3973592  HIT:    3973549  MISS:         43
Finished CPU 0 instructions: 1500000003 cycles: 634570010 cumulative IPC: 2.36381 (Simulation time: 18 hr 10 min 20 sec) 

ChampSim completed all CPUs

Region of Interest Statistics

CPU 0 cumulative IPC: 2.36381 instructions: 1500000003 cycles: 634570010
cpu0_DTLB TOTAL     ACCESS:  552024251  HIT:  551925657  MISS:      98594
cpu0_DTLB LOAD      ACCESS:  441038358  HIT:  441003940  MISS:      34418
cpu0_DTLB RFO       ACCESS:  110985893  HIT:  110921717  MISS:      64176
cpu0_DTLB PREFETCH  ACCESS:          0  HIT:          0  MISS:          0
cpu0_DTLB WRITEBACK ACCESS:          0  HIT:          0  MISS:          0
cpu0_DTLB TRANSLATION ACCESS:          0  HIT:          0  MISS:          0
cpu0_DTLB PREFETCH  REQUESTED:          0  ISSUED:          0  USEFUL:          0  USELESS:          0
cpu0_DTLB AVERAGE MISS LATENCY: 9.08718 cycles
cpu0_ITLB TOTAL     ACCESS:   25408519  HIT:   25408518  MISS:          1
cpu0_ITLB LOAD      ACCESS:   25408519  HIT:   25408518  MISS:          1
cpu0_ITLB RFO       ACCESS:          0  HIT:          0  MISS:          0
cpu0_ITLB PREFETCH  ACCESS:          0  HIT:          0  MISS:          0
cpu0_ITLB WRITEBACK ACCESS:          0  HIT:          0  MISS:          0
cpu0_ITLB TRANSLATION ACCESS:          0  HIT:          0  MISS:          0
cpu0_ITLB PREFETCH  REQUESTED:          0  ISSUED:          0  USEFUL:          0  USELESS:          0
cpu0_ITLB AVERAGE MISS LATENCY: 411 cycles
cpu0_L1I TOTAL     ACCESS:    1148544  HIT:    1148530  MISS:         14
cpu0_L1I LOAD      ACCESS:    1148544  HIT:    1148530  MISS:         14
cpu0_L1I RFO       ACCESS:          0  HIT:          0  MISS:          0
cpu0_L1I PREFETCH  ACCESS:          0  HIT:          0  MISS:          0
cpu0_L1I WRITEBACK ACCESS:          0  HIT:          0  MISS:          0
cpu0_L1I TRANSLATION ACCESS:          0  HIT:          0  MISS:          0
cpu0_L1I PREFETCH  REQUESTED:          0  ISSUED:          0  USEFUL:          0  USELESS:          0
cpu0_L1I AVERAGE MISS LATENCY: 243.857 cycles
cpu0_STLB TOTAL     ACCESS:      98595  HIT:      98567  MISS:         28
cpu0_STLB LOAD      ACCESS:      34419  HIT:      34396  MISS:         23
cpu0_STLB RFO       ACCESS:      64176  HIT:      64171  MISS:          5
cpu0_STLB PREFETCH  ACCESS:          0  HIT:          0  MISS:          0
cpu0_STLB WRITEBACK ACCESS:          0  HIT:          0  MISS:          0
cpu0_STLB TRANSLATION ACCESS:          0  HIT:          0  MISS:          0
cpu0_STLB PREFETCH  REQUESTED:          0  ISSUED:          0  USEFUL:          0  USELESS:          0
cpu0_STLB AVERAGE MISS LATENCY: 299.5 cycles
cpu0_L1D TOTAL     ACCESS:  510792181  HIT:  504662331  MISS:    6129850
cpu0_L1D LOAD      ACCESS:  446877484  HIT:  444740118  MISS:    2137366
cpu0_L1D RFO       ACCESS:   63914669  HIT:   59922213  MISS:    3992456
cpu0_L1D PREFETCH  ACCESS:          0  HIT:          0  MISS:          0
cpu0_L1D WRITEBACK ACCESS:          0  HIT:          0  MISS:          0
cpu0_L1D TRANSLATION ACCESS:         28  HIT:          0  MISS:         28
cpu0_L1D PREFETCH  REQUESTED:          0  ISSUED:          0  USEFUL:          0  USELESS:          0
cpu0_L1D AVERAGE MISS LATENCY: 240.098 cycles
cpu0_L2C TOTAL     ACCESS:   10106893  HIT:    5748475  MISS:    4358418
cpu0_L2C LOAD      ACCESS:    2137376  HIT:    1767695  MISS:     369681
cpu0_L2C RFO       ACCESS:    3992456  HIT:       4170  MISS:    3988286
cpu0_L2C PREFETCH  ACCESS:          0  HIT:          0  MISS:          0
cpu0_L2C WRITEBACK ACCESS:    3977033  HIT:    3976610  MISS:        423
cpu0_L2C TRANSLATION ACCESS:         28  HIT:          0  MISS:         28
cpu0_L2C PREFETCH  REQUESTED:          0  ISSUED:          0  USEFUL:          0  USELESS:          0
cpu0_L2C AVERAGE MISS LATENCY: 322.202 cycles
LLC TOTAL     ACCESS:    8331577  HIT:    6588682  MISS:    1742895
LLC LOAD      ACCESS:     369676  HIT:     323975  MISS:      45701
LLC RFO       ACCESS:    3988281  HIT:    2291137  MISS:    1697144
LLC PREFETCH  ACCESS:          0  HIT:          0  MISS:          0
LLC WRITEBACK ACCESS:    3973592  HIT:    3973549  MISS:         43
LLC TRANSLATION ACCESS:         28  HIT:         21  MISS:          7
LLC PREFETCH  REQUESTED:          0  ISSUED:          0  USEFUL:          0  USELESS:          0
LLC AVERAGE MISS LATENCY: 753.213 cycles
~~~~~~~~~~Reuse Distance Profiler output~~~~~~~~~~
0	0	0
1	0	0
2	0	0
3	0	0
4	0	0
5	0	0
6	0	0
7	0	0
8	0	0
9	0	0
10	0	0
11	0	0
12	0	0
13	0	0
14	0	0
15	0	0
16	0	0
17	0	0
18	0	0
19	0	0
20	0	0
21	0	0
22	0	0
23	0	0
24	0	0
25	0	0
26	0	0
27	0	0
28	0	0
29	0	0
30	0	0
31	0	0
32	0	0
33	0	0
34	0	0
35	0	0
36	0	0
37	0	0
38	0	0
39	0	0
40	0	0
41	0	0
42	0	0
43	0	0
44	0	0
45	0	0
46	0	0
47	0	0
48	0	0
49	0	0
50	0	0
51	0	0
52	0	0
53	0	0
54	0	0
55	0	0
56	0	0
57	0	0
58	0	0
59	0	0
60	0	0
61	0	0
62	0	0
63	0	0
64	0	0
66	0	0
68	0	0
70	0	0
72	0	0
74	0	0
76	0	0
78	0	0
80	0	0
82	0	0
84	0	0
86	0	0
88	0	0
90	0	0
92	0	0
94	0	0
96	0	0
98	0	0
100	0	0
102	0	0
104	0	0
106	0	0
108	0	0
110	0	0
112	0	0
114	0	0
116	0	0
118	0	0
120	0	0
122	0	0
124	0	0
126	0	0
128	0	0
132	0	0
136	0	0
140	0	0
144	0	0
148	0	0
152	0	0
156	0	0
160	0	0
164	0	0
168	0	0
172	0	0
176	0	0
180	0	0
184	0	0
188	0	0
192	0	0
196	0	0
200	0	0
204	0	0
208	0	0
212	0	0
216	0	0
220	0	0
224	0	0
228	0	0
232	0	0
236	0	0
240	0	0
244	0	0
248	0	0
252	0	0
256	0	0
264	0	0
272	0	0
280	0	0
288	0	0
296	0	0
304	0	0
312	0	0
320	0	0
328	0	0
336	0	0
344	0	0
352	0	0
360	0	0
368	0	0
376	0	0
384	0	0
392	0	0
400	0	0
408	0	0
416	0	0
424	0	0
432	0	0
440	0	0
448	0	0
456	0	0
464	0	0
472	0	0
480	0	0
488	0	0
496	0	0
504	0	0
512	0	0
528	0	0
544	0	0
560	0	0
576	0	0
592	0	0
608	0	0
624	0	0
640	0	0
656	0	0
672	0	0
688	0	0
704	0	0
720	0	0
736	0	0
752	0	0
768	0	0
784	0	0
800	0	0
816	0	0
832	0	0
848	0	0
864	0	0
880	0	0
896	0	0
912	0	0
928	0	0
944	0	0
960	0	0
976	0	0
992	0	0
1008	0	0
1024	0	0
1056	0	0
1088	0	0
1120	0	0
1152	0	0
1184	0	0
1216	0	0
1248	0	0
1280	0	0
1312	0	0
1344	0	0
1376	0	0
1408	0	0
1440	0	0
1472	0	0
1504	0	0
1536	0	0
1568	0	0
1600	0	0
1632	0	0
1664	0	0
1696	0	0
1728	0	0
1760	0	0
1792	0	0
1824	0	0
1856	0	0
1888	0	0
1920	0	0
1952	0	0
1984	0	0
2016	0	0
2048	0	0
2112	0	0
2176	0	0
2240	0	0
2304	0	0
2368	0	0
2432	0	0
2496	0	0
2560	0	0
2624	0	0
2688	0	0
2752	0	0
2816	0	0
2880	0	0
2944	0	0
3008	0	0
3072	0	0
3136	0	0
3200	0	0
3264	0	0
3328	0	0
3392	0	0
3456	0	0
3520	0	0
3584	0	0
3648	0	0
3712	0	0
3776	0	0
3840	0	0
3904	0	0
3968	0	0
4032	0	0
4096	0	0
4224	0	0
4352	0	0
4480	0	0
4608	0	0
4736	0	0
4864	0	0
4992	0	0
5120	0	0
5248	0	0
5376	0	0
5504	0	0
5632	0	0
5760	0	0
5888	0	0
6016	0	0
6144	0	0
6272	0	0
6400	0	0
6528	0	0
6656	0	0
6784	0	0
6912	0	0
7040	0	0
7168	0	0
7296	0	0
7424	0	0
7552	0	0
7680	0	0
7808	0	0
7936	0	0
8064	0	0
8192	0	0
8448	0	0
8704	0	0
8960	0	0
9216	0	0
9472	0	0
9728	0	0
9984	0	0
10240	0	0
10496	0	0
10752	0	0
11008	0	0
11264	0	0
11520	0	0
11776	0	0
12032	0	0
12288	0	0
12544	0	0
12800	0	0
13056	0	0
13312	0	0
13568	0	0
13824	0	0
14080	0	0
14336	0	0
14592	0	0
14848	0	0
15104	0	0
15360	0	0
15616	0	0
15872	0	0
16128	0	0
16384	0	0
16896	0	0
17408	0	0
17920	0	0
18432	0	0
18944	0	0
19456	0	0
19968	0	0
20480	0	0
20992	0	0
21504	0	0
22016	0	0
22528	0	0
23040	0	0
23552	0	0
24064	0	0
24576	0	0
25088	0	0
25600	0	0
26112	0	0
26624	0	0
27136	0	0
27648	0	0
28160	0	0
28672	0	0
29184	0	0
29696	0	0
30208	0	0
30720	0	0
31232	0	0
31744	0	0
32256	0	0
32768	0	0
33792	0	0
34816	0	0
35840	0	0
36864	0	0
37888	0	0
38912	0	0
39936	0	0
40960	0	0
41984	0	0
43008	0	0
44032	0	0
45056	0	0
46080	0	0
47104	0	0
48128	0	0
49152	0	0
50176	0	0
51200	0	0
52224	0	0
53248	0	0
54272	0	0
55296	0	0
56320	0	0
57344	0	0
58368	0	0
59392	0	0
60416	0	0
61440	0	0
62464	0	0
63488	0	0
64512	0	0
65536	0	0
67584	0	0
69632	0	0
71680	0	0
73728	0	0
75776	0	0
77824	0	0
79872	0	0
81920	0	0
83968	0	0
86016	0	0
88064	0	0
90112	0	0
92160	0	0
94208	0	0
96256	0	0
98304	0	0
100352	0	0
102400	0	0
104448	0	0
106496	0	0
108544	0	0
110592	0	0
112640	0	0
114688	0	0
116736	0	0
118784	0	0
120832	0	0
122880	0	0
124928	0	0
126976	0	0
129024	0	0
131072	0	0
135168	0	0
139264	0	0
143360	0	0
147456	0	0
151552	0	0
155648	0	0
159744	0	0
163840	0	0
167936	0	0
172032	0	0
176128	0	0
180224	0	0
184320	0	0
188416	0	0
192512	0	0
196608	0	0
200704	0	0
204800	0	0
208896	0	0
212992	0	0
217088	0	0
221184	0	0
225280	0	0
229376	0	0
233472	0	0
237568	0	0
241664	0	0
245760	0	0
249856	0	0
253952	0	0
258048	0	0
262144	0	0
270336	0	0
278528	0	0
286720	0	0
294912	0	0
303104	0	0
311296	0	0
319488	0	0
327680	0	0
335872	0	0
344064	0	0
352256	0	0
360448	0	0
368640	0	0
376832	0	0
385024	0	0
393216	0	0
401408	0	0
409600	0	0
417792	0	0
425984	0	0
434176	0	0
442368	0	0
450560	0	0
458752	0	0
466944	0	0
475136	0	0
483328	0	0
491520	0	0
499712	0	0
507904	0	0
516096	0	0
524288	0	0
540672	0	0
557056	0	0
573440	0	0
589824	0	0
606208	0	0
622592	0	0
638976	0	0
655360	0	0
671744	0	0
688128	0	0
704512	0	0
720896	0	0
737280	0	0
753664	0	0
770048	0	0
786432	0	0
802816	0	0
819200	0	0
835584	0	0
851968	0	0
868352	0	0
884736	0	0
901120	0	0
917504	0	0
933888	0	0
950272	0	0
966656	0	0
983040	0	0
999424	0	0
1015808	0	0
1032192	0	0
1048576	0	0
1081344	0	0
1114112	0	0
1146880	0	0
1179648	0	0
1212416	0	0
1245184	0	0
1277952	0	0
1310720	0	0
1343488	0	0
1376256	0	0
1409024	0	0
1441792	0	0
1474560	0	0
1507328	0	0
1540096	0	0
1572864	0	0
1605632	0	0
1638400	0	0
1671168	0	0
1703936	0	0
1736704	0	0
1769472	0	0
1802240	0	0
1835008	0	0
1867776	0	0
1900544	0	0
1933312	0	0
1966080	0	0
1998848	0	0
2031616	0	0
2064384	0	0
2097152	0	0
2162688	0	0
2228224	0	0
2293760	0	0
2359296	0	0
2424832	0	0
2490368	0	0
2555904	0	0
2621440	0	0
2686976	0	0
2752512	0	0
2818048	0	0
2883584	0	0
2949120	0	0
3014656	0	0
3080192	0	0
3145728	0	0
3211264	0	0
3276800	0	0
3342336	0	0
3407872	0	0
3473408	0	0
3538944	0	0
3604480	0	0
3670016	0	0
3735552	0	0
3801088	0	0
3866624	0	0
3932160	0	0
3997696	0	0
4063232	0	0
4128768	0	0
4194304	0	0
4325376	0	0
4456448	0	0
4587520	0	0
4718592	0	0
4849664	0	0
4980736	0	0
5111808	0	0
5242880	0	0
5373952	0	0
5505024	0	0
5636096	0	0
5767168	0	0
5898240	0	0
6029312	0	0
6160384	0	0
6291456	0	0
6422528	0	0
6553600	0	0
6684672	0	0
6815744	0	0
6946816	0	0
7077888	0	0
7208960	0	0
7340032	0	0
7471104	0	0
7602176	0	0
7733248	0	0
7864320	0	0
7995392	0	0
8126464	0	0
8257536	0	0
8388608	0	0
8650752	0	0
8912896	0	0
9175040	0	0
9437184	0	0
9699328	0	0
9961472	0	0
10223616	0	0
10485760	0	0
10747904	0	0
11010048	0	0
11272192	0	0
11534336	0	0
11796480	0	0
12058624	0	0
12320768	0	0
12582912	0	0
12845056	0	0
13107200	0	0
13369344	0	0
13631488	0	0
13893632	0	0
14155776	0	0
14417920	0	0
14680064	0	0
14942208	0	0
15204352	0	0
15466496	0	0
15728640	0	0
15990784	0	0
16252928	0	0
16515072	0	0
16777216	0	0
17301504	0	0
17825792	0	0
18350080	0	0
18874368	0	0
19398656	0	0
19922944	0	0
20447232	0	0
20971520	0	0
21495808	0	0
22020096	0	0
22544384	0	0
23068672	0	0
23592960	0	0
24117248	0	0
24641536	0	0
25165824	0	0
25690112	0	0
26214400	0	0
26738688	0	0
27262976	0	0
27787264	0	0
28311552	0	0
28835840	0	0
29360128	0	0
29884416	0	0
30408704	0	0
30932992	0	0
31457280	0	0
31981568	0	0
32505856	0	0
33030144	0	0
33554432	0	0
34603008	0	0
35651584	0	0
36700160	0	0
37748736	0	0
38797312	0	0
39845888	0	0
40894464	0	0
41943040	0	0
42991616	0	0
44040192	0	0
45088768	0	0
46137344	0	0
47185920	0	0
48234496	0	0
49283072	0	0
50331648	0	0
51380224	0	0
52428800	0	0
53477376	0	0
54525952	0	0
55574528	0	0
56623104	0	0
57671680	0	0
58720256	0	0
59768832	0	0
60817408	0	0
61865984	0	0
62914560	0	0
63963136	0	0
65011712	0	0
66060288	0	0
67108864	0	0
69206016	0	0
71303168	0	0
73400320	0	0
75497472	0	0
77594624	0	0
79691776	0	0
81788928	0	0
83886080	0	0
85983232	0	0
88080384	0	0
90177536	0	0
92274688	0	0
94371840	0	0
96468992	0	0
98566144	0	0
100663296	0	0
102760448	0	0
104857600	0	0
106954752	0	0
109051904	0	0
111149056	0	0
113246208	0	0
115343360	0	0
117440512	0	0
119537664	0	0
121634816	0	0
123731968	0	0
125829120	0	0
127926272	0	0
130023424	0	0
132120576	0	0
134217728	0	0
138412032	0	0
142606336	0	0
146800640	0	0
150994944	0	0
155189248	0	0
159383552	0	0
163577856	0	0
167772160	0	0
171966464	0	0
176160768	0	0
180355072	0	0
184549376	0	0
188743680	0	0
192937984	0	0
197132288	0	0
201326592	0	0
205520896	0	0
209715200	0	0
213909504	0	0
218103808	0	0
222298112	0	0
226492416	0	0
230686720	0	0
234881024	0	0
239075328	0	0
243269632	0	0
247463936	0	0
251658240	0	0
255852544	0	0
260046848	0	0
264241152	0	0
268435456	0	0
276824064	0	0
285212672	0	0
293601280	0	0
301989888	0	0
310378496	0	0
318767104	0	0
327155712	0	0
335544320	0	0
343932928	0	0
352321536	0	0
360710144	0	0
369098752	0	0
377487360	0	0
385875968	0	0
394264576	0	0
402653184	0	0
411041792	0	0
419430400	0	0
427819008	0	0
436207616	0	0
444596224	0	0
452984832	0	0
461373440	0	0
469762048	0	0
478150656	0	0
486539264	0	0
494927872	0	0
503316480	0	0
511705088	0	0
520093696	0	0
528482304	0	0
536870912	0	0
553648128	0	0
570425344	0	0
587202560	0	0
603979776	0	0
620756992	0	0
637534208	0	0
654311424	0	0
671088640	0	0
687865856	0	0
704643072	0	0
721420288	0	0
738197504	0	0
754974720	0	0
771751936	0	0
788529152	0	0
805306368	0	0
822083584	0	0
838860800	0	0
855638016	0	0
872415232	0	0
889192448	0	0
905969664	0	0
922746880	0	0
939524096	0	0
956301312	0	0
973078528	0	0
989855744	0	0
1006632960	0	0
1023410176	0	0
1040187392	0	0
1056964608	0	0
1073741824	0	0
1107296256	0	0
1140850688	0	0
1174405120	0	0
1207959552	0	0
1241513984	0	0
1275068416	0	0
1308622848	0	0
1342177280	0	0
1375731712	0	0
1409286144	0	0
1442840576	0	0
1476395008	0	0
1509949440	0	0
1543503872	0	0
1577058304	0	0
1610612736	0	0
1644167168	0	0
1677721600	0	0
1711276032	0	0
1744830464	0	0
1778384896	0	0
1811939328	0	0
1845493760	0	0
1879048192	0	0
1912602624	0	0
1946157056	0	0
1979711488	0	0
2013265920	0	0
2046820352	0	0
2080374784	0	0
2113929216	0	0
2147483648	0	0
2214592512	0	0
2281701376	0	0
2348810240	0	0
2415919104	0	0
2483027968	0	0
2550136832	0	0
2617245696	0	0
2684354560	0	0
2751463424	0	0
2818572288	0	0
2885681152	0	0
2952790016	0	0
3019898880	0	0
3087007744	0	0
3154116608	0	0
3221225472	0	0
3288334336	0	0
3355443200	0	0
3422552064	0	0
3489660928	0	0
3556769792	0	0
3623878656	0	0
3690987520	0	0
3758096384	0	0
3825205248	0	0
3892314112	0	0
3959422976	0	0
4026531840	0	0
4093640704	0	0
4160749568	0	0
4227858432	0	0
~~~~~~~~~~Reuse Distance Profiler output end~~~~~~~~~~

Sampler size:0

DRAM Statistics
 CHANNEL 0
 RQ ROW_BUFFER_HIT:      19004  ROW_BUFFER_MISS:    1723410
 DBUS AVG_CONGESTED_CYCLE:     3.9908
 WQ ROW_BUFFER_HIT:     129070  ROW_BUFFER_MISS:    1551995  FULL:          0


CPU 0 Branch Prediction Accuracy: 99.1788% MPKI: 0.362912 Average ROB Occupancy at Mispredict: 154.562
Branch type MPKI
BRANCH_DIRECT_JUMP: 6.66667e-06
BRANCH_INDIRECT: 0.000367333
BRANCH_CONDITIONAL: 0.362516
BRANCH_DIRECT_CALL: 3.33333e-06
BRANCH_INDIRECT_CALL: 1.53333e-05
BRANCH_RETURN: 3.33333e-06

