
*** ChampSim Multicore Out-of-Order Simulator ***

Warmup Instructions: 50000000
Simulation Instructions: 1500000000
Number of CPUs: 1
Off-chip DRAM Size: 4 GiB Channels: 1 Width: 64-bit Data Rate: 3200 MT/s

VirtualMemory physical capacity: 8588881920 num_ppages: 2096895
VirtualMemory page size: 4096 log2_page_size: 12

CPU 0 runs /s/traces/champsim_traces/459.GemsFDTD-1211B.champsimtrace.xz
CPU 0 Bimodal branch predictor
Basic BTB sets: 1024 ways: 8 indirect buffer size: 4096 RAS size: 64
Initializing LRU.
Initializing LRU.
Initializing LRU.
Initializing LRU.
Initializing rdLRU.
Initializing LRU.
Initializing LRU.
Heartbeat CPU 0 instructions: 2000002 cycles: 1091269 heartbeat IPC: 1.83273 cumulative IPC: 1.83273 (Simulation time: 0 hr 2 min 51 sec) 
Heartbeat CPU 0 instructions: 4000002 cycles: 2182394 heartbeat IPC: 1.83297 cumulative IPC: 1.83285 (Simulation time: 0 hr 5 min 38 sec) 
Heartbeat CPU 0 instructions: 6000000 cycles: 3273528 heartbeat IPC: 1.83295 cumulative IPC: 1.83288 (Simulation time: 0 hr 8 min 27 sec) 
Heartbeat CPU 0 instructions: 8000000 cycles: 4364666 heartbeat IPC: 1.83295 cumulative IPC: 1.8329 (Simulation time: 0 hr 11 min 10 sec) 
Heartbeat CPU 0 instructions: 10000004 cycles: 5455809 heartbeat IPC: 1.83294 cumulative IPC: 1.83291 (Simulation time: 0 hr 13 min 38 sec) 
Heartbeat CPU 0 instructions: 12000000 cycles: 6546928 heartbeat IPC: 1.83298 cumulative IPC: 1.83292 (Simulation time: 0 hr 16 min 28 sec) 
Heartbeat CPU 0 instructions: 14000003 cycles: 7638065 heartbeat IPC: 1.83295 cumulative IPC: 1.83293 (Simulation time: 0 hr 19 min 15 sec) 
Heartbeat CPU 0 instructions: 16000004 cycles: 8729225 heartbeat IPC: 1.83291 cumulative IPC: 1.83292 (Simulation time: 0 hr 22 min 0 sec) 
Heartbeat CPU 0 instructions: 18000003 cycles: 9820368 heartbeat IPC: 1.83294 cumulative IPC: 1.83293 (Simulation time: 0 hr 24 min 45 sec) 
Heartbeat CPU 0 instructions: 20000000 cycles: 10911480 heartbeat IPC: 1.83299 cumulative IPC: 1.83293 (Simulation time: 0 hr 27 min 26 sec) 
Heartbeat CPU 0 instructions: 22000001 cycles: 12002625 heartbeat IPC: 1.83294 cumulative IPC: 1.83293 (Simulation time: 0 hr 30 min 9 sec) 
Heartbeat CPU 0 instructions: 24000001 cycles: 13093759 heartbeat IPC: 1.83296 cumulative IPC: 1.83293 (Simulation time: 0 hr 32 min 49 sec) 
Heartbeat CPU 0 instructions: 26000000 cycles: 14184895 heartbeat IPC: 1.83295 cumulative IPC: 1.83294 (Simulation time: 0 hr 35 min 30 sec) 
Heartbeat CPU 0 instructions: 28000001 cycles: 15276018 heartbeat IPC: 1.83297 cumulative IPC: 1.83294 (Simulation time: 0 hr 38 min 7 sec) 
Heartbeat CPU 0 instructions: 30000003 cycles: 16367160 heartbeat IPC: 1.83294 cumulative IPC: 1.83294 (Simulation time: 0 hr 40 min 47 sec) 
Heartbeat CPU 0 instructions: 32000003 cycles: 17458291 heartbeat IPC: 1.83296 cumulative IPC: 1.83294 (Simulation time: 0 hr 43 min 28 sec) 
Heartbeat CPU 0 instructions: 34000000 cycles: 18549433 heartbeat IPC: 1.83294 cumulative IPC: 1.83294 (Simulation time: 0 hr 46 min 4 sec) 
Heartbeat CPU 0 instructions: 36000001 cycles: 19640547 heartbeat IPC: 1.83299 cumulative IPC: 1.83294 (Simulation time: 0 hr 48 min 41 sec) 
Heartbeat CPU 0 instructions: 38000000 cycles: 20731693 heartbeat IPC: 1.83293 cumulative IPC: 1.83294 (Simulation time: 0 hr 51 min 18 sec) 
Heartbeat CPU 0 instructions: 40000000 cycles: 21854955 heartbeat IPC: 1.78053 cumulative IPC: 1.83025 (Simulation time: 0 hr 54 min 5 sec) 
Heartbeat CPU 0 instructions: 42000000 cycles: 23081020 heartbeat IPC: 1.63123 cumulative IPC: 1.81968 (Simulation time: 0 hr 57 min 6 sec) 
Heartbeat CPU 0 instructions: 44000000 cycles: 24229256 heartbeat IPC: 1.7418 cumulative IPC: 1.81599 (Simulation time: 0 hr 59 min 56 sec) 
Heartbeat CPU 0 instructions: 46000000 cycles: 25321504 heartbeat IPC: 1.83109 cumulative IPC: 1.81664 (Simulation time: 1 hr 2 min 38 sec) 
Heartbeat CPU 0 instructions: 48000001 cycles: 26413748 heartbeat IPC: 1.83109 cumulative IPC: 1.81724 (Simulation time: 1 hr 5 min 34 sec) 
Heartbeat CPU 0 instructions: 50000001 cycles: 27505989 heartbeat IPC: 1.8311 cumulative IPC: 1.81779 (Simulation time: 1 hr 8 min 15 sec) 

Warmup complete CPU 0 instructions: 50000001 cycles: 27505989 (Simulation time: 1 hr 8 min 15 sec) 

Heartbeat CPU 0 instructions: 52000000 cycles: 30373125 heartbeat IPC: 0.69756 cumulative IPC: 0.69756 (Simulation time: 1 hr 12 min 9 sec) 

Region of Interest Statistics
cpu0_DTLB TOTAL     ACCESS:     911758  HIT:     896483  MISS:      15275
cpu0_DTLB LOAD      ACCESS:     825360  HIT:     811502  MISS:      13858
cpu0_DTLB RFO       ACCESS:      86398  HIT:      84981  MISS:       1417
cpu0_DTLB PREFETCH  ACCESS:          0  HIT:          0  MISS:          0
cpu0_DTLB WRITEBACK ACCESS:          0  HIT:          0  MISS:          0
cpu0_ITLB TOTAL     ACCESS:      37988  HIT:      37988  MISS:          0
cpu0_ITLB LOAD      ACCESS:      37988  HIT:      37988  MISS:          0
cpu0_ITLB RFO       ACCESS:          0  HIT:          0  MISS:          0
cpu0_ITLB PREFETCH  ACCESS:          0  HIT:          0  MISS:          0
cpu0_ITLB WRITEBACK ACCESS:          0  HIT:          0  MISS:          0
cpu0_L1I TOTAL     ACCESS:     223801  HIT:     223801  MISS:          0
cpu0_L1I LOAD      ACCESS:     223801  HIT:     223801  MISS:          0
cpu0_L1I RFO       ACCESS:          0  HIT:          0  MISS:          0
cpu0_L1I PREFETCH  ACCESS:          0  HIT:          0  MISS:          0
cpu0_L1I WRITEBACK ACCESS:          0  HIT:          0  MISS:          0
cpu0_STLB TOTAL     ACCESS:      15275  HIT:      13124  MISS:       2151
cpu0_STLB LOAD      ACCESS:      13858  HIT:      11707  MISS:       2151
cpu0_STLB RFO       ACCESS:       1417  HIT:       1417  MISS:          0
cpu0_STLB PREFETCH  ACCESS:          0  HIT:          0  MISS:          0
cpu0_STLB WRITEBACK ACCESS:          0  HIT:          0  MISS:          0
cpu0_L1D TOTAL     ACCESS:    1069091  HIT:    1050838  MISS:      18253
cpu0_L1D LOAD      ACCESS:     913570  HIT:     895335  MISS:      18235
cpu0_L1D RFO       ACCESS:     153373  HIT:     153373  MISS:          0
cpu0_L1D PREFETCH  ACCESS:          0  HIT:          0  MISS:          0
cpu0_L1D WRITEBACK ACCESS:          0  HIT:          0  MISS:          0
cpu0_L2C TOTAL     ACCESS:      26826  HIT:       9167  MISS:      17659
cpu0_L2C LOAD      ACCESS:      18235  HIT:        578  MISS:      17657
cpu0_L2C RFO       ACCESS:          0  HIT:          0  MISS:          0
cpu0_L2C PREFETCH  ACCESS:          0  HIT:          0  MISS:          0
cpu0_L2C WRITEBACK ACCESS:       8573  HIT:       8573  MISS:          0
LLC TOTAL     ACCESS:      26311  HIT:      12095  MISS:      14216
LLC LOAD      ACCESS:      17657  HIT:       3441  MISS:      14216
LLC RFO       ACCESS:          0  HIT:          0  MISS:          0
LLC PREFETCH  ACCESS:          0  HIT:          0  MISS:          0
LLC WRITEBACK ACCESS:       8652  HIT:       8652  MISS:          0
Heartbeat CPU 0 instructions: 54000004 cycles: 33246355 heartbeat IPC: 0.696082 cumulative IPC: 0.69682 (Simulation time: 1 hr 16 min 17 sec) 

Region of Interest Statistics
cpu0_DTLB TOTAL     ACCESS:    1824187  HIT:    1794358  MISS:      29829
cpu0_DTLB LOAD      ACCESS:    1651403  HIT:    1624539  MISS:      26864
cpu0_DTLB RFO       ACCESS:     172784  HIT:     169819  MISS:       2965
cpu0_DTLB PREFETCH  ACCESS:          0  HIT:          0  MISS:          0
cpu0_DTLB WRITEBACK ACCESS:          0  HIT:          0  MISS:          0
cpu0_ITLB TOTAL     ACCESS:      76004  HIT:      76004  MISS:          0
cpu0_ITLB LOAD      ACCESS:      76004  HIT:      76004  MISS:          0
cpu0_ITLB RFO       ACCESS:          0  HIT:          0  MISS:          0
cpu0_ITLB PREFETCH  ACCESS:          0  HIT:          0  MISS:          0
cpu0_ITLB WRITEBACK ACCESS:          0  HIT:          0  MISS:          0
cpu0_L1I TOTAL     ACCESS:     447677  HIT:     447677  MISS:          0
cpu0_L1I LOAD      ACCESS:     447677  HIT:     447677  MISS:          0
cpu0_L1I RFO       ACCESS:          0  HIT:          0  MISS:          0
cpu0_L1I PREFETCH  ACCESS:          0  HIT:          0  MISS:          0
cpu0_L1I WRITEBACK ACCESS:          0  HIT:          0  MISS:          0
cpu0_STLB TOTAL     ACCESS:      29829  HIT:      25519  MISS:       4310
cpu0_STLB LOAD      ACCESS:      26864  HIT:      22554  MISS:       4310
cpu0_STLB RFO       ACCESS:       2965  HIT:       2965  MISS:          0
cpu0_STLB PREFETCH  ACCESS:          0  HIT:          0  MISS:          0
cpu0_STLB WRITEBACK ACCESS:          0  HIT:          0  MISS:          0
cpu0_L1D TOTAL     ACCESS:    2138936  HIT:    2102415  MISS:      36521
cpu0_L1D LOAD      ACCESS:    1827887  HIT:    1791403  MISS:      36484
cpu0_L1D RFO       ACCESS:     306750  HIT:     306750  MISS:          0
cpu0_L1D PREFETCH  ACCESS:          0  HIT:          0  MISS:          0
cpu0_L1D WRITEBACK ACCESS:          0  HIT:          0  MISS:          0
cpu0_L2C TOTAL     ACCESS:      53693  HIT:      18419  MISS:      35274
cpu0_L2C LOAD      ACCESS:      36484  HIT:       1214  MISS:      35270
cpu0_L2C RFO       ACCESS:          0  HIT:          0  MISS:          0
cpu0_L2C PREFETCH  ACCESS:          0  HIT:          0  MISS:          0
cpu0_L2C WRITEBACK ACCESS:      17172  HIT:      17172  MISS:          0
LLC TOTAL     ACCESS:      52493  HIT:      24050  MISS:      28443
LLC LOAD      ACCESS:      35270  HIT:       6828  MISS:      28442
LLC RFO       ACCESS:          0  HIT:          0  MISS:          0
LLC PREFETCH  ACCESS:          0  HIT:          0  MISS:          0
LLC WRITEBACK ACCESS:      17219  HIT:      17219  MISS:          0
Heartbeat CPU 0 instructions: 56000004 cycles: 36100844 heartbeat IPC: 0.700651 cumulative IPC: 0.698092 (Simulation time: 1 hr 20 min 17 sec) 

Region of Interest Statistics
cpu0_DTLB TOTAL     ACCESS:    2738868  HIT:    2698588  MISS:      40280
cpu0_DTLB LOAD      ACCESS:    2479652  HIT:    2443215  MISS:      36437
cpu0_DTLB RFO       ACCESS:     259216  HIT:     255373  MISS:       3843
cpu0_DTLB PREFETCH  ACCESS:          0  HIT:          0  MISS:          0
cpu0_DTLB WRITEBACK ACCESS:          0  HIT:          0  MISS:          0
cpu0_ITLB TOTAL     ACCESS:     113989  HIT:     113989  MISS:          0
cpu0_ITLB LOAD      ACCESS:     113989  HIT:     113989  MISS:          0
cpu0_ITLB RFO       ACCESS:          0  HIT:          0  MISS:          0
cpu0_ITLB PREFETCH  ACCESS:          0  HIT:          0  MISS:          0
cpu0_ITLB WRITEBACK ACCESS:          0  HIT:          0  MISS:          0
cpu0_L1I TOTAL     ACCESS:     671477  HIT:     671477  MISS:          0
cpu0_L1I LOAD      ACCESS:     671477  HIT:     671477  MISS:          0
cpu0_L1I RFO       ACCESS:          0  HIT:          0  MISS:          0
cpu0_L1I PREFETCH  ACCESS:          0  HIT:          0  MISS:          0
cpu0_L1I WRITEBACK ACCESS:          0  HIT:          0  MISS:          0
cpu0_STLB TOTAL     ACCESS:      40280  HIT:      33814  MISS:       6466
cpu0_STLB LOAD      ACCESS:      36437  HIT:      29971  MISS:       6466
cpu0_STLB RFO       ACCESS:       3843  HIT:       3843  MISS:          0
cpu0_STLB PREFETCH  ACCESS:          0  HIT:          0  MISS:          0
cpu0_STLB WRITEBACK ACCESS:          0  HIT:          0  MISS:          0
cpu0_L1D TOTAL     ACCESS:    3208341  HIT:    3153557  MISS:      54784
cpu0_L1D LOAD      ACCESS:    2741772  HIT:    2687043  MISS:      54729
cpu0_L1D RFO       ACCESS:     460119  HIT:     460119  MISS:          0
cpu0_L1D PREFETCH  ACCESS:          0  HIT:          0  MISS:          0
cpu0_L1D WRITEBACK ACCESS:          0  HIT:          0  MISS:          0
cpu0_L2C TOTAL     ACCESS:      80528  HIT:      27632  MISS:      52896
cpu0_L2C LOAD      ACCESS:      54729  HIT:       1838  MISS:      52891
cpu0_L2C RFO       ACCESS:          0  HIT:          0  MISS:          0
cpu0_L2C PREFETCH  ACCESS:          0  HIT:          0  MISS:          0
cpu0_L2C WRITEBACK ACCESS:      25744  HIT:      25744  MISS:          0
LLC TOTAL     ACCESS:      78685  HIT:      36018  MISS:      42667
LLC LOAD      ACCESS:      52891  HIT:      10225  MISS:      42666
LLC RFO       ACCESS:          0  HIT:          0  MISS:          0
LLC PREFETCH  ACCESS:          0  HIT:          0  MISS:          0
LLC WRITEBACK ACCESS:      25789  HIT:      25789  MISS:          0
Heartbeat CPU 0 instructions: 58000004 cycles: 38953162 heartbeat IPC: 0.701184 cumulative IPC: 0.698863 (Simulation time: 1 hr 24 min 19 sec) 

Region of Interest Statistics
cpu0_DTLB TOTAL     ACCESS:    3652546  HIT:    3599920  MISS:      52626
cpu0_DTLB LOAD      ACCESS:    3307016  HIT:    3259226  MISS:      47790
cpu0_DTLB RFO       ACCESS:     345530  HIT:     340694  MISS:       4836
cpu0_DTLB PREFETCH  ACCESS:          0  HIT:          0  MISS:          0
cpu0_DTLB WRITEBACK ACCESS:          0  HIT:          0  MISS:          0
cpu0_ITLB TOTAL     ACCESS:     151983  HIT:     151983  MISS:          0
cpu0_ITLB LOAD      ACCESS:     151983  HIT:     151983  MISS:          0
cpu0_ITLB RFO       ACCESS:          0  HIT:          0  MISS:          0
cpu0_ITLB PREFETCH  ACCESS:          0  HIT:          0  MISS:          0
cpu0_ITLB WRITEBACK ACCESS:          0  HIT:          0  MISS:          0
cpu0_L1I TOTAL     ACCESS:     895335  HIT:     895335  MISS:          0
cpu0_L1I LOAD      ACCESS:     895335  HIT:     895335  MISS:          0
cpu0_L1I RFO       ACCESS:          0  HIT:          0  MISS:          0
cpu0_L1I PREFETCH  ACCESS:          0  HIT:          0  MISS:          0
cpu0_L1I WRITEBACK ACCESS:          0  HIT:          0  MISS:          0
cpu0_STLB TOTAL     ACCESS:      52626  HIT:      44004  MISS:       8622
cpu0_STLB LOAD      ACCESS:      47790  HIT:      39168  MISS:       8622
cpu0_STLB RFO       ACCESS:       4836  HIT:       4836  MISS:          0
cpu0_STLB PREFETCH  ACCESS:          0  HIT:          0  MISS:          0
cpu0_STLB WRITEBACK ACCESS:          0  HIT:          0  MISS:          0
cpu0_L1D TOTAL     ACCESS:    4277521  HIT:    4204475  MISS:      73046
cpu0_L1D LOAD      ACCESS:    3655429  HIT:    3582460  MISS:      72969
cpu0_L1D RFO       ACCESS:     613489  HIT:     613489  MISS:          0
cpu0_L1D PREFETCH  ACCESS:          0  HIT:          0  MISS:          0
cpu0_L1D WRITEBACK ACCESS:          0  HIT:          0  MISS:          0
cpu0_L2C TOTAL     ACCESS:     107390  HIT:      36871  MISS:      70519
cpu0_L2C LOAD      ACCESS:      72969  HIT:       2458  MISS:      70511
cpu0_L2C RFO       ACCESS:          0  HIT:          0  MISS:          0
cpu0_L2C PREFETCH  ACCESS:          0  HIT:          0  MISS:          0
cpu0_L2C WRITEBACK ACCESS:      34344  HIT:      34344  MISS:          0
LLC TOTAL     ACCESS:     104898  HIT:      48012  MISS:      56886
LLC LOAD      ACCESS:      70511  HIT:      13627  MISS:      56884
LLC RFO       ACCESS:          0  HIT:          0  MISS:          0
LLC PREFETCH  ACCESS:          0  HIT:          0  MISS:          0
LLC WRITEBACK ACCESS:      34379  HIT:      34379  MISS:          0
Heartbeat CPU 0 instructions: 60000001 cycles: 41802557 heartbeat IPC: 0.701902 cumulative IPC: 0.699469 (Simulation time: 1 hr 28 min 12 sec) 

Region of Interest Statistics
cpu0_DTLB TOTAL     ACCESS:    4565417  HIT:    4498747  MISS:      66670
cpu0_DTLB LOAD      ACCESS:    4133560  HIT:    4072977  MISS:      60583
cpu0_DTLB RFO       ACCESS:     431857  HIT:     425770  MISS:       6087
cpu0_DTLB PREFETCH  ACCESS:          0  HIT:          0  MISS:          0
cpu0_DTLB WRITEBACK ACCESS:          0  HIT:          0  MISS:          0
cpu0_ITLB TOTAL     ACCESS:     189968  HIT:     189968  MISS:          0
cpu0_ITLB LOAD      ACCESS:     189968  HIT:     189968  MISS:          0
cpu0_ITLB RFO       ACCESS:          0  HIT:          0  MISS:          0
cpu0_ITLB PREFETCH  ACCESS:          0  HIT:          0  MISS:          0
cpu0_ITLB WRITEBACK ACCESS:          0  HIT:          0  MISS:          0
cpu0_L1I TOTAL     ACCESS:    1119243  HIT:    1119243  MISS:          0
cpu0_L1I LOAD      ACCESS:    1119243  HIT:    1119243  MISS:          0
cpu0_L1I RFO       ACCESS:          0  HIT:          0  MISS:          0
cpu0_L1I PREFETCH  ACCESS:          0  HIT:          0  MISS:          0
cpu0_L1I WRITEBACK ACCESS:          0  HIT:          0  MISS:          0
cpu0_STLB TOTAL     ACCESS:      66670  HIT:      55891  MISS:      10779
cpu0_STLB LOAD      ACCESS:      60583  HIT:      49804  MISS:      10779
cpu0_STLB RFO       ACCESS:       6087  HIT:       6087  MISS:          0
cpu0_STLB PREFETCH  ACCESS:          0  HIT:          0  MISS:          0
cpu0_STLB WRITEBACK ACCESS:          0  HIT:          0  MISS:          0
cpu0_L1D TOTAL     ACCESS:    5346537  HIT:    5255237  MISS:      91300
cpu0_L1D LOAD      ACCESS:    4568942  HIT:    4477736  MISS:      91206
cpu0_L1D RFO       ACCESS:     766840  HIT:     766840  MISS:          0
cpu0_L1D PREFETCH  ACCESS:          0  HIT:          0  MISS:          0
cpu0_L1D WRITEBACK ACCESS:          0  HIT:          0  MISS:          0
cpu0_L2C TOTAL     ACCESS:     134222  HIT:      46045  MISS:      88177
cpu0_L2C LOAD      ACCESS:      91206  HIT:       3037  MISS:      88169
cpu0_L2C RFO       ACCESS:          0  HIT:          0  MISS:          0
cpu0_L2C PREFETCH  ACCESS:          0  HIT:          0  MISS:          0
cpu0_L2C WRITEBACK ACCESS:      42922  HIT:      42922  MISS:          0
LLC TOTAL     ACCESS:     131122  HIT:      60015  MISS:      71107
LLC LOAD      ACCESS:      88169  HIT:      17064  MISS:      71105
LLC RFO       ACCESS:          0  HIT:          0  MISS:          0
LLC PREFETCH  ACCESS:          0  HIT:          0  MISS:          0
LLC WRITEBACK ACCESS:      42945  HIT:      42945  MISS:          0
Heartbeat CPU 0 instructions: 62000001 cycles: 44668901 heartbeat IPC: 0.697753 cumulative IPC: 0.699182 (Simulation time: 1 hr 32 min 9 sec) 

Region of Interest Statistics
cpu0_DTLB TOTAL     ACCESS:    5478245  HIT:    5396166  MISS:      82079
cpu0_DTLB LOAD      ACCESS:    4959986  HIT:    4885429  MISS:      74557
cpu0_DTLB RFO       ACCESS:     518259  HIT:     510737  MISS:       7522
cpu0_DTLB PREFETCH  ACCESS:          0  HIT:          0  MISS:          0
cpu0_DTLB WRITEBACK ACCESS:          0  HIT:          0  MISS:          0
cpu0_ITLB TOTAL     ACCESS:     227956  HIT:     227956  MISS:          0
cpu0_ITLB LOAD      ACCESS:     227956  HIT:     227956  MISS:          0
cpu0_ITLB RFO       ACCESS:          0  HIT:          0  MISS:          0
cpu0_ITLB PREFETCH  ACCESS:          0  HIT:          0  MISS:          0
cpu0_ITLB WRITEBACK ACCESS:          0  HIT:          0  MISS:          0
cpu0_L1I TOTAL     ACCESS:    1342977  HIT:    1342977  MISS:          0
cpu0_L1I LOAD      ACCESS:    1342977  HIT:    1342977  MISS:          0
cpu0_L1I RFO       ACCESS:          0  HIT:          0  MISS:          0
cpu0_L1I PREFETCH  ACCESS:          0  HIT:          0  MISS:          0
cpu0_L1I WRITEBACK ACCESS:          0  HIT:          0  MISS:          0
cpu0_STLB TOTAL     ACCESS:      82079  HIT:      69142  MISS:      12937
cpu0_STLB LOAD      ACCESS:      74557  HIT:      61620  MISS:      12937
cpu0_STLB RFO       ACCESS:       7522  HIT:       7522  MISS:          0
cpu0_STLB PREFETCH  ACCESS:          0  HIT:          0  MISS:          0
cpu0_STLB WRITEBACK ACCESS:          0  HIT:          0  MISS:          0
cpu0_L1D TOTAL     ACCESS:    6415872  HIT:    6306297  MISS:     109575
cpu0_L1D LOAD      ACCESS:    5482733  HIT:    5373275  MISS:     109458
cpu0_L1D RFO       ACCESS:     920230  HIT:     920230  MISS:          0
cpu0_L1D PREFETCH  ACCESS:          0  HIT:          0  MISS:          0
cpu0_L1D WRITEBACK ACCESS:          0  HIT:          0  MISS:          0
cpu0_L2C TOTAL     ACCESS:     161065  HIT:      55198  MISS:     105867
cpu0_L2C LOAD      ACCESS:     109458  HIT:       3603  MISS:     105855
cpu0_L2C RFO       ACCESS:          0  HIT:          0  MISS:          0
cpu0_L2C PREFETCH  ACCESS:          0  HIT:          0  MISS:          0
cpu0_L2C WRITEBACK ACCESS:      51490  HIT:      51490  MISS:          0
LLC TOTAL     ACCESS:     157403  HIT:      72068  MISS:      85335
LLC LOAD      ACCESS:     105855  HIT:      20524  MISS:      85331
LLC RFO       ACCESS:          0  HIT:          0  MISS:          0
LLC PREFETCH  ACCESS:          0  HIT:          0  MISS:          0
LLC WRITEBACK ACCESS:      51536  HIT:      51536  MISS:          0
Heartbeat CPU 0 instructions: 64000001 cycles: 47535091 heartbeat IPC: 0.69779 cumulative IPC: 0.698983 (Simulation time: 1 hr 36 min 5 sec) 

Region of Interest Statistics
cpu0_DTLB TOTAL     ACCESS:    6391406  HIT:    6295200  MISS:      96206
cpu0_DTLB LOAD      ACCESS:    5786722  HIT:    5699241  MISS:      87481
cpu0_DTLB RFO       ACCESS:     604684  HIT:     595959  MISS:       8725
cpu0_DTLB PREFETCH  ACCESS:          0  HIT:          0  MISS:          0
cpu0_DTLB WRITEBACK ACCESS:          0  HIT:          0  MISS:          0
cpu0_ITLB TOTAL     ACCESS:     265942  HIT:     265942  MISS:          0
cpu0_ITLB LOAD      ACCESS:     265942  HIT:     265942  MISS:          0
cpu0_ITLB RFO       ACCESS:          0  HIT:          0  MISS:          0
cpu0_ITLB PREFETCH  ACCESS:          0  HIT:          0  MISS:          0
cpu0_ITLB WRITEBACK ACCESS:          0  HIT:          0  MISS:          0
cpu0_L1I TOTAL     ACCESS:    1566796  HIT:    1566796  MISS:          0
cpu0_L1I LOAD      ACCESS:    1566796  HIT:    1566796  MISS:          0
cpu0_L1I RFO       ACCESS:          0  HIT:          0  MISS:          0
cpu0_L1I PREFETCH  ACCESS:          0  HIT:          0  MISS:          0
cpu0_L1I WRITEBACK ACCESS:          0  HIT:          0  MISS:          0
cpu0_STLB TOTAL     ACCESS:      96206  HIT:      81114  MISS:      15092
cpu0_STLB LOAD      ACCESS:      87481  HIT:      72389  MISS:      15092
cpu0_STLB RFO       ACCESS:       8725  HIT:       8725  MISS:          0
cpu0_STLB PREFETCH  ACCESS:          0  HIT:          0  MISS:          0
cpu0_STLB WRITEBACK ACCESS:          0  HIT:          0  MISS:          0
cpu0_L1D TOTAL     ACCESS:    7485293  HIT:    7357460  MISS:     127833
cpu0_L1D LOAD      ACCESS:    6396639  HIT:    6268939  MISS:     127700
cpu0_L1D RFO       ACCESS:    1073599  HIT:    1073599  MISS:          0
cpu0_L1D PREFETCH  ACCESS:          0  HIT:          0  MISS:          0
cpu0_L1D WRITEBACK ACCESS:          0  HIT:          0  MISS:          0
cpu0_L2C TOTAL     ACCESS:     187922  HIT:      64346  MISS:     123576
cpu0_L2C LOAD      ACCESS:     127700  HIT:       4136  MISS:     123564
cpu0_L2C RFO       ACCESS:          0  HIT:          0  MISS:          0
cpu0_L2C PREFETCH  ACCESS:          0  HIT:          0  MISS:          0
cpu0_L2C WRITEBACK ACCESS:      60089  HIT:      60089  MISS:          0
LLC TOTAL     ACCESS:     183651  HIT:      84092  MISS:      99559
LLC LOAD      ACCESS:     123564  HIT:      24009  MISS:      99555
LLC RFO       ACCESS:          0  HIT:          0  MISS:          0
LLC PREFETCH  ACCESS:          0  HIT:          0  MISS:          0
LLC WRITEBACK ACCESS:      60075  HIT:      60075  MISS:          0
Heartbeat CPU 0 instructions: 66000003 cycles: 50391090 heartbeat IPC: 0.700281 cumulative IPC: 0.699145 (Simulation time: 1 hr 40 min 5 sec) 

Region of Interest Statistics
cpu0_DTLB TOTAL     ACCESS:    7304774  HIT:    7196465  MISS:     108309
cpu0_DTLB LOAD      ACCESS:    6613641  HIT:    6515414  MISS:      98227
cpu0_DTLB RFO       ACCESS:     691133  HIT:     681051  MISS:      10082
cpu0_DTLB PREFETCH  ACCESS:          0  HIT:          0  MISS:          0
cpu0_DTLB WRITEBACK ACCESS:          0  HIT:          0  MISS:          0
cpu0_ITLB TOTAL     ACCESS:     303953  HIT:     303953  MISS:          0
cpu0_ITLB LOAD      ACCESS:     303953  HIT:     303953  MISS:          0
cpu0_ITLB RFO       ACCESS:          0  HIT:          0  MISS:          0
cpu0_ITLB PREFETCH  ACCESS:          0  HIT:          0  MISS:          0
cpu0_ITLB WRITEBACK ACCESS:          0  HIT:          0  MISS:          0
cpu0_L1I TOTAL     ACCESS:    1790679  HIT:    1790679  MISS:          0
cpu0_L1I LOAD      ACCESS:    1790679  HIT:    1790679  MISS:          0
cpu0_L1I RFO       ACCESS:          0  HIT:          0  MISS:          0
cpu0_L1I PREFETCH  ACCESS:          0  HIT:          0  MISS:          0
cpu0_L1I WRITEBACK ACCESS:          0  HIT:          0  MISS:          0
cpu0_STLB TOTAL     ACCESS:     108309  HIT:      91064  MISS:      17245
cpu0_STLB LOAD      ACCESS:      98227  HIT:      80982  MISS:      17245
cpu0_STLB RFO       ACCESS:      10082  HIT:      10082  MISS:          0
cpu0_STLB PREFETCH  ACCESS:          0  HIT:          0  MISS:          0
cpu0_STLB WRITEBACK ACCESS:          0  HIT:          0  MISS:          0
cpu0_L1D TOTAL     ACCESS:    8554616  HIT:    8408526  MISS:     146090
cpu0_L1D LOAD      ACCESS:    7310454  HIT:    7164514  MISS:     145940
cpu0_L1D RFO       ACCESS:    1226959  HIT:    1226959  MISS:          0
cpu0_L1D PREFETCH  ACCESS:          0  HIT:          0  MISS:          0
cpu0_L1D WRITEBACK ACCESS:          0  HIT:          0  MISS:          0
cpu0_L2C TOTAL     ACCESS:     214767  HIT:      73520  MISS:     141247
cpu0_L2C LOAD      ACCESS:     145940  HIT:       4705  MISS:     141235
cpu0_L2C RFO       ACCESS:          0  HIT:          0  MISS:          0
cpu0_L2C PREFETCH  ACCESS:          0  HIT:          0  MISS:          0
cpu0_L2C WRITEBACK ACCESS:      68677  HIT:      68677  MISS:          0
LLC TOTAL     ACCESS:     209929  HIT:      96150  MISS:     113779
LLC LOAD      ACCESS:     141235  HIT:      27460  MISS:     113775
LLC RFO       ACCESS:          0  HIT:          0  MISS:          0
LLC PREFETCH  ACCESS:          0  HIT:          0  MISS:          0
LLC WRITEBACK ACCESS:      68682  HIT:      68682  MISS:          0
Heartbeat CPU 0 instructions: 68000001 cycles: 53243320 heartbeat IPC: 0.701205 cumulative IPC: 0.699373 (Simulation time: 1 hr 44 min 5 sec) 

Region of Interest Statistics
cpu0_DTLB TOTAL     ACCESS:    8218426  HIT:    8098303  MISS:     120123
cpu0_DTLB LOAD      ACCESS:    7440927  HIT:    7331791  MISS:     109136
cpu0_DTLB RFO       ACCESS:     777499  HIT:     766512  MISS:      10987
cpu0_DTLB PREFETCH  ACCESS:          0  HIT:          0  MISS:          0
cpu0_DTLB WRITEBACK ACCESS:          0  HIT:          0  MISS:          0
cpu0_ITLB TOTAL     ACCESS:     341949  HIT:     341949  MISS:          0
cpu0_ITLB LOAD      ACCESS:     341949  HIT:     341949  MISS:          0
cpu0_ITLB RFO       ACCESS:          0  HIT:          0  MISS:          0
cpu0_ITLB PREFETCH  ACCESS:          0  HIT:          0  MISS:          0
cpu0_ITLB WRITEBACK ACCESS:          0  HIT:          0  MISS:          0
cpu0_L1I TOTAL     ACCESS:    2014534  HIT:    2014534  MISS:          0
cpu0_L1I LOAD      ACCESS:    2014534  HIT:    2014534  MISS:          0
cpu0_L1I RFO       ACCESS:          0  HIT:          0  MISS:          0
cpu0_L1I PREFETCH  ACCESS:          0  HIT:          0  MISS:          0
cpu0_L1I WRITEBACK ACCESS:          0  HIT:          0  MISS:          0
cpu0_STLB TOTAL     ACCESS:     120124  HIT:     100723  MISS:      19401
cpu0_STLB LOAD      ACCESS:     109137  HIT:      89736  MISS:      19401
cpu0_STLB RFO       ACCESS:      10987  HIT:      10987  MISS:          0
cpu0_STLB PREFETCH  ACCESS:          0  HIT:          0  MISS:          0
cpu0_STLB WRITEBACK ACCESS:          0  HIT:          0  MISS:          0
cpu0_L1D TOTAL     ACCESS:    9623625  HIT:    9459273  MISS:     164352
cpu0_L1D LOAD      ACCESS:    8223930  HIT:    8059747  MISS:     164183
cpu0_L1D RFO       ACCESS:    1380340  HIT:    1380340  MISS:          0
cpu0_L1D PREFETCH  ACCESS:          0  HIT:          0  MISS:          0
cpu0_L1D WRITEBACK ACCESS:          0  HIT:          0  MISS:          0
cpu0_L2C TOTAL     ACCESS:     241594  HIT:      82658  MISS:     158936
cpu0_L2C LOAD      ACCESS:     164183  HIT:       5261  MISS:     158922
cpu0_L2C RFO       ACCESS:          0  HIT:          0  MISS:          0
cpu0_L2C PREFETCH  ACCESS:          0  HIT:          0  MISS:          0
cpu0_L2C WRITEBACK ACCESS:      77242  HIT:      77242  MISS:          0
LLC TOTAL     ACCESS:     236217  HIT:     108215  MISS:     128002
LLC LOAD      ACCESS:     158922  HIT:      30926  MISS:     127996
LLC RFO       ACCESS:          0  HIT:          0  MISS:          0
LLC PREFETCH  ACCESS:          0  HIT:          0  MISS:          0
LLC WRITEBACK ACCESS:      77281  HIT:      77281  MISS:          0
Heartbeat CPU 0 instructions: 70000004 cycles: 56099001 heartbeat IPC: 0.700359 cumulative IPC: 0.699472 (Simulation time: 1 hr 48 min 6 sec) 

Region of Interest Statistics
cpu0_DTLB TOTAL     ACCESS:    9132430  HIT:    8998916  MISS:     133514
cpu0_DTLB LOAD      ACCESS:    8268639  HIT:    8147195  MISS:     121444
cpu0_DTLB RFO       ACCESS:     863791  HIT:     851721  MISS:      12070
cpu0_DTLB PREFETCH  ACCESS:          0  HIT:          0  MISS:          0
cpu0_DTLB WRITEBACK ACCESS:          0  HIT:          0  MISS:          0
cpu0_ITLB TOTAL     ACCESS:     379927  HIT:     379927  MISS:          0
cpu0_ITLB LOAD      ACCESS:     379927  HIT:     379927  MISS:          0
cpu0_ITLB RFO       ACCESS:          0  HIT:          0  MISS:          0
cpu0_ITLB PREFETCH  ACCESS:          0  HIT:          0  MISS:          0
cpu0_ITLB WRITEBACK ACCESS:          0  HIT:          0  MISS:          0
cpu0_L1I TOTAL     ACCESS:    2238418  HIT:    2238418  MISS:          0
cpu0_L1I LOAD      ACCESS:    2238418  HIT:    2238418  MISS:          0
cpu0_L1I RFO       ACCESS:          0  HIT:          0  MISS:          0
cpu0_L1I PREFETCH  ACCESS:          0  HIT:          0  MISS:          0
cpu0_L1I WRITEBACK ACCESS:          0  HIT:          0  MISS:          0
cpu0_STLB TOTAL     ACCESS:     133514  HIT:     111954  MISS:      21560
cpu0_STLB LOAD      ACCESS:     121444  HIT:      99884  MISS:      21560
cpu0_STLB RFO       ACCESS:      12070  HIT:      12070  MISS:          0
cpu0_STLB PREFETCH  ACCESS:          0  HIT:          0  MISS:          0
cpu0_STLB WRITEBACK ACCESS:          0  HIT:          0  MISS:          0
cpu0_L1D TOTAL     ACCESS:   10693217  HIT:   10510595  MISS:     182622
cpu0_L1D LOAD      ACCESS:    9137988  HIT:    8955558  MISS:     182430
cpu0_L1D RFO       ACCESS:    1533719  HIT:    1533719  MISS:          0
cpu0_L1D PREFETCH  ACCESS:          0  HIT:          0  MISS:          0
cpu0_L1D WRITEBACK ACCESS:          0  HIT:          0  MISS:          0
cpu0_L2C TOTAL     ACCESS:     268450  HIT:      91861  MISS:     176589
cpu0_L2C LOAD      ACCESS:     182430  HIT:       5859  MISS:     176571
cpu0_L2C RFO       ACCESS:          0  HIT:          0  MISS:          0
cpu0_L2C PREFETCH  ACCESS:          0  HIT:          0  MISS:          0
cpu0_L2C WRITEBACK ACCESS:      85828  HIT:      85828  MISS:          0
LLC TOTAL     ACCESS:     262461  HIT:     120232  MISS:     142229
LLC LOAD      ACCESS:     176571  HIT:      34350  MISS:     142221
LLC RFO       ACCESS:          0  HIT:          0  MISS:          0
LLC PREFETCH  ACCESS:          0  HIT:          0  MISS:          0
LLC WRITEBACK ACCESS:      85872  HIT:      85872  MISS:          0
Heartbeat CPU 0 instructions: 72000000 cycles: 58954334 heartbeat IPC: 0.700442 cumulative IPC: 0.69956 (Simulation time: 1 hr 52 min 6 sec) 

Region of Interest Statistics
cpu0_DTLB TOTAL     ACCESS:   10045815  HIT:    9898933  MISS:     146882
cpu0_DTLB LOAD      ACCESS:    9095716  HIT:    8961965  MISS:     133751
cpu0_DTLB RFO       ACCESS:     950099  HIT:     936968  MISS:      13131
cpu0_DTLB PREFETCH  ACCESS:          0  HIT:          0  MISS:          0
cpu0_DTLB WRITEBACK ACCESS:          0  HIT:          0  MISS:          0
cpu0_ITLB TOTAL     ACCESS:     417917  HIT:     417917  MISS:          0
cpu0_ITLB LOAD      ACCESS:     417917  HIT:     417917  MISS:          0
cpu0_ITLB RFO       ACCESS:          0  HIT:          0  MISS:          0
cpu0_ITLB PREFETCH  ACCESS:          0  HIT:          0  MISS:          0
cpu0_ITLB WRITEBACK ACCESS:          0  HIT:          0  MISS:          0
cpu0_L1I TOTAL     ACCESS:    2462211  HIT:    2462211  MISS:          0
cpu0_L1I LOAD      ACCESS:    2462211  HIT:    2462211  MISS:          0
cpu0_L1I RFO       ACCESS:          0  HIT:          0  MISS:          0
cpu0_L1I PREFETCH  ACCESS:          0  HIT:          0  MISS:          0
cpu0_L1I WRITEBACK ACCESS:          0  HIT:          0  MISS:          0
cpu0_STLB TOTAL     ACCESS:     146882  HIT:     123170  MISS:      23712
cpu0_STLB LOAD      ACCESS:     133751  HIT:     110039  MISS:      23712
cpu0_STLB RFO       ACCESS:      13131  HIT:      13131  MISS:          0
cpu0_STLB PREFETCH  ACCESS:          0  HIT:          0  MISS:          0
cpu0_STLB WRITEBACK ACCESS:          0  HIT:          0  MISS:          0
cpu0_L1D TOTAL     ACCESS:   11761963  HIT:   11561086  MISS:     200877
cpu0_L1D LOAD      ACCESS:   10051236  HIT:    9850570  MISS:     200666
cpu0_L1D RFO       ACCESS:    1687070  HIT:    1687070  MISS:          0
cpu0_L1D PREFETCH  ACCESS:          0  HIT:          0  MISS:          0
cpu0_L1D WRITEBACK ACCESS:          0  HIT:          0  MISS:          0
cpu0_L2C TOTAL     ACCESS:     295300  HIT:     101026  MISS:     194274
cpu0_L2C LOAD      ACCESS:     200666  HIT:       6412  MISS:     194254
cpu0_L2C RFO       ACCESS:          0  HIT:          0  MISS:          0
cpu0_L2C PREFETCH  ACCESS:          0  HIT:          0  MISS:          0
cpu0_L2C WRITEBACK ACCESS:      94423  HIT:      94423  MISS:          0
LLC TOTAL     ACCESS:     288719  HIT:     132272  MISS:     156447
LLC LOAD      ACCESS:     194254  HIT:      37816  MISS:     156438
LLC RFO       ACCESS:          0  HIT:          0  MISS:          0
LLC PREFETCH  ACCESS:          0  HIT:          0  MISS:          0
LLC WRITEBACK ACCESS:      94445  HIT:      94445  MISS:          0
Heartbeat CPU 0 instructions: 74000000 cycles: 61815462 heartbeat IPC: 0.699025 cumulative IPC: 0.699515 (Simulation time: 1 hr 56 min 8 sec) 

Region of Interest Statistics
cpu0_DTLB TOTAL     ACCESS:   10957693  HIT:   10794992  MISS:     162701
cpu0_DTLB LOAD      ACCESS:    9921168  HIT:    9773098  MISS:     148070
cpu0_DTLB RFO       ACCESS:    1036525  HIT:    1021894  MISS:      14631
cpu0_DTLB PREFETCH  ACCESS:          0  HIT:          0  MISS:          0
cpu0_DTLB WRITEBACK ACCESS:          0  HIT:          0  MISS:          0
cpu0_ITLB TOTAL     ACCESS:     455923  HIT:     455923  MISS:          0
cpu0_ITLB LOAD      ACCESS:     455923  HIT:     455923  MISS:          0
cpu0_ITLB RFO       ACCESS:          0  HIT:          0  MISS:          0
cpu0_ITLB PREFETCH  ACCESS:          0  HIT:          0  MISS:          0
cpu0_ITLB WRITEBACK ACCESS:          0  HIT:          0  MISS:          0
cpu0_L1I TOTAL     ACCESS:    2686004  HIT:    2686004  MISS:          0
cpu0_L1I LOAD      ACCESS:    2686004  HIT:    2686004  MISS:          0
cpu0_L1I RFO       ACCESS:          0  HIT:          0  MISS:          0
cpu0_L1I PREFETCH  ACCESS:          0  HIT:          0  MISS:          0
cpu0_L1I WRITEBACK ACCESS:          0  HIT:          0  MISS:          0
cpu0_STLB TOTAL     ACCESS:     162701  HIT:     136833  MISS:      25868
cpu0_STLB LOAD      ACCESS:     148070  HIT:     122202  MISS:      25868
cpu0_STLB RFO       ACCESS:      14631  HIT:      14631  MISS:          0
cpu0_STLB PREFETCH  ACCESS:          0  HIT:          0  MISS:          0
cpu0_STLB WRITEBACK ACCESS:          0  HIT:          0  MISS:          0
cpu0_L1D TOTAL     ACCESS:   12831653  HIT:   12612521  MISS:     219132
cpu0_L1D LOAD      ACCESS:   10965407  HIT:   10746503  MISS:     218904
cpu0_L1D RFO       ACCESS:    1840439  HIT:    1840439  MISS:          0
cpu0_L1D PREFETCH  ACCESS:          0  HIT:          0  MISS:          0
cpu0_L1D WRITEBACK ACCESS:          0  HIT:          0  MISS:          0
cpu0_L2C TOTAL     ACCESS:     322136  HIT:     110247  MISS:     211889
cpu0_L2C LOAD      ACCESS:     218904  HIT:       7035  MISS:     211869
cpu0_L2C RFO       ACCESS:          0  HIT:          0  MISS:          0
cpu0_L2C PREFETCH  ACCESS:          0  HIT:          0  MISS:          0
cpu0_L2C WRITEBACK ACCESS:     103004  HIT:     103004  MISS:          0
LLC TOTAL     ACCESS:     314872  HIT:     144202  MISS:     170670
LLC LOAD      ACCESS:     211869  HIT:      41208  MISS:     170661
LLC RFO       ACCESS:          0  HIT:          0  MISS:          0
LLC PREFETCH  ACCESS:          0  HIT:          0  MISS:          0
LLC WRITEBACK ACCESS:     102983  HIT:     102983  MISS:          0
Heartbeat CPU 0 instructions: 76000000 cycles: 64683713 heartbeat IPC: 0.697289 cumulative IPC: 0.699344 (Simulation time: 2 hr 0 min 5 sec) 

Region of Interest Statistics
cpu0_DTLB TOTAL     ACCESS:   11870161  HIT:   11693278  MISS:     176883
cpu0_DTLB LOAD      ACCESS:   10747268  HIT:   10586772  MISS:     160496
cpu0_DTLB RFO       ACCESS:    1122893  HIT:    1106506  MISS:      16387
cpu0_DTLB PREFETCH  ACCESS:          0  HIT:          0  MISS:          0
cpu0_DTLB WRITEBACK ACCESS:          0  HIT:          0  MISS:          0
cpu0_ITLB TOTAL     ACCESS:     493919  HIT:     493919  MISS:          0
cpu0_ITLB LOAD      ACCESS:     493919  HIT:     493919  MISS:          0
cpu0_ITLB RFO       ACCESS:          0  HIT:          0  MISS:          0
cpu0_ITLB PREFETCH  ACCESS:          0  HIT:          0  MISS:          0
cpu0_ITLB WRITEBACK ACCESS:          0  HIT:          0  MISS:          0
cpu0_L1I TOTAL     ACCESS:    2909862  HIT:    2909862  MISS:          0
cpu0_L1I LOAD      ACCESS:    2909862  HIT:    2909862  MISS:          0
cpu0_L1I RFO       ACCESS:          0  HIT:          0  MISS:          0
cpu0_L1I PREFETCH  ACCESS:          0  HIT:          0  MISS:          0
cpu0_L1I WRITEBACK ACCESS:          0  HIT:          0  MISS:          0
cpu0_STLB TOTAL     ACCESS:     176883  HIT:     148856  MISS:      28027
cpu0_STLB LOAD      ACCESS:     160496  HIT:     132469  MISS:      28027
cpu0_STLB RFO       ACCESS:      16387  HIT:      16387  MISS:          0
cpu0_STLB PREFETCH  ACCESS:          0  HIT:          0  MISS:          0
cpu0_STLB WRITEBACK ACCESS:          0  HIT:          0  MISS:          0
cpu0_L1D TOTAL     ACCESS:   13901204  HIT:   13663796  MISS:     237408
cpu0_L1D LOAD      ACCESS:   11879411  HIT:   11642250  MISS:     237161
cpu0_L1D RFO       ACCESS:    1993829  HIT:    1993829  MISS:          0
cpu0_L1D PREFETCH  ACCESS:          0  HIT:          0  MISS:          0
cpu0_L1D WRITEBACK ACCESS:          0  HIT:          0  MISS:          0
cpu0_L2C TOTAL     ACCESS:     348989  HIT:     119432  MISS:     229557
cpu0_L2C LOAD      ACCESS:     237161  HIT:       7627  MISS:     229534
cpu0_L2C RFO       ACCESS:          0  HIT:          0  MISS:          0
cpu0_L2C PREFETCH  ACCESS:          0  HIT:          0  MISS:          0
cpu0_L2C WRITEBACK ACCESS:     111581  HIT:     111580  MISS:          1
LLC TOTAL     ACCESS:     341175  HIT:     156276  MISS:     184899
LLC LOAD      ACCESS:     229534  HIT:      44645  MISS:     184889
LLC RFO       ACCESS:          0  HIT:          0  MISS:          0
LLC PREFETCH  ACCESS:          0  HIT:          0  MISS:          0
LLC WRITEBACK ACCESS:     111619  HIT:     111619  MISS:          0
Heartbeat CPU 0 instructions: 78000000 cycles: 67535386 heartbeat IPC: 0.701343 cumulative IPC: 0.699486 (Simulation time: 2 hr 4 min 1 sec) 

Region of Interest Statistics
cpu0_DTLB TOTAL     ACCESS:   12785398  HIT:   12598018  MISS:     187380
cpu0_DTLB LOAD      ACCESS:   11576109  HIT:   11405868  MISS:     170241
cpu0_DTLB RFO       ACCESS:    1209289  HIT:    1192150  MISS:      17139
cpu0_DTLB PREFETCH  ACCESS:          0  HIT:          0  MISS:          0
cpu0_DTLB WRITEBACK ACCESS:          0  HIT:          0  MISS:          0
cpu0_ITLB TOTAL     ACCESS:     531912  HIT:     531912  MISS:          0
cpu0_ITLB LOAD      ACCESS:     531912  HIT:     531912  MISS:          0
cpu0_ITLB RFO       ACCESS:          0  HIT:          0  MISS:          0
cpu0_ITLB PREFETCH  ACCESS:          0  HIT:          0  MISS:          0
cpu0_ITLB WRITEBACK ACCESS:          0  HIT:          0  MISS:          0
cpu0_L1I TOTAL     ACCESS:    3133684  HIT:    3133684  MISS:          0
cpu0_L1I LOAD      ACCESS:    3133684  HIT:    3133684  MISS:          0
cpu0_L1I RFO       ACCESS:          0  HIT:          0  MISS:          0
cpu0_L1I PREFETCH  ACCESS:          0  HIT:          0  MISS:          0
cpu0_L1I WRITEBACK ACCESS:          0  HIT:          0  MISS:          0
cpu0_STLB TOTAL     ACCESS:     187380  HIT:     157200  MISS:      30180
cpu0_STLB LOAD      ACCESS:     170241  HIT:     140061  MISS:      30180
cpu0_STLB RFO       ACCESS:      17139  HIT:      17139  MISS:          0
cpu0_STLB PREFETCH  ACCESS:          0  HIT:          0  MISS:          0
cpu0_STLB WRITEBACK ACCESS:          0  HIT:          0  MISS:          0
cpu0_L1D TOTAL     ACCESS:   14970499  HIT:   14714843  MISS:     255656
cpu0_L1D LOAD      ACCESS:   12793202  HIT:   12537813  MISS:     255389
cpu0_L1D RFO       ACCESS:    2147184  HIT:    2147184  MISS:          0
cpu0_L1D PREFETCH  ACCESS:          0  HIT:          0  MISS:          0
cpu0_L1D WRITEBACK ACCESS:          0  HIT:          0  MISS:          0
cpu0_L2C TOTAL     ACCESS:     375820  HIT:     128628  MISS:     247192
cpu0_L2C LOAD      ACCESS:     255389  HIT:       8222  MISS:     247167
cpu0_L2C RFO       ACCESS:          0  HIT:          0  MISS:          0
cpu0_L2C PREFETCH  ACCESS:          0  HIT:          0  MISS:          0
cpu0_L2C WRITEBACK ACCESS:     120164  HIT:     120163  MISS:          1
LLC TOTAL     ACCESS:     367363  HIT:     168251  MISS:     199112
LLC LOAD      ACCESS:     247167  HIT:      48065  MISS:     199102
LLC RFO       ACCESS:          0  HIT:          0  MISS:          0
LLC PREFETCH  ACCESS:          0  HIT:          0  MISS:          0
LLC WRITEBACK ACCESS:     120172  HIT:     120172  MISS:          0
Heartbeat CPU 0 instructions: 80000003 cycles: 70387289 heartbeat IPC: 0.701287 cumulative IPC: 0.699606 (Simulation time: 2 hr 7 min 59 sec) 

Region of Interest Statistics
cpu0_DTLB TOTAL     ACCESS:   13699045  HIT:   13498919  MISS:     200126
cpu0_DTLB LOAD      ACCESS:   12403466  HIT:   12221463  MISS:     182003
cpu0_DTLB RFO       ACCESS:    1295579  HIT:    1277456  MISS:      18123
cpu0_DTLB PREFETCH  ACCESS:          0  HIT:          0  MISS:          0
cpu0_DTLB WRITEBACK ACCESS:          0  HIT:          0  MISS:          0
cpu0_ITLB TOTAL     ACCESS:     569882  HIT:     569882  MISS:          0
cpu0_ITLB LOAD      ACCESS:     569882  HIT:     569882  MISS:          0
cpu0_ITLB RFO       ACCESS:          0  HIT:          0  MISS:          0
cpu0_ITLB PREFETCH  ACCESS:          0  HIT:          0  MISS:          0
cpu0_ITLB WRITEBACK ACCESS:          0  HIT:          0  MISS:          0
cpu0_L1I TOTAL     ACCESS:    3357570  HIT:    3357570  MISS:          0
cpu0_L1I LOAD      ACCESS:    3357570  HIT:    3357570  MISS:          0
cpu0_L1I RFO       ACCESS:          0  HIT:          0  MISS:          0
cpu0_L1I PREFETCH  ACCESS:          0  HIT:          0  MISS:          0
cpu0_L1I WRITEBACK ACCESS:          0  HIT:          0  MISS:          0
cpu0_STLB TOTAL     ACCESS:     200126  HIT:     167789  MISS:      32337
cpu0_STLB LOAD      ACCESS:     182003  HIT:     149666  MISS:      32337
cpu0_STLB RFO       ACCESS:      18123  HIT:      18123  MISS:          0
cpu0_STLB PREFETCH  ACCESS:          0  HIT:          0  MISS:          0
cpu0_STLB WRITEBACK ACCESS:          0  HIT:          0  MISS:          0
cpu0_L1D TOTAL     ACCESS:   16039621  HIT:   15765699  MISS:     273922
cpu0_L1D LOAD      ACCESS:   13706797  HIT:   13433162  MISS:     273635
cpu0_L1D RFO       ACCESS:    2300559  HIT:    2300559  MISS:          0
cpu0_L1D PREFETCH  ACCESS:          0  HIT:          0  MISS:          0
cpu0_L1D WRITEBACK ACCESS:          0  HIT:          0  MISS:          0
cpu0_L2C TOTAL     ACCESS:     402681  HIT:     137821  MISS:     264860
cpu0_L2C LOAD      ACCESS:     273635  HIT:       8802  MISS:     264833
cpu0_L2C RFO       ACCESS:          0  HIT:          0  MISS:          0
cpu0_L2C PREFETCH  ACCESS:          0  HIT:          0  MISS:          0
cpu0_L2C WRITEBACK ACCESS:     128759  HIT:     128758  MISS:          1
LLC TOTAL     ACCESS:     393663  HIT:     180324  MISS:     213339
LLC LOAD      ACCESS:     264833  HIT:      51505  MISS:     213328
LLC RFO       ACCESS:          0  HIT:          0  MISS:          0
LLC PREFETCH  ACCESS:          0  HIT:          0  MISS:          0
LLC WRITEBACK ACCESS:     128804  HIT:     128804  MISS:          0
Heartbeat CPU 0 instructions: 82000003 cycles: 73239908 heartbeat IPC: 0.70111 cumulative IPC: 0.6997 (Simulation time: 2 hr 12 min 0 sec) 

Region of Interest Statistics
cpu0_DTLB TOTAL     ACCESS:   14612116  HIT:   14397517  MISS:     214599
cpu0_DTLB LOAD      ACCESS:   13230213  HIT:   13034999  MISS:     195214
cpu0_DTLB RFO       ACCESS:    1381903  HIT:    1362518  MISS:      19385
cpu0_DTLB PREFETCH  ACCESS:          0  HIT:          0  MISS:          0
cpu0_DTLB WRITEBACK ACCESS:          0  HIT:          0  MISS:          0
cpu0_ITLB TOTAL     ACCESS:     607868  HIT:     607868  MISS:          0
cpu0_ITLB LOAD      ACCESS:     607868  HIT:     607868  MISS:          0
cpu0_ITLB RFO       ACCESS:          0  HIT:          0  MISS:          0
cpu0_ITLB PREFETCH  ACCESS:          0  HIT:          0  MISS:          0
cpu0_ITLB WRITEBACK ACCESS:          0  HIT:          0  MISS:          0
cpu0_L1I TOTAL     ACCESS:    3581442  HIT:    3581442  MISS:          0
cpu0_L1I LOAD      ACCESS:    3581442  HIT:    3581442  MISS:          0
cpu0_L1I RFO       ACCESS:          0  HIT:          0  MISS:          0
cpu0_L1I PREFETCH  ACCESS:          0  HIT:          0  MISS:          0
cpu0_L1I WRITEBACK ACCESS:          0  HIT:          0  MISS:          0
cpu0_STLB TOTAL     ACCESS:     214599  HIT:     180108  MISS:      34491
cpu0_STLB LOAD      ACCESS:     195214  HIT:     160723  MISS:      34491
cpu0_STLB RFO       ACCESS:      19385  HIT:      19385  MISS:          0
cpu0_STLB PREFETCH  ACCESS:          0  HIT:          0  MISS:          0
cpu0_STLB WRITEBACK ACCESS:          0  HIT:          0  MISS:          0
cpu0_L1D TOTAL     ACCESS:   17108548  HIT:   16816363  MISS:     292185
cpu0_L1D LOAD      ACCESS:   14620203  HIT:   14328325  MISS:     291878
cpu0_L1D RFO       ACCESS:    2453928  HIT:    2453928  MISS:          0
cpu0_L1D PREFETCH  ACCESS:          0  HIT:          0  MISS:          0
cpu0_L1D WRITEBACK ACCESS:          0  HIT:          0  MISS:          0
cpu0_L2C TOTAL     ACCESS:     429510  HIT:     146947  MISS:     282563
cpu0_L2C LOAD      ACCESS:     291878  HIT:       9343  MISS:     282535
cpu0_L2C RFO       ACCESS:          0  HIT:          0  MISS:          0
cpu0_L2C PREFETCH  ACCESS:          0  HIT:          0  MISS:          0
cpu0_L2C WRITEBACK ACCESS:     137325  HIT:     137324  MISS:          1
LLC TOTAL     ACCESS:     419910  HIT:     192349  MISS:     227561
LLC LOAD      ACCESS:     282535  HIT:      54986  MISS:     227549
LLC RFO       ACCESS:          0  HIT:          0  MISS:          0
LLC PREFETCH  ACCESS:          0  HIT:          0  MISS:          0
LLC WRITEBACK ACCESS:     137348  HIT:     137348  MISS:          0
Heartbeat CPU 0 instructions: 84000003 cycles: 76108482 heartbeat IPC: 0.697211 cumulative IPC: 0.699553 (Simulation time: 2 hr 15 min 57 sec) 

Region of Interest Statistics
cpu0_DTLB TOTAL     ACCESS:   15525055  HIT:   15295068  MISS:     229987
cpu0_DTLB LOAD      ACCESS:   14056751  HIT:   13847602  MISS:     209149
cpu0_DTLB RFO       ACCESS:    1468304  HIT:    1447466  MISS:      20838
cpu0_DTLB PREFETCH  ACCESS:          0  HIT:          0  MISS:          0
cpu0_DTLB WRITEBACK ACCESS:          0  HIT:          0  MISS:          0
cpu0_ITLB TOTAL     ACCESS:     645866  HIT:     645866  MISS:          0
cpu0_ITLB LOAD      ACCESS:     645866  HIT:     645866  MISS:          0
cpu0_ITLB RFO       ACCESS:          0  HIT:          0  MISS:          0
cpu0_ITLB PREFETCH  ACCESS:          0  HIT:          0  MISS:          0
cpu0_ITLB WRITEBACK ACCESS:          0  HIT:          0  MISS:          0
cpu0_L1I TOTAL     ACCESS:    3805231  HIT:    3805231  MISS:          0
cpu0_L1I LOAD      ACCESS:    3805231  HIT:    3805231  MISS:          0
cpu0_L1I RFO       ACCESS:          0  HIT:          0  MISS:          0
cpu0_L1I PREFETCH  ACCESS:          0  HIT:          0  MISS:          0
cpu0_L1I WRITEBACK ACCESS:          0  HIT:          0  MISS:          0
cpu0_STLB TOTAL     ACCESS:     229987  HIT:     193342  MISS:      36645
cpu0_STLB LOAD      ACCESS:     209149  HIT:     172504  MISS:      36645
cpu0_STLB RFO       ACCESS:      20838  HIT:      20838  MISS:          0
cpu0_STLB PREFETCH  ACCESS:          0  HIT:          0  MISS:          0
cpu0_STLB WRITEBACK ACCESS:          0  HIT:          0  MISS:          0
cpu0_L1D TOTAL     ACCESS:   18178019  HIT:   17867573  MISS:     310446
cpu0_L1D LOAD      ACCESS:   15534155  HIT:   15224034  MISS:     310121
cpu0_L1D RFO       ACCESS:    2607299  HIT:    2607299  MISS:          0
cpu0_L1D PREFETCH  ACCESS:          0  HIT:          0  MISS:          0
cpu0_L1D WRITEBACK ACCESS:          0  HIT:          0  MISS:          0
cpu0_L2C TOTAL     ACCESS:     456355  HIT:     156157  MISS:     300198
cpu0_L2C LOAD      ACCESS:     310121  HIT:       9952  MISS:     300169
cpu0_L2C RFO       ACCESS:          0  HIT:          0  MISS:          0
cpu0_L2C PREFETCH  ACCESS:          0  HIT:          0  MISS:          0
cpu0_L2C WRITEBACK ACCESS:     145909  HIT:     145908  MISS:          1
LLC TOTAL     ACCESS:     446126  HIT:     204341  MISS:     241785
LLC LOAD      ACCESS:     300169  HIT:      58397  MISS:     241772
LLC RFO       ACCESS:          0  HIT:          0  MISS:          0
LLC PREFETCH  ACCESS:          0  HIT:          0  MISS:          0
LLC WRITEBACK ACCESS:     145929  HIT:     145929  MISS:          0
Heartbeat CPU 0 instructions: 86000004 cycles: 78971978 heartbeat IPC: 0.698447 cumulative IPC: 0.699491 (Simulation time: 2 hr 20 min 3 sec) 

Region of Interest Statistics
cpu0_DTLB TOTAL     ACCESS:   16438203  HIT:   16194608  MISS:     243595
cpu0_DTLB LOAD      ACCESS:   14883439  HIT:   14661935  MISS:     221504
cpu0_DTLB RFO       ACCESS:    1554764  HIT:    1532673  MISS:      22091
cpu0_DTLB PREFETCH  ACCESS:          0  HIT:          0  MISS:          0
cpu0_DTLB WRITEBACK ACCESS:          0  HIT:          0  MISS:          0
cpu0_ITLB TOTAL     ACCESS:     683861  HIT:     683861  MISS:          0
cpu0_ITLB LOAD      ACCESS:     683861  HIT:     683861  MISS:          0
cpu0_ITLB RFO       ACCESS:          0  HIT:          0  MISS:          0
cpu0_ITLB PREFETCH  ACCESS:          0  HIT:          0  MISS:          0
cpu0_ITLB WRITEBACK ACCESS:          0  HIT:          0  MISS:          0
cpu0_L1I TOTAL     ACCESS:    4029042  HIT:    4029042  MISS:          0
cpu0_L1I LOAD      ACCESS:    4029042  HIT:    4029042  MISS:          0
cpu0_L1I RFO       ACCESS:          0  HIT:          0  MISS:          0
cpu0_L1I PREFETCH  ACCESS:          0  HIT:          0  MISS:          0
cpu0_L1I WRITEBACK ACCESS:          0  HIT:          0  MISS:          0
cpu0_STLB TOTAL     ACCESS:     243595  HIT:     204798  MISS:      38797
cpu0_STLB LOAD      ACCESS:     221504  HIT:     182707  MISS:      38797
cpu0_STLB RFO       ACCESS:      22091  HIT:      22091  MISS:          0
cpu0_STLB PREFETCH  ACCESS:          0  HIT:          0  MISS:          0
cpu0_STLB WRITEBACK ACCESS:          0  HIT:          0  MISS:          0
cpu0_L1D TOTAL     ACCESS:   19247946  HIT:   18919234  MISS:     328712
cpu0_L1D LOAD      ACCESS:   16448563  HIT:   16120195  MISS:     328368
cpu0_L1D RFO       ACCESS:    2760669  HIT:    2760669  MISS:          0
cpu0_L1D PREFETCH  ACCESS:          0  HIT:          0  MISS:          0
cpu0_L1D WRITEBACK ACCESS:          0  HIT:          0  MISS:          0
cpu0_L2C TOTAL     ACCESS:     483217  HIT:     165287  MISS:     317930
cpu0_L2C LOAD      ACCESS:     328368  HIT:      10468  MISS:     317900
cpu0_L2C RFO       ACCESS:          0  HIT:          0  MISS:          0
cpu0_L2C PREFETCH  ACCESS:          0  HIT:          0  MISS:          0
cpu0_L2C WRITEBACK ACCESS:     154505  HIT:     154504  MISS:          1
LLC TOTAL     ACCESS:     472438  HIT:     216426  MISS:     256012
LLC LOAD      ACCESS:     317900  HIT:      61902  MISS:     255998
LLC RFO       ACCESS:          0  HIT:          0  MISS:          0
LLC PREFETCH  ACCESS:          0  HIT:          0  MISS:          0
LLC WRITEBACK ACCESS:     154509  HIT:     154509  MISS:          0
Heartbeat CPU 0 instructions: 88000004 cycles: 81821388 heartbeat IPC: 0.7019 cumulative IPC: 0.699618 (Simulation time: 2 hr 23 min 58 sec) 

Region of Interest Statistics
cpu0_DTLB TOTAL     ACCESS:   17352006  HIT:   17097576  MISS:     254430
cpu0_DTLB LOAD      ACCESS:   15710791  HIT:   15479417  MISS:     231374
cpu0_DTLB RFO       ACCESS:    1641215  HIT:    1618159  MISS:      23056
cpu0_DTLB PREFETCH  ACCESS:          0  HIT:          0  MISS:          0
cpu0_DTLB WRITEBACK ACCESS:          0  HIT:          0  MISS:          0
cpu0_ITLB TOTAL     ACCESS:     721871  HIT:     721871  MISS:          0
cpu0_ITLB LOAD      ACCESS:     721871  HIT:     721871  MISS:          0
cpu0_ITLB RFO       ACCESS:          0  HIT:          0  MISS:          0
cpu0_ITLB PREFETCH  ACCESS:          0  HIT:          0  MISS:          0
cpu0_ITLB WRITEBACK ACCESS:          0  HIT:          0  MISS:          0
cpu0_L1I TOTAL     ACCESS:    4252901  HIT:    4252901  MISS:          0
cpu0_L1I LOAD      ACCESS:    4252901  HIT:    4252901  MISS:          0
cpu0_L1I RFO       ACCESS:          0  HIT:          0  MISS:          0
cpu0_L1I PREFETCH  ACCESS:          0  HIT:          0  MISS:          0
cpu0_L1I WRITEBACK ACCESS:          0  HIT:          0  MISS:          0
cpu0_STLB TOTAL     ACCESS:     254430  HIT:     213475  MISS:      40955
cpu0_STLB LOAD      ACCESS:     231374  HIT:     190419  MISS:      40955
cpu0_STLB RFO       ACCESS:      23056  HIT:      23056  MISS:          0
cpu0_STLB PREFETCH  ACCESS:          0  HIT:          0  MISS:          0
cpu0_STLB WRITEBACK ACCESS:          0  HIT:          0  MISS:          0
cpu0_L1D TOTAL     ACCESS:   20317251  HIT:   19970285  MISS:     346966
cpu0_L1D LOAD      ACCESS:   17362345  HIT:   17015742  MISS:     346603
cpu0_L1D RFO       ACCESS:    2914039  HIT:    2914039  MISS:          0
cpu0_L1D PREFETCH  ACCESS:          0  HIT:          0  MISS:          0
cpu0_L1D WRITEBACK ACCESS:          0  HIT:          0  MISS:          0
cpu0_L2C TOTAL     ACCESS:     510062  HIT:     174463  MISS:     335599
cpu0_L2C LOAD      ACCESS:     346603  HIT:      11035  MISS:     335568
cpu0_L2C RFO       ACCESS:          0  HIT:          0  MISS:          0
cpu0_L2C PREFETCH  ACCESS:          0  HIT:          0  MISS:          0
cpu0_L2C WRITEBACK ACCESS:     163096  HIT:     163095  MISS:          1
LLC TOTAL     ACCESS:     498693  HIT:     228463  MISS:     270230
LLC LOAD      ACCESS:     335568  HIT:      65353  MISS:     270215
LLC RFO       ACCESS:          0  HIT:          0  MISS:          0
LLC PREFETCH  ACCESS:          0  HIT:          0  MISS:          0
LLC WRITEBACK ACCESS:     163095  HIT:     163095  MISS:          0
Heartbeat CPU 0 instructions: 90000001 cycles: 84672046 heartbeat IPC: 0.701591 cumulative IPC: 0.699716 (Simulation time: 2 hr 27 min 53 sec) 

Region of Interest Statistics
cpu0_DTLB TOTAL     ACCESS:   18265697  HIT:   17999274  MISS:     266423
cpu0_DTLB LOAD      ACCESS:   16538186  HIT:   16295723  MISS:     242463
cpu0_DTLB RFO       ACCESS:    1727511  HIT:    1703551  MISS:      23960
cpu0_DTLB PREFETCH  ACCESS:          0  HIT:          0  MISS:          0
cpu0_DTLB WRITEBACK ACCESS:          0  HIT:          0  MISS:          0
cpu0_ITLB TOTAL     ACCESS:     759858  HIT:     759858  MISS:          0
cpu0_ITLB LOAD      ACCESS:     759858  HIT:     759858  MISS:          0
cpu0_ITLB RFO       ACCESS:          0  HIT:          0  MISS:          0
cpu0_ITLB PREFETCH  ACCESS:          0  HIT:          0  MISS:          0
cpu0_ITLB WRITEBACK ACCESS:          0  HIT:          0  MISS:          0
cpu0_L1I TOTAL     ACCESS:    4476736  HIT:    4476736  MISS:          0
cpu0_L1I LOAD      ACCESS:    4476736  HIT:    4476736  MISS:          0
cpu0_L1I RFO       ACCESS:          0  HIT:          0  MISS:          0
cpu0_L1I PREFETCH  ACCESS:          0  HIT:          0  MISS:          0
cpu0_L1I WRITEBACK ACCESS:          0  HIT:          0  MISS:          0
cpu0_STLB TOTAL     ACCESS:     266423  HIT:     223316  MISS:      43107
cpu0_STLB LOAD      ACCESS:     242463  HIT:     199356  MISS:      43107
cpu0_STLB RFO       ACCESS:      23960  HIT:      23960  MISS:          0
cpu0_STLB PREFETCH  ACCESS:          0  HIT:          0  MISS:          0
cpu0_STLB WRITEBACK ACCESS:          0  HIT:          0  MISS:          0
cpu0_L1D TOTAL     ACCESS:   21386867  HIT:   21021645  MISS:     365222
cpu0_L1D LOAD      ACCESS:   18276454  HIT:   17911613  MISS:     364841
cpu0_L1D RFO       ACCESS:    3067399  HIT:    3067399  MISS:          0
cpu0_L1D PREFETCH  ACCESS:          0  HIT:          0  MISS:          0
cpu0_L1D WRITEBACK ACCESS:          0  HIT:          0  MISS:          0
cpu0_L2C TOTAL     ACCESS:     536879  HIT:     183692  MISS:     353187
cpu0_L2C LOAD      ACCESS:     364841  HIT:      11686  MISS:     353155
cpu0_L2C RFO       ACCESS:          0  HIT:          0  MISS:          0
cpu0_L2C PREFETCH  ACCESS:          0  HIT:          0  MISS:          0
cpu0_L2C WRITEBACK ACCESS:     171657  HIT:     171656  MISS:          1
LLC TOTAL     ACCESS:     524866  HIT:     240415  MISS:     284451
LLC LOAD      ACCESS:     353155  HIT:      68719  MISS:     284436
LLC RFO       ACCESS:          0  HIT:          0  MISS:          0
LLC PREFETCH  ACCESS:          0  HIT:          0  MISS:          0
LLC WRITEBACK ACCESS:     171680  HIT:     171680  MISS:          0
Heartbeat CPU 0 instructions: 92000000 cycles: 87531356 heartbeat IPC: 0.699469 cumulative IPC: 0.699704 (Simulation time: 2 hr 31 min 55 sec) 

Region of Interest Statistics
cpu0_DTLB TOTAL     ACCESS:   19179216  HIT:   18898565  MISS:     280651
cpu0_DTLB LOAD      ACCESS:   17365425  HIT:   17110008  MISS:     255417
cpu0_DTLB RFO       ACCESS:    1813791  HIT:    1788557  MISS:      25234
cpu0_DTLB PREFETCH  ACCESS:          0  HIT:          0  MISS:          0
cpu0_DTLB WRITEBACK ACCESS:          0  HIT:          0  MISS:          0
cpu0_ITLB TOTAL     ACCESS:     797843  HIT:     797843  MISS:          0
cpu0_ITLB LOAD      ACCESS:     797843  HIT:     797843  MISS:          0
cpu0_ITLB RFO       ACCESS:          0  HIT:          0  MISS:          0
cpu0_ITLB PREFETCH  ACCESS:          0  HIT:          0  MISS:          0
cpu0_ITLB WRITEBACK ACCESS:          0  HIT:          0  MISS:          0
cpu0_L1I TOTAL     ACCESS:    4700595  HIT:    4700595  MISS:          0
cpu0_L1I LOAD      ACCESS:    4700595  HIT:    4700595  MISS:          0
cpu0_L1I RFO       ACCESS:          0  HIT:          0  MISS:          0
cpu0_L1I PREFETCH  ACCESS:          0  HIT:          0  MISS:          0
cpu0_L1I WRITEBACK ACCESS:          0  HIT:          0  MISS:          0
cpu0_STLB TOTAL     ACCESS:     280651  HIT:     235383  MISS:      45268
cpu0_STLB LOAD      ACCESS:     255417  HIT:     210149  MISS:      45268
cpu0_STLB RFO       ACCESS:      25234  HIT:      25234  MISS:          0
cpu0_STLB PREFETCH  ACCESS:          0  HIT:          0  MISS:          0
cpu0_STLB WRITEBACK ACCESS:          0  HIT:          0  MISS:          0
cpu0_L1D TOTAL     ACCESS:   22456415  HIT:   22072919  MISS:     383496
cpu0_L1D LOAD      ACCESS:   19190464  HIT:   18807372  MISS:     383092
cpu0_L1D RFO       ACCESS:    3220780  HIT:    3220780  MISS:          0
cpu0_L1D PREFETCH  ACCESS:          0  HIT:          0  MISS:          0
cpu0_L1D WRITEBACK ACCESS:          0  HIT:          0  MISS:          0
cpu0_L2C TOTAL     ACCESS:     563733  HIT:     192873  MISS:     370860
cpu0_L2C LOAD      ACCESS:     383092  HIT:      12267  MISS:     370825
cpu0_L2C RFO       ACCESS:          0  HIT:          0  MISS:          0
cpu0_L2C PREFETCH  ACCESS:          0  HIT:          0  MISS:          0
cpu0_L2C WRITEBACK ACCESS:     180237  HIT:     180236  MISS:          1
LLC TOTAL     ACCESS:     551134  HIT:     252457  MISS:     298677
LLC LOAD      ACCESS:     370825  HIT:      72165  MISS:     298660
LLC RFO       ACCESS:          0  HIT:          0  MISS:          0
LLC PREFETCH  ACCESS:          0  HIT:          0  MISS:          0
LLC WRITEBACK ACCESS:     180275  HIT:     180275  MISS:          0
Heartbeat CPU 0 instructions: 94000002 cycles: 90392268 heartbeat IPC: 0.699079 cumulative IPC: 0.699676 (Simulation time: 2 hr 35 min 51 sec) 

Region of Interest Statistics
cpu0_DTLB TOTAL     ACCESS:   20092229  HIT:   19796858  MISS:     295371
cpu0_DTLB LOAD      ACCESS:   18192082  HIT:   17923239  MISS:     268843
cpu0_DTLB RFO       ACCESS:    1900147  HIT:    1873619  MISS:      26528
cpu0_DTLB PREFETCH  ACCESS:          0  HIT:          0  MISS:          0
cpu0_DTLB WRITEBACK ACCESS:          0  HIT:          0  MISS:          0
cpu0_ITLB TOTAL     ACCESS:     835828  HIT:     835828  MISS:          0
cpu0_ITLB LOAD      ACCESS:     835828  HIT:     835828  MISS:          0
cpu0_ITLB RFO       ACCESS:          0  HIT:          0  MISS:          0
cpu0_ITLB PREFETCH  ACCESS:          0  HIT:          0  MISS:          0
cpu0_ITLB WRITEBACK ACCESS:          0  HIT:          0  MISS:          0
cpu0_L1I TOTAL     ACCESS:    4924339  HIT:    4924339  MISS:          0
cpu0_L1I LOAD      ACCESS:    4924339  HIT:    4924339  MISS:          0
cpu0_L1I RFO       ACCESS:          0  HIT:          0  MISS:          0
cpu0_L1I PREFETCH  ACCESS:          0  HIT:          0  MISS:          0
cpu0_L1I WRITEBACK ACCESS:          0  HIT:          0  MISS:          0
cpu0_STLB TOTAL     ACCESS:     295371  HIT:     247947  MISS:      47424
cpu0_STLB LOAD      ACCESS:     268843  HIT:     221419  MISS:      47424
cpu0_STLB RFO       ACCESS:      26528  HIT:      26528  MISS:          0
cpu0_STLB PREFETCH  ACCESS:          0  HIT:          0  MISS:          0
cpu0_STLB WRITEBACK ACCESS:          0  HIT:          0  MISS:          0
cpu0_L1D TOTAL     ACCESS:   23525502  HIT:   23123747  MISS:     401755
cpu0_L1D LOAD      ACCESS:   20104024  HIT:   19702692  MISS:     401332
cpu0_L1D RFO       ACCESS:    3374159  HIT:    3374159  MISS:          0
cpu0_L1D PREFETCH  ACCESS:          0  HIT:          0  MISS:          0
cpu0_L1D WRITEBACK ACCESS:          0  HIT:          0  MISS:          0
cpu0_L2C TOTAL     ACCESS:     590590  HIT:     202041  MISS:     388549
cpu0_L2C LOAD      ACCESS:     401332  HIT:      12819  MISS:     388513
cpu0_L2C RFO       ACCESS:          0  HIT:          0  MISS:          0
cpu0_L2C PREFETCH  ACCESS:          0  HIT:          0  MISS:          0
cpu0_L2C WRITEBACK ACCESS:     188835  HIT:     188834  MISS:          1
LLC TOTAL     ACCESS:     577392  HIT:     264491  MISS:     312901
LLC LOAD      ACCESS:     388513  HIT:      75630  MISS:     312883
LLC RFO       ACCESS:          0  HIT:          0  MISS:          0
LLC PREFETCH  ACCESS:          0  HIT:          0  MISS:          0
LLC WRITEBACK ACCESS:     188844  HIT:     188844  MISS:          0
Heartbeat CPU 0 instructions: 96000003 cycles: 93252017 heartbeat IPC: 0.699362 cumulative IPC: 0.699662 (Simulation time: 2 hr 39 min 53 sec) 

Region of Interest Statistics
cpu0_DTLB TOTAL     ACCESS:   21004487  HIT:   20695204  MISS:     309283
cpu0_DTLB LOAD      ACCESS:   19017853  HIT:   18736213  MISS:     281640
cpu0_DTLB RFO       ACCESS:    1986634  HIT:    1958991  MISS:      27643
cpu0_DTLB PREFETCH  ACCESS:          0  HIT:          0  MISS:          0
cpu0_DTLB WRITEBACK ACCESS:          0  HIT:          0  MISS:          0
cpu0_ITLB TOTAL     ACCESS:     873815  HIT:     873815  MISS:          0
cpu0_ITLB LOAD      ACCESS:     873815  HIT:     873815  MISS:          0
cpu0_ITLB RFO       ACCESS:          0  HIT:          0  MISS:          0
cpu0_ITLB PREFETCH  ACCESS:          0  HIT:          0  MISS:          0
cpu0_ITLB WRITEBACK ACCESS:          0  HIT:          0  MISS:          0
cpu0_L1I TOTAL     ACCESS:    5148156  HIT:    5148156  MISS:          0
cpu0_L1I LOAD      ACCESS:    5148156  HIT:    5148156  MISS:          0
cpu0_L1I RFO       ACCESS:          0  HIT:          0  MISS:          0
cpu0_L1I PREFETCH  ACCESS:          0  HIT:          0  MISS:          0
cpu0_L1I WRITEBACK ACCESS:          0  HIT:          0  MISS:          0
cpu0_STLB TOTAL     ACCESS:     309283  HIT:     259707  MISS:      49576
cpu0_STLB LOAD      ACCESS:     281640  HIT:     232064  MISS:      49576
cpu0_STLB RFO       ACCESS:      27643  HIT:      27643  MISS:          0
cpu0_STLB PREFETCH  ACCESS:          0  HIT:          0  MISS:          0
cpu0_STLB WRITEBACK ACCESS:          0  HIT:          0  MISS:          0
cpu0_L1D TOTAL     ACCESS:   24595305  HIT:   24175288  MISS:     420017
cpu0_L1D LOAD      ACCESS:   21018326  HIT:   20598752  MISS:     419574
cpu0_L1D RFO       ACCESS:    3527510  HIT:    3527510  MISS:          0
cpu0_L1D PREFETCH  ACCESS:          0  HIT:          0  MISS:          0
cpu0_L1D WRITEBACK ACCESS:          0  HIT:          0  MISS:          0
cpu0_L2C TOTAL     ACCESS:     617422  HIT:     211246  MISS:     406176
cpu0_L2C LOAD      ACCESS:     419574  HIT:      13439  MISS:     406135
cpu0_L2C RFO       ACCESS:          0  HIT:          0  MISS:          0
cpu0_L2C PREFETCH  ACCESS:          0  HIT:          0  MISS:          0
cpu0_L2C WRITEBACK ACCESS:     197405  HIT:     197401  MISS:          4
LLC TOTAL     ACCESS:     603597  HIT:     276472  MISS:     327125
LLC LOAD      ACCESS:     406135  HIT:      79030  MISS:     327105
LLC RFO       ACCESS:          0  HIT:          0  MISS:          0
LLC PREFETCH  ACCESS:          0  HIT:          0  MISS:          0
LLC WRITEBACK ACCESS:     197425  HIT:     197425  MISS:          0
Heartbeat CPU 0 instructions: 98000003 cycles: 96111865 heartbeat IPC: 0.699338 cumulative IPC: 0.699649 (Simulation time: 2 hr 43 min 59 sec) 

Region of Interest Statistics
cpu0_DTLB TOTAL     ACCESS:   21917809  HIT:   21595729  MISS:     322080
cpu0_DTLB LOAD      ACCESS:   19844754  HIT:   19551798  MISS:     292956
cpu0_DTLB RFO       ACCESS:    2073055  HIT:    2043931  MISS:      29124
cpu0_DTLB PREFETCH  ACCESS:          0  HIT:          0  MISS:          0
cpu0_DTLB WRITEBACK ACCESS:          0  HIT:          0  MISS:          0
cpu0_ITLB TOTAL     ACCESS:     911812  HIT:     911812  MISS:          0
cpu0_ITLB LOAD      ACCESS:     911812  HIT:     911812  MISS:          0
cpu0_ITLB RFO       ACCESS:          0  HIT:          0  MISS:          0
cpu0_ITLB PREFETCH  ACCESS:          0  HIT:          0  MISS:          0
cpu0_ITLB WRITEBACK ACCESS:          0  HIT:          0  MISS:          0
cpu0_L1I TOTAL     ACCESS:    5372021  HIT:    5372021  MISS:          0
cpu0_L1I LOAD      ACCESS:    5372021  HIT:    5372021  MISS:          0
cpu0_L1I RFO       ACCESS:          0  HIT:          0  MISS:          0
cpu0_L1I PREFETCH  ACCESS:          0  HIT:          0  MISS:          0
cpu0_L1I WRITEBACK ACCESS:          0  HIT:          0  MISS:          0
cpu0_STLB TOTAL     ACCESS:     322080  HIT:     270348  MISS:      51732
cpu0_STLB LOAD      ACCESS:     292956  HIT:     241224  MISS:      51732
cpu0_STLB RFO       ACCESS:      29124  HIT:      29124  MISS:          0
cpu0_STLB PREFETCH  ACCESS:          0  HIT:          0  MISS:          0
cpu0_STLB WRITEBACK ACCESS:          0  HIT:          0  MISS:          0
cpu0_L1D TOTAL     ACCESS:   25665152  HIT:   25226886  MISS:     438266
cpu0_L1D LOAD      ACCESS:   21932657  HIT:   21494852  MISS:     437805
cpu0_L1D RFO       ACCESS:    3680879  HIT:    3680879  MISS:          0
cpu0_L1D PREFETCH  ACCESS:          0  HIT:          0  MISS:          0
cpu0_L1D WRITEBACK ACCESS:          0  HIT:          0  MISS:          0
cpu0_L2C TOTAL     ACCESS:     644271  HIT:     220421  MISS:     423850
cpu0_L2C LOAD      ACCESS:     437805  HIT:      13997  MISS:     423808
cpu0_L2C RFO       ACCESS:          0  HIT:          0  MISS:          0
cpu0_L2C PREFETCH  ACCESS:          0  HIT:          0  MISS:          0
cpu0_L2C WRITEBACK ACCESS:     206005  HIT:     206001  MISS:          4
LLC TOTAL     ACCESS:     629869  HIT:     288530  MISS:     341339
LLC LOAD      ACCESS:     423808  HIT:      82489  MISS:     341319
LLC RFO       ACCESS:          0  HIT:          0  MISS:          0
LLC PREFETCH  ACCESS:          0  HIT:          0  MISS:          0
LLC WRITEBACK ACCESS:     206023  HIT:     206023  MISS:          0
Heartbeat CPU 0 instructions: 100000003 cycles: 98969729 heartbeat IPC: 0.699823 cumulative IPC: 0.699656 (Simulation time: 2 hr 48 min 18 sec) 

Region of Interest Statistics
cpu0_DTLB TOTAL     ACCESS:   22832446  HIT:   22499271  MISS:     333175
cpu0_DTLB LOAD      ACCESS:   20672957  HIT:   20369702  MISS:     303255
cpu0_DTLB RFO       ACCESS:    2159489  HIT:    2129569  MISS:      29920
cpu0_DTLB PREFETCH  ACCESS:          0  HIT:          0  MISS:          0
cpu0_DTLB WRITEBACK ACCESS:          0  HIT:          0  MISS:          0
cpu0_ITLB TOTAL     ACCESS:     949795  HIT:     949795  MISS:          0
cpu0_ITLB LOAD      ACCESS:     949795  HIT:     949795  MISS:          0
cpu0_ITLB RFO       ACCESS:          0  HIT:          0  MISS:          0
cpu0_ITLB PREFETCH  ACCESS:          0  HIT:          0  MISS:          0
cpu0_ITLB WRITEBACK ACCESS:          0  HIT:          0  MISS:          0
cpu0_L1I TOTAL     ACCESS:    5595820  HIT:    5595820  MISS:          0
cpu0_L1I LOAD      ACCESS:    5595820  HIT:    5595820  MISS:          0
cpu0_L1I RFO       ACCESS:          0  HIT:          0  MISS:          0
cpu0_L1I PREFETCH  ACCESS:          0  HIT:          0  MISS:          0
cpu0_L1I WRITEBACK ACCESS:          0  HIT:          0  MISS:          0
cpu0_STLB TOTAL     ACCESS:     333175  HIT:     279290  MISS:      53885
cpu0_STLB LOAD      ACCESS:     303255  HIT:     249370  MISS:      53885
cpu0_STLB RFO       ACCESS:      29920  HIT:      29920  MISS:          0
cpu0_STLB PREFETCH  ACCESS:          0  HIT:          0  MISS:          0
cpu0_STLB WRITEBACK ACCESS:          0  HIT:          0  MISS:          0
cpu0_L1D TOTAL     ACCESS:   26734540  HIT:   26277999  MISS:     456541
cpu0_L1D LOAD      ACCESS:   22846509  HIT:   22390448  MISS:     456061
cpu0_L1D RFO       ACCESS:    3834269  HIT:    3834269  MISS:          0
cpu0_L1D PREFETCH  ACCESS:          0  HIT:          0  MISS:          0
cpu0_L1D WRITEBACK ACCESS:          0  HIT:          0  MISS:          0
cpu0_L2C TOTAL     ACCESS:     671122  HIT:     229612  MISS:     441510
cpu0_L2C LOAD      ACCESS:     456061  HIT:      14595  MISS:     441466
cpu0_L2C RFO       ACCESS:          0  HIT:          0  MISS:          0
cpu0_L2C PREFETCH  ACCESS:          0  HIT:          0  MISS:          0
cpu0_L2C WRITEBACK ACCESS:     214581  HIT:     214577  MISS:          4
LLC TOTAL     ACCESS:     656088  HIT:     300518  MISS:     355570
LLC LOAD      ACCESS:     441466  HIT:      85917  MISS:     355549
LLC RFO       ACCESS:          0  HIT:          0  MISS:          0
LLC PREFETCH  ACCESS:          0  HIT:          0  MISS:          0
LLC WRITEBACK ACCESS:     214582  HIT:     214582  MISS:          0
Heartbeat CPU 0 instructions: 102000004 cycles: 101822902 heartbeat IPC: 0.700974 cumulative IPC: 0.699706 (Simulation time: 2 hr 52 min 14 sec) 

Region of Interest Statistics
cpu0_DTLB TOTAL     ACCESS:   23745857  HIT:   23399479  MISS:     346378
cpu0_DTLB LOAD      ACCESS:   21500028  HIT:   21184642  MISS:     315386
cpu0_DTLB RFO       ACCESS:    2245829  HIT:    2214837  MISS:      30992
cpu0_DTLB PREFETCH  ACCESS:          0  HIT:          0  MISS:          0
cpu0_DTLB WRITEBACK ACCESS:          0  HIT:          0  MISS:          0
cpu0_ITLB TOTAL     ACCESS:     987780  HIT:     987780  MISS:          0
cpu0_ITLB LOAD      ACCESS:     987780  HIT:     987780  MISS:          0
cpu0_ITLB RFO       ACCESS:          0  HIT:          0  MISS:          0
cpu0_ITLB PREFETCH  ACCESS:          0  HIT:          0  MISS:          0
cpu0_ITLB WRITEBACK ACCESS:          0  HIT:          0  MISS:          0
cpu0_L1I TOTAL     ACCESS:    5819699  HIT:    5819699  MISS:          0
cpu0_L1I LOAD      ACCESS:    5819699  HIT:    5819699  MISS:          0
cpu0_L1I RFO       ACCESS:          0  HIT:          0  MISS:          0
cpu0_L1I PREFETCH  ACCESS:          0  HIT:          0  MISS:          0
cpu0_L1I WRITEBACK ACCESS:          0  HIT:          0  MISS:          0
cpu0_STLB TOTAL     ACCESS:     346378  HIT:     290335  MISS:      56043
cpu0_STLB LOAD      ACCESS:     315386  HIT:     259343  MISS:      56043
cpu0_STLB RFO       ACCESS:      30992  HIT:      30992  MISS:          0
cpu0_STLB PREFETCH  ACCESS:          0  HIT:          0  MISS:          0
cpu0_STLB WRITEBACK ACCESS:          0  HIT:          0  MISS:          0
cpu0_L1D TOTAL     ACCESS:   27803972  HIT:   27329176  MISS:     474796
cpu0_L1D LOAD      ACCESS:   23760432  HIT:   23286136  MISS:     474296
cpu0_L1D RFO       ACCESS:    3987623  HIT:    3987623  MISS:          0
cpu0_L1D PREFETCH  ACCESS:          0  HIT:          0  MISS:          0
cpu0_L1D WRITEBACK ACCESS:          0  HIT:          0  MISS:          0
cpu0_L2C TOTAL     ACCESS:     697976  HIT:     238787  MISS:     459189
cpu0_L2C LOAD      ACCESS:     474296  HIT:      15152  MISS:     459144
cpu0_L2C RFO       ACCESS:          0  HIT:          0  MISS:          0
cpu0_L2C PREFETCH  ACCESS:          0  HIT:          0  MISS:          0
cpu0_L2C WRITEBACK ACCESS:     223180  HIT:     223176  MISS:          4
LLC TOTAL     ACCESS:     682353  HIT:     312566  MISS:     369787
LLC LOAD      ACCESS:     459144  HIT:      89378  MISS:     369766
LLC RFO       ACCESS:          0  HIT:          0  MISS:          0
LLC PREFETCH  ACCESS:          0  HIT:          0  MISS:          0
LLC WRITEBACK ACCESS:     223168  HIT:     223168  MISS:          0
Heartbeat CPU 0 instructions: 104000003 cycles: 104669973 heartbeat IPC: 0.702476 cumulative IPC: 0.699808 (Simulation time: 2 hr 56 min 3 sec) 

Region of Interest Statistics
cpu0_DTLB TOTAL     ACCESS:   24659463  HIT:   24300409  MISS:     359054
cpu0_DTLB LOAD      ACCESS:   22327254  HIT:   22000053  MISS:     327201
cpu0_DTLB RFO       ACCESS:    2332209  HIT:    2300356  MISS:      31853
cpu0_DTLB PREFETCH  ACCESS:          0  HIT:          0  MISS:          0
cpu0_DTLB WRITEBACK ACCESS:          0  HIT:          0  MISS:          0
cpu0_ITLB TOTAL     ACCESS:    1025748  HIT:    1025748  MISS:          0
cpu0_ITLB LOAD      ACCESS:    1025748  HIT:    1025748  MISS:          0
cpu0_ITLB RFO       ACCESS:          0  HIT:          0  MISS:          0
cpu0_ITLB PREFETCH  ACCESS:          0  HIT:          0  MISS:          0
cpu0_ITLB WRITEBACK ACCESS:          0  HIT:          0  MISS:          0
cpu0_L1I TOTAL     ACCESS:    6043556  HIT:    6043556  MISS:          0
cpu0_L1I LOAD      ACCESS:    6043556  HIT:    6043556  MISS:          0
cpu0_L1I RFO       ACCESS:          0  HIT:          0  MISS:          0
cpu0_L1I PREFETCH  ACCESS:          0  HIT:          0  MISS:          0
cpu0_L1I WRITEBACK ACCESS:          0  HIT:          0  MISS:          0
cpu0_STLB TOTAL     ACCESS:     359054  HIT:     300856  MISS:      58198
cpu0_STLB LOAD      ACCESS:     327201  HIT:     269003  MISS:      58198
cpu0_STLB RFO       ACCESS:      31853  HIT:      31853  MISS:          0
cpu0_STLB PREFETCH  ACCESS:          0  HIT:          0  MISS:          0
cpu0_STLB WRITEBACK ACCESS:          0  HIT:          0  MISS:          0
cpu0_L1D TOTAL     ACCESS:   28873289  HIT:   28380228  MISS:     493061
cpu0_L1D LOAD      ACCESS:   24674224  HIT:   24181685  MISS:     492539
cpu0_L1D RFO       ACCESS:    4140999  HIT:    4140999  MISS:          0
cpu0_L1D PREFETCH  ACCESS:          0  HIT:          0  MISS:          0
cpu0_L1D WRITEBACK ACCESS:          0  HIT:          0  MISS:          0
cpu0_L2C TOTAL     ACCESS:     724798  HIT:     247862  MISS:     476936
cpu0_L2C LOAD      ACCESS:     492539  HIT:      15651  MISS:     476888
cpu0_L2C RFO       ACCESS:          0  HIT:          0  MISS:          0
cpu0_L2C PREFETCH  ACCESS:          0  HIT:          0  MISS:          0
cpu0_L2C WRITEBACK ACCESS:     231737  HIT:     231733  MISS:          4
LLC TOTAL     ACCESS:     708714  HIT:     324700  MISS:     384014
LLC LOAD      ACCESS:     476888  HIT:      92897  MISS:     383991
LLC RFO       ACCESS:          0  HIT:          0  MISS:          0
LLC PREFETCH  ACCESS:          0  HIT:          0  MISS:          0
LLC WRITEBACK ACCESS:     231782  HIT:     231782  MISS:          0
Heartbeat CPU 0 instructions: 106000001 cycles: 107536614 heartbeat IPC: 0.69768 cumulative IPC: 0.699732 (Simulation time: 3 hr 0 min 3 sec) 

Region of Interest Statistics
cpu0_DTLB TOTAL     ACCESS:   25571672  HIT:   25196572  MISS:     375100
cpu0_DTLB LOAD      ACCESS:   23153070  HIT:   22811355  MISS:     341715
cpu0_DTLB RFO       ACCESS:    2418602  HIT:    2385217  MISS:      33385
cpu0_DTLB PREFETCH  ACCESS:          0  HIT:          0  MISS:          0
cpu0_DTLB WRITEBACK ACCESS:          0  HIT:          0  MISS:          0
cpu0_ITLB TOTAL     ACCESS:    1063745  HIT:    1063745  MISS:          0
cpu0_ITLB LOAD      ACCESS:    1063745  HIT:    1063745  MISS:          0
cpu0_ITLB RFO       ACCESS:          0  HIT:          0  MISS:          0
cpu0_ITLB PREFETCH  ACCESS:          0  HIT:          0  MISS:          0
cpu0_ITLB WRITEBACK ACCESS:          0  HIT:          0  MISS:          0
cpu0_L1I TOTAL     ACCESS:    6267319  HIT:    6267319  MISS:          0
cpu0_L1I LOAD      ACCESS:    6267319  HIT:    6267319  MISS:          0
cpu0_L1I RFO       ACCESS:          0  HIT:          0  MISS:          0
cpu0_L1I PREFETCH  ACCESS:          0  HIT:          0  MISS:          0
cpu0_L1I WRITEBACK ACCESS:          0  HIT:          0  MISS:          0
cpu0_STLB TOTAL     ACCESS:     375100  HIT:     314745  MISS:      60355
cpu0_STLB LOAD      ACCESS:     341715  HIT:     281360  MISS:      60355
cpu0_STLB RFO       ACCESS:      33385  HIT:      33385  MISS:          0
cpu0_STLB PREFETCH  ACCESS:          0  HIT:          0  MISS:          0
cpu0_STLB WRITEBACK ACCESS:          0  HIT:          0  MISS:          0
cpu0_L1D TOTAL     ACCESS:   29943138  HIT:   29431810  MISS:     511328
cpu0_L1D LOAD      ACCESS:   25588550  HIT:   25077763  MISS:     510787
cpu0_L1D RFO       ACCESS:    4294368  HIT:    4294368  MISS:          0
cpu0_L1D PREFETCH  ACCESS:          0  HIT:          0  MISS:          0
cpu0_L1D WRITEBACK ACCESS:          0  HIT:          0  MISS:          0
cpu0_L2C TOTAL     ACCESS:     751656  HIT:     257057  MISS:     494599
cpu0_L2C LOAD      ACCESS:     510787  HIT:      16237  MISS:     494550
cpu0_L2C RFO       ACCESS:          0  HIT:          0  MISS:          0
cpu0_L2C PREFETCH  ACCESS:          0  HIT:          0  MISS:          0
[...]
cpu0_DTLB LOAD      ACCESS:  536290646  HIT:  530567341  MISS:    5723305
cpu0_DTLB RFO       ACCESS:   65334273  HIT:   63900223  MISS:    1434050
cpu0_DTLB PREFETCH  ACCESS:          0  HIT:          0  MISS:          0
cpu0_DTLB WRITEBACK ACCESS:          0  HIT:          0  MISS:          0
cpu0_ITLB TOTAL     ACCESS:   26390490  HIT:   26390451  MISS:         39
cpu0_ITLB LOAD      ACCESS:   26390490  HIT:   26390451  MISS:         39
cpu0_ITLB RFO       ACCESS:          0  HIT:          0  MISS:          0
cpu0_ITLB PREFETCH  ACCESS:          0  HIT:          0  MISS:          0
cpu0_ITLB WRITEBACK ACCESS:          0  HIT:          0  MISS:          0
cpu0_L1I TOTAL     ACCESS:  114891993  HIT:  114890994  MISS:        999
cpu0_L1I LOAD      ACCESS:  114891993  HIT:  114890994  MISS:        999
cpu0_L1I RFO       ACCESS:          0  HIT:          0  MISS:          0
cpu0_L1I PREFETCH  ACCESS:          0  HIT:          0  MISS:          0
cpu0_L1I WRITEBACK ACCESS:          0  HIT:          0  MISS:          0
cpu0_STLB TOTAL     ACCESS:    7157394  HIT:    6198861  MISS:     958533
cpu0_STLB LOAD      ACCESS:    5723344  HIT:    4765522  MISS:     957822
cpu0_STLB RFO       ACCESS:    1434050  HIT:    1433339  MISS:        711
cpu0_STLB PREFETCH  ACCESS:          0  HIT:          0  MISS:          0
cpu0_STLB WRITEBACK ACCESS:          0  HIT:          0  MISS:          0
cpu0_L1D TOTAL     ACCESS:  662980844  HIT:  643915853  MISS:   19064991
cpu0_L1D LOAD      ACCESS:  559731775  HIT:  540879097  MISS:   18852678
cpu0_L1D RFO       ACCESS:  102354857  HIT:  102189128  MISS:     165729
cpu0_L1D PREFETCH  ACCESS:          0  HIT:          0  MISS:          0
cpu0_L1D WRITEBACK ACCESS:          0  HIT:          0  MISS:          0
cpu0_L2C TOTAL     ACCESS:   27414992  HIT:    9072452  MISS:   18342540
cpu0_L2C LOAD      ACCESS:   18853677  HIT:     676560  MISS:   18177117
cpu0_L2C RFO       ACCESS:     165729  HIT:       3106  MISS:     162623
cpu0_L2C PREFETCH  ACCESS:          0  HIT:          0  MISS:          0
cpu0_L2C WRITEBACK ACCESS:    8349002  HIT:    8347585  MISS:       1417
LLC TOTAL     ACCESS:   26683264  HIT:    9647027  MISS:   17036237
LLC LOAD      ACCESS:   18177117  HIT:    1178124  MISS:   16998993
LLC RFO       ACCESS:     162623  HIT:     126727  MISS:      35896
LLC PREFETCH  ACCESS:          0  HIT:          0  MISS:          0
LLC WRITEBACK ACCESS:    8342141  HIT:    8341804  MISS:        337
Heartbeat CPU 0 instructions: 1550000002 cycles: 2759335194 heartbeat IPC: 0.761114 cumulative IPC: 0.549083 (Simulation time: 25 hr 35 min 12 sec) 

Region of Interest Statistics
cpu0_DTLB TOTAL     ACCESS:  602576447  HIT:  595417445  MISS:    7159002
cpu0_DTLB LOAD      ACCESS:  537163770  HIT:  531439007  MISS:    5724763
cpu0_DTLB RFO       ACCESS:   65412677  HIT:   63978438  MISS:    1434239
cpu0_DTLB PREFETCH  ACCESS:          0  HIT:          0  MISS:          0
cpu0_DTLB WRITEBACK ACCESS:          0  HIT:          0  MISS:          0
cpu0_ITLB TOTAL     ACCESS:   26424997  HIT:   26424958  MISS:         39
cpu0_ITLB LOAD      ACCESS:   26424997  HIT:   26424958  MISS:         39
cpu0_ITLB RFO       ACCESS:          0  HIT:          0  MISS:          0
cpu0_ITLB PREFETCH  ACCESS:          0  HIT:          0  MISS:          0
cpu0_ITLB WRITEBACK ACCESS:          0  HIT:          0  MISS:          0
cpu0_L1I TOTAL     ACCESS:  115107815  HIT:  115106816  MISS:        999
cpu0_L1I LOAD      ACCESS:  115107815  HIT:  115106816  MISS:        999
cpu0_L1I RFO       ACCESS:          0  HIT:          0  MISS:          0
cpu0_L1I PREFETCH  ACCESS:          0  HIT:          0  MISS:          0
cpu0_L1I WRITEBACK ACCESS:          0  HIT:          0  MISS:          0
cpu0_STLB TOTAL     ACCESS:    7159041  HIT:    6200296  MISS:     958745
cpu0_STLB LOAD      ACCESS:    5724802  HIT:    4766768  MISS:     958034
cpu0_STLB RFO       ACCESS:    1434239  HIT:    1433528  MISS:        711
cpu0_STLB PREFETCH  ACCESS:          0  HIT:          0  MISS:          0
cpu0_STLB WRITEBACK ACCESS:          0  HIT:          0  MISS:          0
cpu0_L1D TOTAL     ACCESS:  664062332  HIT:  644982716  MISS:   19079616
cpu0_L1D LOAD      ACCESS:  560694667  HIT:  541827494  MISS:   18867173
cpu0_L1D RFO       ACCESS:  102473246  HIT:  102307513  MISS:     165733
cpu0_L1D PREFETCH  ACCESS:          0  HIT:          0  MISS:          0
cpu0_L1D WRITEBACK ACCESS:          0  HIT:          0  MISS:          0
cpu0_L2C TOTAL     ACCESS:   27437170  HIT:    9082001  MISS:   18355169
cpu0_L2C LOAD      ACCESS:   18868172  HIT:     678431  MISS:   18189741
cpu0_L2C RFO       ACCESS:     165733  HIT:       3109  MISS:     162624
cpu0_L2C PREFETCH  ACCESS:          0  HIT:          0  MISS:          0
cpu0_L2C WRITEBACK ACCESS:    8356555  HIT:    8355135  MISS:       1420
LLC TOTAL     ACCESS:   26703554  HIT:    9655842  MISS:   17047712
LLC LOAD      ACCESS:   18189741  HIT:    1179274  MISS:   17010467
LLC RFO       ACCESS:     162624  HIT:     126728  MISS:      35896
LLC PREFETCH  ACCESS:          0  HIT:          0  MISS:          0
LLC WRITEBACK ACCESS:    8349805  HIT:    8349468  MISS:        337
Finished CPU 0 instructions: 1500000001 cycles: 2731829205 cumulative IPC: 0.549083 (Simulation time: 25 hr 35 min 12 sec) 

ChampSim completed all CPUs

Region of Interest Statistics

CPU 0 cumulative IPC: 0.549083 instructions: 1500000001 cycles: 2731829205
cpu0_DTLB TOTAL     ACCESS:  602576447  HIT:  595417445  MISS:    7159002
cpu0_DTLB LOAD      ACCESS:  537163770  HIT:  531439007  MISS:    5724763
cpu0_DTLB RFO       ACCESS:   65412677  HIT:   63978438  MISS:    1434239
cpu0_DTLB PREFETCH  ACCESS:          0  HIT:          0  MISS:          0
cpu0_DTLB WRITEBACK ACCESS:          0  HIT:          0  MISS:          0
cpu0_DTLB TRANSLATION ACCESS:          0  HIT:          0  MISS:          0
cpu0_DTLB PREFETCH  REQUESTED:          0  ISSUED:          0  USEFUL:          0  USELESS:          0
cpu0_DTLB AVERAGE MISS LATENCY: 18.5857 cycles
cpu0_ITLB TOTAL     ACCESS:   26424997  HIT:   26424958  MISS:         39
cpu0_ITLB LOAD      ACCESS:   26424997  HIT:   26424958  MISS:         39
cpu0_ITLB RFO       ACCESS:          0  HIT:          0  MISS:          0
cpu0_ITLB PREFETCH  ACCESS:          0  HIT:          0  MISS:          0
cpu0_ITLB WRITEBACK ACCESS:          0  HIT:          0  MISS:          0
cpu0_ITLB TRANSLATION ACCESS:          0  HIT:          0  MISS:          0
cpu0_ITLB PREFETCH  REQUESTED:          0  ISSUED:          0  USEFUL:          0  USELESS:          0
cpu0_ITLB AVERAGE MISS LATENCY: 262.718 cycles
cpu0_L1I TOTAL     ACCESS:  115107815  HIT:  115106816  MISS:        999
cpu0_L1I LOAD      ACCESS:  115107815  HIT:  115106816  MISS:        999
cpu0_L1I RFO       ACCESS:          0  HIT:          0  MISS:          0
cpu0_L1I PREFETCH  ACCESS:          0  HIT:          0  MISS:          0
cpu0_L1I WRITEBACK ACCESS:          0  HIT:          0  MISS:          0
cpu0_L1I TRANSLATION ACCESS:          0  HIT:          0  MISS:          0
cpu0_L1I PREFETCH  REQUESTED:          0  ISSUED:          0  USEFUL:          0  USELESS:          0
cpu0_L1I AVERAGE MISS LATENCY: 332.392 cycles
cpu0_STLB TOTAL     ACCESS:    7159041  HIT:    6200296  MISS:     958745
cpu0_STLB LOAD      ACCESS:    5724802  HIT:    4766768  MISS:     958034
cpu0_STLB RFO       ACCESS:    1434239  HIT:    1433528  MISS:        711
cpu0_STLB PREFETCH  ACCESS:          0  HIT:          0  MISS:          0
cpu0_STLB WRITEBACK ACCESS:          0  HIT:          0  MISS:          0
cpu0_STLB TRANSLATION ACCESS:          0  HIT:          0  MISS:          0
cpu0_STLB PREFETCH  REQUESTED:          0  ISSUED:          0  USEFUL:          0  USELESS:          0
cpu0_STLB AVERAGE MISS LATENCY: 71.4869 cycles
cpu0_L1D TOTAL     ACCESS:  664062332  HIT:  644982716  MISS:   19079616
cpu0_L1D LOAD      ACCESS:  560694667  HIT:  541827494  MISS:   18867173
cpu0_L1D RFO       ACCESS:  102473246  HIT:  102307513  MISS:     165733
cpu0_L1D PREFETCH  ACCESS:          0  HIT:          0  MISS:          0
cpu0_L1D WRITEBACK ACCESS:          0  HIT:          0  MISS:          0
cpu0_L1D TRANSLATION ACCESS:     894419  HIT:     847709  MISS:      46710
cpu0_L1D PREFETCH  REQUESTED:          0  ISSUED:          0  USEFUL:          0  USELESS:          0
cpu0_L1D AVERAGE MISS LATENCY: 476.215 cycles
cpu0_L2C TOTAL     ACCESS:   27437170  HIT:    9082001  MISS:   18355169
cpu0_L2C LOAD      ACCESS:   18868172  HIT:     678431  MISS:   18189741
cpu0_L2C RFO       ACCESS:     165733  HIT:       3109  MISS:     162624
cpu0_L2C PREFETCH  ACCESS:          0  HIT:          0  MISS:          0
cpu0_L2C WRITEBACK ACCESS:    8356555  HIT:    8355135  MISS:       1420
cpu0_L2C TRANSLATION ACCESS:      46710  HIT:      45326  MISS:       1384
cpu0_L2C PREFETCH  REQUESTED:          0  ISSUED:          0  USEFUL:          0  USELESS:          0
cpu0_L2C AVERAGE MISS LATENCY: 483.53 cycles
LLC TOTAL     ACCESS:   26703554  HIT:    9655842  MISS:   17047712
LLC LOAD      ACCESS:   18189741  HIT:    1179274  MISS:   17010467
LLC RFO       ACCESS:     162624  HIT:     126728  MISS:      35896
LLC PREFETCH  ACCESS:          0  HIT:          0  MISS:          0
LLC WRITEBACK ACCESS:    8349805  HIT:    8349468  MISS:        337
LLC TRANSLATION ACCESS:       1384  HIT:        372  MISS:       1012
LLC PREFETCH  REQUESTED:          0  ISSUED:          0  USEFUL:          0  USELESS:          0
LLC AVERAGE MISS LATENCY: 498.005 cycles
~~~~~~~~~~Reuse Distance Profiler output~~~~~~~~~~
0	0	0
1	0	0
2	0	0
3	0	0
4	0	0
5	0	0
6	0	0
7	0	0
8	0	0
9	0	0
10	0	0
11	0	0
12	0	0
13	0	0
14	0	0
15	0	0
16	0	0
17	0	0
18	0	0
19	0	0
20	0	0
21	0	0
22	0	0
23	0	0
24	0	0
25	0	0
26	0	0
27	0	0
28	0	0
29	0	0
30	0	0
31	0	0
32	0	0
33	0	0
34	0	0
35	0	0
36	0	0
37	0	0
38	0	0
39	0	0
40	0	0
41	0	0
42	0	0
43	0	0
44	0	0
45	0	0
46	0	0
47	0	0
48	0	0
49	0	0
50	0	0
51	0	0
52	0	0
53	0	0
54	0	0
55	0	0
56	0	0
57	0	0
58	0	0
59	0	0
60	0	0
61	0	0
62	0	0
63	0	0
64	0	0
66	0	0
68	0	0
70	0	0
72	0	0
74	0	0
76	0	0
78	0	0
80	0	0
82	0	0
84	0	0
86	0	0
88	0	0
90	0	0
92	0	0
94	0	0
96	0	0
98	0	0
100	0	0
102	0	0
104	0	0
106	0	0
108	0	0
110	0	0
112	0	0
114	0	0
116	0	0
118	0	0
120	0	0
122	0	0
124	0	0
126	0	0
128	0	0
132	0	0
136	0	0
140	0	0
144	0	0
148	0	0
152	0	0
156	0	0
160	0	0
164	0	0
168	0	0
172	0	0
176	0	0
180	0	0
184	0	0
188	0	0
192	0	0
196	0	0
200	0	0
204	0	0
208	0	0
212	0	0
216	0	0
220	0	0
224	0	0
228	0	0
232	0	0
236	0	0
240	0	0
244	0	0
248	0	0
252	0	0
256	0	0
264	0	0
272	0	0
280	0	0
288	0	0
296	0	0
304	0	0
312	0	0
320	0	0
328	0	0
336	0	0
344	0	0
352	0	0
360	0	0
368	0	0
376	0	0
384	0	0
392	0	0
400	0	0
408	0	0
416	0	0
424	0	0
432	0	0
440	0	0
448	0	0
456	0	0
464	0	0
472	0	0
480	0	0
488	0	0
496	0	0
504	0	0
512	0	0
528	0	0
544	0	0
560	0	0
576	0	0
592	0	0
608	0	0
624	0	0
640	0	0
656	0	0
672	0	0
688	0	0
704	0	0
720	0	0
736	0	0
752	0	0
768	0	0
784	0	0
800	0	0
816	0	0
832	0	0
848	0	0
864	0	0
880	0	0
896	0	0
912	0	0
928	0	0
944	0	0
960	0	0
976	0	0
992	0	0
1008	0	0
1024	0	0
1056	0	0
1088	0	0
1120	0	0
1152	0	0
1184	0	0
1216	0	0
1248	0	0
1280	0	0
1312	0	0
1344	0	0
1376	0	0
1408	0	0
1440	0	0
1472	0	0
1504	0	0
1536	0	0
1568	0	0
1600	0	0
1632	0	0
1664	0	0
1696	0	0
1728	0	0
1760	0	0
1792	0	0
1824	0	0
1856	0	0
1888	0	0
1920	0	0
1952	0	0
1984	0	0
2016	0	0
2048	0	0
2112	0	0
2176	0	0
2240	0	0
2304	0	0
2368	0	0
2432	0	0
2496	0	0
2560	0	0
2624	0	0
2688	0	0
2752	0	0
2816	0	0
2880	0	0
2944	0	0
3008	0	0
3072	0	0
3136	0	0
3200	0	0
3264	0	0
3328	0	0
3392	0	0
3456	0	0
3520	0	0
3584	0	0
3648	0	0
3712	0	0
3776	0	0
3840	0	0
3904	0	0
3968	0	0
4032	0	0
4096	0	0
4224	0	0
4352	0	0
4480	0	0
4608	0	0
4736	0	0
4864	0	0
4992	0	0
5120	0	0
5248	0	0
5376	0	0
5504	0	0
5632	0	0
5760	0	0
5888	0	0
6016	0	0
6144	0	0
6272	0	0
6400	0	0
6528	0	0
6656	0	0
6784	0	0
6912	0	0
7040	0	0
7168	0	0
7296	0	0
7424	0	0
7552	0	0
7680	0	0
7808	0	0
7936	0	0
8064	0	0
8192	0	0
8448	0	0
8704	0	0
8960	0	0
9216	0	0
9472	0	0
9728	0	0
9984	0	0
10240	0	0
10496	0	0
10752	0	0
11008	0	0
11264	0	0
11520	0	0
11776	0	0
12032	0	0
12288	0	0
12544	0	0
12800	0	0
13056	0	0
13312	0	0
13568	0	0
13824	0	0
14080	0	0
14336	0	0
14592	0	0
14848	0	0
15104	0	0
15360	0	0
15616	0	0
15872	0	0
16128	0	0
16384	0	0
16896	0	0
17408	0	0
17920	0	0
18432	0	0
18944	0	0
19456	0	0
19968	0	0
20480	0	0
20992	0	0
21504	0	0
22016	0	0
22528	0	0
23040	0	0
23552	0	0
24064	0	0
24576	0	0
25088	0	0
25600	0	0
26112	0	0
26624	0	0
27136	0	0
27648	0	0
28160	0	0
28672	0	0
29184	0	0
29696	0	0
30208	0	0
30720	0	0
31232	0	0
31744	0	0
32256	0	0
32768	0	0
33792	0	0
34816	0	0
35840	0	0
36864	0	0
37888	0	0
38912	0	0
39936	0	0
40960	0	0
41984	0	0
43008	0	0
44032	0	0
45056	0	0
46080	0	0
47104	0	0
48128	0	0
49152	0	0
50176	0	0
51200	0	0
52224	0	0
53248	0	0
54272	0	0
55296	0	0
56320	0	0
57344	0	0
58368	0	0
59392	0	0
60416	0	0
61440	0	0
62464	0	0
63488	0	0
64512	0	0
65536	0	0
67584	0	0
69632	0	0
71680	0	0
73728	0	0
75776	0	0
77824	0	0
79872	0	0
81920	0	0
83968	0	0
86016	0	0
88064	0	0
90112	0	0
92160	0	0
94208	0	0
96256	0	0
98304	0	0
100352	0	0
102400	0	0
104448	0	0
106496	0	0
108544	0	0
110592	0	0
112640	0	0
114688	0	0
116736	0	0
118784	0	0
120832	0	0
122880	0	0
124928	0	0
126976	0	0
129024	0	0
131072	0	0
135168	0	0
139264	0	0
143360	0	0
147456	0	0
151552	0	0
155648	0	0
159744	0	0
163840	0	0
167936	0	0
172032	0	0
176128	0	0
180224	0	0
184320	0	0
188416	0	0
192512	0	0
196608	0	0
200704	0	0
204800	0	0
208896	0	0
212992	0	0
217088	0	0
221184	0	0
225280	0	0
229376	0	0
233472	0	0
237568	0	0
241664	0	0
245760	0	0
249856	0	0
253952	0	0
258048	0	0
262144	0	0
270336	0	0
278528	0	0
286720	0	0
294912	0	0
303104	0	0
311296	0	0
319488	0	0
327680	0	0
335872	0	0
344064	0	0
352256	0	0
360448	0	0
368640	0	0
376832	0	0
385024	0	0
393216	0	0
401408	0	0
409600	0	0
417792	0	0
425984	0	0
434176	0	0
442368	0	0
450560	0	0
458752	0	0
466944	0	0
475136	0	0
483328	0	0
491520	0	0
499712	0	0
507904	0	0
516096	0	0
524288	0	0
540672	0	0
557056	0	0
573440	0	0
589824	0	0
606208	0	0
622592	0	0
638976	0	0
655360	0	0
671744	0	0
688128	0	0
704512	0	0
720896	0	0
737280	0	0
753664	0	0
770048	0	0
786432	0	0
802816	0	0
819200	0	0
835584	0	0
851968	0	0
868352	0	0
884736	0	0
901120	0	0
917504	0	0
933888	0	0
950272	0	0
966656	0	0
983040	0	0
999424	0	0
1015808	0	0
1032192	0	0
1048576	0	0
1081344	0	0
1114112	0	0
1146880	0	0
1179648	0	0
1212416	0	0
1245184	0	0
1277952	0	0
1310720	0	0
1343488	0	0
1376256	0	0
1409024	0	0
1441792	0	0
1474560	0	0
1507328	0	0
1540096	0	0
1572864	0	0
1605632	0	0
1638400	0	0
1671168	0	0
1703936	0	0
1736704	0	0
1769472	0	0
1802240	0	0
1835008	0	0
1867776	0	0
1900544	0	0
1933312	0	0
1966080	0	0
1998848	0	0
2031616	0	0
2064384	0	0
2097152	0	0
2162688	0	0
2228224	0	0
2293760	0	0
2359296	0	0
2424832	0	0
2490368	0	0
2555904	0	0
2621440	0	0
2686976	0	0
2752512	0	0
2818048	0	0
2883584	0	0
2949120	0	0
3014656	0	0
3080192	0	0
3145728	0	0
3211264	0	0
3276800	0	0
3342336	0	0
3407872	0	0
3473408	0	0
3538944	0	0
3604480	0	0
3670016	0	0
3735552	0	0
3801088	0	0
3866624	0	0
3932160	0	0
3997696	0	0
4063232	0	0
4128768	0	0
4194304	0	0
4325376	0	0
4456448	0	0
4587520	0	0
4718592	0	0
4849664	0	0
4980736	0	0
5111808	0	0
5242880	0	0
5373952	0	0
5505024	0	0
5636096	0	0
5767168	0	0
5898240	0	0
6029312	0	0
6160384	0	0
6291456	0	0
6422528	0	0
6553600	0	0
6684672	0	0
6815744	0	0
6946816	0	0
7077888	0	0
7208960	0	0
7340032	0	0
7471104	0	0
7602176	0	0
7733248	0	0
7864320	0	0
7995392	0	0
8126464	0	0
8257536	0	0
8388608	0	0
8650752	0	0
8912896	0	0
9175040	0	0
9437184	0	0
9699328	0	0
9961472	0	0
10223616	0	0
10485760	0	0
10747904	0	0
11010048	0	0
11272192	0	0
11534336	0	0
11796480	0	0
12058624	0	0
12320768	0	0
12582912	0	0
12845056	0	0
13107200	0	0
13369344	0	0
13631488	0	0
13893632	0	0
14155776	0	0
14417920	0	0
14680064	0	0
14942208	0	0
15204352	0	0
15466496	0	0
15728640	0	0
15990784	0	0
16252928	0	0
16515072	0	0
16777216	0	0
17301504	0	0
17825792	0	0
18350080	0	0
18874368	0	0
19398656	0	0
19922944	0	0
20447232	0	0
20971520	0	0
21495808	0	0
22020096	0	0
22544384	0	0
23068672	0	0
23592960	0	0
24117248	0	0
24641536	0	0
25165824	0	0
25690112	0	0
26214400	0	0
26738688	0	0
27262976	0	0
27787264	0	0
28311552	0	0
28835840	0	0
29360128	0	0
29884416	0	0
30408704	0	0
30932992	0	0
31457280	0	0
31981568	0	0
32505856	0	0
33030144	0	0
33554432	0	0
34603008	0	0
35651584	0	0
36700160	0	0
37748736	0	0
38797312	0	0
39845888	0	0
40894464	0	0
41943040	0	0
42991616	0	0
44040192	0	0
45088768	0	0
46137344	0	0
47185920	0	0
48234496	0	0
49283072	0	0
50331648	0	0
51380224	0	0
52428800	0	0
53477376	0	0
54525952	0	0
55574528	0	0
56623104	0	0
57671680	0	0
58720256	0	0
59768832	0	0
60817408	0	0
61865984	0	0
62914560	0	0
63963136	0	0
65011712	0	0
66060288	0	0
67108864	0	0
69206016	0	0
71303168	0	0
73400320	0	0
75497472	0	0
77594624	0	0
79691776	0	0
81788928	0	0
83886080	0	0
85983232	0	0
88080384	0	0
90177536	0	0
92274688	0	0
94371840	0	0
96468992	0	0
98566144	0	0
100663296	0	0
102760448	0	0
104857600	0	0
106954752	0	0
109051904	0	0
111149056	0	0
113246208	0	0
115343360	0	0
117440512	0	0
119537664	0	0
121634816	0	0
123731968	0	0
125829120	0	0
127926272	0	0
130023424	0	0
132120576	0	0
134217728	0	0
138412032	0	0
142606336	0	0
146800640	0	0
150994944	0	0
155189248	0	0
159383552	0	0
163577856	0	0
167772160	0	0
171966464	0	0
176160768	0	0
180355072	0	0
184549376	0	0
188743680	0	0
192937984	0	0
197132288	0	0
201326592	0	0
205520896	0	0
209715200	0	0
213909504	0	0
218103808	0	0
222298112	0	0
226492416	0	0
230686720	0	0
234881024	0	0
239075328	0	0
243269632	0	0
247463936	0	0
251658240	0	0
255852544	0	0
260046848	0	0
264241152	0	0
268435456	0	0
276824064	0	0
285212672	0	0
293601280	0	0
301989888	0	0
310378496	0	0
318767104	0	0
327155712	0	0
335544320	0	0
343932928	0	0
352321536	0	0
360710144	0	0
369098752	0	0
377487360	0	0
385875968	0	0
394264576	0	0
402653184	0	0
411041792	0	0
419430400	0	0
427819008	0	0
436207616	0	0
444596224	0	0
452984832	0	0
461373440	0	0
469762048	0	0
478150656	0	0
486539264	0	0
494927872	0	0
503316480	0	0
511705088	0	0
520093696	0	0
528482304	0	0
536870912	0	0
553648128	0	0
570425344	0	0
587202560	0	0
603979776	0	0
620756992	0	0
637534208	0	0
654311424	0	0
671088640	0	0
687865856	0	0
704643072	0	0
721420288	0	0
738197504	0	0
754974720	0	0
771751936	0	0
788529152	0	0
805306368	0	0
822083584	0	0
838860800	0	0
855638016	0	0
872415232	0	0
889192448	0	0
905969664	0	0
922746880	0	0
939524096	0	0
956301312	0	0
973078528	0	0
989855744	0	0
1006632960	0	0
1023410176	0	0
1040187392	0	0
1056964608	0	0
1073741824	0	0
1107296256	0	0
1140850688	0	0
1174405120	0	0
1207959552	0	0
1241513984	0	0
1275068416	0	0
1308622848	0	0
1342177280	0	0
1375731712	0	0
1409286144	0	0
1442840576	0	0
1476395008	0	0
1509949440	0	0
1543503872	0	0
1577058304	0	0
1610612736	0	0
1644167168	0	0
1677721600	0	0
1711276032	0	0
1744830464	0	0
1778384896	0	0
1811939328	0	0
1845493760	0	0
1879048192	0	0
1912602624	0	0
1946157056	0	0
1979711488	0	0
2013265920	0	0
2046820352	0	0
2080374784	0	0
2113929216	0	0
2147483648	0	0
2214592512	0	0
2281701376	0	0
2348810240	0	0
2415919104	0	0
2483027968	0	0
2550136832	0	0
2617245696	0	0
2684354560	0	0
2751463424	0	0
2818572288	0	0
2885681152	0	0
2952790016	0	0
3019898880	0	0
3087007744	0	0
3154116608	0	0
3221225472	0	0
3288334336	0	0
3355443200	0	0
3422552064	0	0
3489660928	0	0
3556769792	0	0
3623878656	0	0
3690987520	0	0
3758096384	0	0
3825205248	0	0
3892314112	0	0
3959422976	0	0
4026531840	0	0
4093640704	0	0
4160749568	0	0
4227858432	0	0
~~~~~~~~~~Reuse Distance Profiler output end~~~~~~~~~~

Sampler size:0

DRAM Statistics
 CHANNEL 0
 RQ ROW_BUFFER_HIT:      64155  ROW_BUFFER_MISS:   16983160
 DBUS AVG_CONGESTED_CYCLE:    3.98464
 WQ ROW_BUFFER_HIT:     512059  ROW_BUFFER_MISS:    7711520  FULL:          0


CPU 0 Branch Prediction Accuracy: 94.9715% MPKI: 0.928899 Average ROB Occupancy at Mispredict: 129.644
Branch type MPKI
BRANCH_DIRECT_JUMP: 5e-05
BRANCH_INDIRECT: 1.33333e-06
BRANCH_CONDITIONAL: 0.928693
BRANCH_DIRECT_CALL: 8e-05
BRANCH_INDIRECT_CALL: 0
BRANCH_RETURN: 7.46667e-05

