
*** ChampSim Multicore Out-of-Order Simulator ***

Warmup Instructions: 50000000
Simulation Instructions: 1500000000
Number of CPUs: 1
Off-chip DRAM Size: 4 GiB Channels: 1 Width: 64-bit Data Rate: 3200 MT/s

VirtualMemory physical capacity: 8588881920 num_ppages: 2096895
VirtualMemory page size: 4096 log2_page_size: 12

CPU 0 runs /s/traces/champsim_traces/464.h264ref-57B.champsimtrace.xz
CPU 0 Bimodal branch predictor
Basic BTB sets: 1024 ways: 8 indirect buffer size: 4096 RAS size: 64
Initializing LRU.
Initializing LRU.
Initializing LRU.
Initializing LRU.
Initializing rdLRU.
Initializing LRU.
Initializing LRU.
Heartbeat CPU 0 instructions: 2000000 cycles: 1003611 heartbeat IPC: 1.9928 cumulative IPC: 1.9928 (Simulation time: 0 hr 2 min 29 sec) 
Heartbeat CPU 0 instructions: 4000000 cycles: 1967129 heartbeat IPC: 2.07573 cumulative IPC: 2.03342 (Simulation time: 0 hr 4 min 52 sec) 
Heartbeat CPU 0 instructions: 6000003 cycles: 2925988 heartbeat IPC: 2.08582 cumulative IPC: 2.05059 (Simulation time: 0 hr 7 min 7 sec) 
Heartbeat CPU 0 instructions: 8000003 cycles: 3884898 heartbeat IPC: 2.0857 cumulative IPC: 2.05926 (Simulation time: 0 hr 9 min 16 sec) 
Heartbeat CPU 0 instructions: 10000002 cycles: 4607054 heartbeat IPC: 2.76948 cumulative IPC: 2.17058 (Simulation time: 0 hr 10 min 45 sec) 
Heartbeat CPU 0 instructions: 12000003 cycles: 5115033 heartbeat IPC: 3.93717 cumulative IPC: 2.34603 (Simulation time: 0 hr 11 min 43 sec) 
Heartbeat CPU 0 instructions: 14000000 cycles: 5627489 heartbeat IPC: 3.90277 cumulative IPC: 2.48779 (Simulation time: 0 hr 12 min 41 sec) 
Heartbeat CPU 0 instructions: 16000002 cycles: 6132645 heartbeat IPC: 3.95918 cumulative IPC: 2.60899 (Simulation time: 0 hr 13 min 41 sec) 
Heartbeat CPU 0 instructions: 18000004 cycles: 6639008 heartbeat IPC: 3.94974 cumulative IPC: 2.71125 (Simulation time: 0 hr 14 min 39 sec) 
Heartbeat CPU 0 instructions: 20000002 cycles: 7146025 heartbeat IPC: 3.94464 cumulative IPC: 2.79876 (Simulation time: 0 hr 15 min 35 sec) 
Heartbeat CPU 0 instructions: 22000001 cycles: 7652146 heartbeat IPC: 3.95162 cumulative IPC: 2.87501 (Simulation time: 0 hr 16 min 30 sec) 
Heartbeat CPU 0 instructions: 24000000 cycles: 8154576 heartbeat IPC: 3.98065 cumulative IPC: 2.94313 (Simulation time: 0 hr 17 min 22 sec) 
Heartbeat CPU 0 instructions: 26000003 cycles: 8725892 heartbeat IPC: 3.50069 cumulative IPC: 2.97964 (Simulation time: 0 hr 18 min 30 sec) 
Heartbeat CPU 0 instructions: 28000002 cycles: 9282355 heartbeat IPC: 3.59413 cumulative IPC: 3.01648 (Simulation time: 0 hr 19 min 39 sec) 
Heartbeat CPU 0 instructions: 30000001 cycles: 10167191 heartbeat IPC: 2.2603 cumulative IPC: 2.95067 (Simulation time: 0 hr 21 min 39 sec) 
Heartbeat CPU 0 instructions: 32000003 cycles: 11129579 heartbeat IPC: 2.07817 cumulative IPC: 2.87522 (Simulation time: 0 hr 23 min 49 sec) 
Heartbeat CPU 0 instructions: 34000000 cycles: 12090989 heartbeat IPC: 2.08027 cumulative IPC: 2.81201 (Simulation time: 0 hr 25 min 58 sec) 
Heartbeat CPU 0 instructions: 36000002 cycles: 13050540 heartbeat IPC: 2.08431 cumulative IPC: 2.75851 (Simulation time: 0 hr 28 min 9 sec) 
Heartbeat CPU 0 instructions: 38000001 cycles: 14009741 heartbeat IPC: 2.08507 cumulative IPC: 2.7124 (Simulation time: 0 hr 30 min 9 sec) 
Heartbeat CPU 0 instructions: 40000002 cycles: 14968913 heartbeat IPC: 2.08513 cumulative IPC: 2.6722 (Simulation time: 0 hr 32 min 15 sec) 
Heartbeat CPU 0 instructions: 42000003 cycles: 15959525 heartbeat IPC: 2.01895 cumulative IPC: 2.63166 (Simulation time: 0 hr 34 min 23 sec) 
Heartbeat CPU 0 instructions: 44000000 cycles: 16975818 heartbeat IPC: 1.96793 cumulative IPC: 2.59192 (Simulation time: 0 hr 36 min 35 sec) 
Heartbeat CPU 0 instructions: 46000002 cycles: 17940310 heartbeat IPC: 2.07363 cumulative IPC: 2.56406 (Simulation time: 0 hr 38 min 44 sec) 
Heartbeat CPU 0 instructions: 48000003 cycles: 18899609 heartbeat IPC: 2.08486 cumulative IPC: 2.53974 (Simulation time: 0 hr 40 min 51 sec) 
Heartbeat CPU 0 instructions: 50000000 cycles: 19858917 heartbeat IPC: 2.08483 cumulative IPC: 2.51776 (Simulation time: 0 hr 42 min 50 sec) 

Warmup complete CPU 0 instructions: 50000002 cycles: 19858919 (Simulation time: 0 hr 42 min 50 sec) 

Heartbeat CPU 0 instructions: 52000003 cycles: 20859868 heartbeat IPC: 1.9981 cumulative IPC: 1.9981 (Simulation time: 0 hr 44 min 12 sec) 

Region of Interest Statistics
cpu0_DTLB TOTAL     ACCESS:     404980  HIT:     404474  MISS:        506
cpu0_DTLB LOAD      ACCESS:     329510  HIT:     329065  MISS:        445
cpu0_DTLB RFO       ACCESS:      75470  HIT:      75409  MISS:         61
cpu0_DTLB PREFETCH  ACCESS:          0  HIT:          0  MISS:          0
cpu0_DTLB WRITEBACK ACCESS:          0  HIT:          0  MISS:          0
cpu0_ITLB TOTAL     ACCESS:     170961  HIT:     170961  MISS:          0
cpu0_ITLB LOAD      ACCESS:     170961  HIT:     170961  MISS:          0
cpu0_ITLB RFO       ACCESS:          0  HIT:          0  MISS:          0
cpu0_ITLB PREFETCH  ACCESS:          0  HIT:          0  MISS:          0
cpu0_ITLB WRITEBACK ACCESS:          0  HIT:          0  MISS:          0
cpu0_L1I TOTAL     ACCESS:      49689  HIT:      49634  MISS:         55
cpu0_L1I LOAD      ACCESS:      49689  HIT:      49634  MISS:         55
cpu0_L1I RFO       ACCESS:          0  HIT:          0  MISS:          0
cpu0_L1I PREFETCH  ACCESS:          0  HIT:          0  MISS:          0
cpu0_L1I WRITEBACK ACCESS:          0  HIT:          0  MISS:          0
cpu0_STLB TOTAL     ACCESS:        506  HIT:        484  MISS:         22
cpu0_STLB LOAD      ACCESS:        445  HIT:        427  MISS:         18
cpu0_STLB RFO       ACCESS:         61  HIT:         57  MISS:          4
cpu0_STLB PREFETCH  ACCESS:          0  HIT:          0  MISS:          0
cpu0_STLB WRITEBACK ACCESS:          0  HIT:          0  MISS:          0
cpu0_L1D TOTAL     ACCESS:     450134  HIT:     442562  MISS:       7572
cpu0_L1D LOAD      ACCESS:     300180  HIT:     294897  MISS:       5283
cpu0_L1D RFO       ACCESS:     149935  HIT:     147651  MISS:       2284
cpu0_L1D PREFETCH  ACCESS:          0  HIT:          0  MISS:          0
cpu0_L1D WRITEBACK ACCESS:          0  HIT:          0  MISS:          0
cpu0_L2C TOTAL     ACCESS:      10442  HIT:       5918  MISS:       4524
cpu0_L2C LOAD      ACCESS:       5338  HIT:       3066  MISS:       2272
cpu0_L2C RFO       ACCESS:       2284  HIT:         34  MISS:       2250
cpu0_L2C PREFETCH  ACCESS:          0  HIT:          0  MISS:          0
cpu0_L2C WRITEBACK ACCESS:       2815  HIT:       2815  MISS:          0
LLC TOTAL     ACCESS:       8384  HIT:       8119  MISS:        265
LLC LOAD      ACCESS:       2272  HIT:       2122  MISS:        150
LLC RFO       ACCESS:       2250  HIT:       2135  MISS:        115
LLC PREFETCH  ACCESS:          0  HIT:          0  MISS:          0
LLC WRITEBACK ACCESS:       3860  HIT:       3860  MISS:          0
Heartbeat CPU 0 instructions: 54000004 cycles: 21751027 heartbeat IPC: 2.24427 cumulative IPC: 2.11405 (Simulation time: 0 hr 45 min 15 sec) 

Region of Interest Statistics
cpu0_DTLB TOTAL     ACCESS:     754605  HIT:     753086  MISS:       1519
cpu0_DTLB LOAD      ACCESS:     584842  HIT:     583419  MISS:       1423
cpu0_DTLB RFO       ACCESS:     169763  HIT:     169667  MISS:         96
cpu0_DTLB PREFETCH  ACCESS:          0  HIT:          0  MISS:          0
cpu0_DTLB WRITEBACK ACCESS:          0  HIT:          0  MISS:          0
cpu0_ITLB TOTAL     ACCESS:     403596  HIT:     403596  MISS:          0
cpu0_ITLB LOAD      ACCESS:     403596  HIT:     403596  MISS:          0
cpu0_ITLB RFO       ACCESS:          0  HIT:          0  MISS:          0
cpu0_ITLB PREFETCH  ACCESS:          0  HIT:          0  MISS:          0
cpu0_ITLB WRITEBACK ACCESS:          0  HIT:          0  MISS:          0
cpu0_L1I TOTAL     ACCESS:      55151  HIT:      55085  MISS:         66
cpu0_L1I LOAD      ACCESS:      55151  HIT:      55085  MISS:         66
cpu0_L1I RFO       ACCESS:          0  HIT:          0  MISS:          0
cpu0_L1I PREFETCH  ACCESS:          0  HIT:          0  MISS:          0
cpu0_L1I WRITEBACK ACCESS:          0  HIT:          0  MISS:          0
cpu0_STLB TOTAL     ACCESS:       1519  HIT:       1481  MISS:         38
cpu0_STLB LOAD      ACCESS:       1423  HIT:       1389  MISS:         34
cpu0_STLB RFO       ACCESS:         96  HIT:         92  MISS:          4
cpu0_STLB PREFETCH  ACCESS:          0  HIT:          0  MISS:          0
cpu0_STLB WRITEBACK ACCESS:          0  HIT:          0  MISS:          0
cpu0_L1D TOTAL     ACCESS:     880981  HIT:     868198  MISS:      12783
cpu0_L1D LOAD      ACCESS:     511721  HIT:     501474  MISS:      10247
cpu0_L1D RFO       ACCESS:     369227  HIT:     366705  MISS:       2522
cpu0_L1D PREFETCH  ACCESS:          0  HIT:          0  MISS:          0
cpu0_L1D WRITEBACK ACCESS:          0  HIT:          0  MISS:          0
cpu0_L2C TOTAL     ACCESS:      15928  HIT:       7886  MISS:       8042
cpu0_L2C LOAD      ACCESS:      10313  HIT:       4696  MISS:       5617
cpu0_L2C RFO       ACCESS:       2522  HIT:        104  MISS:       2418
cpu0_L2C PREFETCH  ACCESS:          0  HIT:          0  MISS:          0
cpu0_L2C WRITEBACK ACCESS:       3079  HIT:       3075  MISS:          4
LLC TOTAL     ACCESS:      13483  HIT:      12893  MISS:        590
LLC LOAD      ACCESS:       5617  HIT:       5144  MISS:        473
LLC RFO       ACCESS:       2418  HIT:       2301  MISS:        117
LLC PREFETCH  ACCESS:          0  HIT:          0  MISS:          0
LLC WRITEBACK ACCESS:       5445  HIT:       5445  MISS:          0
Heartbeat CPU 0 instructions: 56000000 cycles: 22758222 heartbeat IPC: 1.98571 cumulative IPC: 2.06946 (Simulation time: 0 hr 46 min 20 sec) 

Region of Interest Statistics
cpu0_DTLB TOTAL     ACCESS:    1109565  HIT:    1106947  MISS:       2618
cpu0_DTLB LOAD      ACCESS:     853397  HIT:     850918  MISS:       2479
cpu0_DTLB RFO       ACCESS:     256168  HIT:     256029  MISS:        139
cpu0_DTLB PREFETCH  ACCESS:          0  HIT:          0  MISS:          0
cpu0_DTLB WRITEBACK ACCESS:          0  HIT:          0  MISS:          0
cpu0_ITLB TOTAL     ACCESS:     631989  HIT:     631988  MISS:          1
cpu0_ITLB LOAD      ACCESS:     631989  HIT:     631988  MISS:          1
cpu0_ITLB RFO       ACCESS:          0  HIT:          0  MISS:          0
cpu0_ITLB PREFETCH  ACCESS:          0  HIT:          0  MISS:          0
cpu0_ITLB WRITEBACK ACCESS:          0  HIT:          0  MISS:          0
cpu0_L1I TOTAL     ACCESS:      66580  HIT:      66232  MISS:        348
cpu0_L1I LOAD      ACCESS:      66580  HIT:      66232  MISS:        348
cpu0_L1I RFO       ACCESS:          0  HIT:          0  MISS:          0
cpu0_L1I PREFETCH  ACCESS:          0  HIT:          0  MISS:          0
cpu0_L1I WRITEBACK ACCESS:          0  HIT:          0  MISS:          0
cpu0_STLB TOTAL     ACCESS:       2619  HIT:       2561  MISS:         58
cpu0_STLB LOAD      ACCESS:       2480  HIT:       2427  MISS:         53
cpu0_STLB RFO       ACCESS:        139  HIT:        134  MISS:          5
cpu0_STLB PREFETCH  ACCESS:          0  HIT:          0  MISS:          0
cpu0_STLB WRITEBACK ACCESS:          0  HIT:          0  MISS:          0
cpu0_L1D TOTAL     ACCESS:    1293453  HIT:    1274171  MISS:      19282
cpu0_L1D LOAD      ACCESS:     726222  HIT:     709852  MISS:      16370
cpu0_L1D RFO       ACCESS:     567182  HIT:     564292  MISS:       2890
cpu0_L1D PREFETCH  ACCESS:          0  HIT:          0  MISS:          0
cpu0_L1D WRITEBACK ACCESS:          0  HIT:          0  MISS:          0
cpu0_L2C TOTAL     ACCESS:      23142  HIT:      10561  MISS:      12581
cpu0_L2C LOAD      ACCESS:      16718  HIT:       6832  MISS:       9886
cpu0_L2C RFO       ACCESS:       2890  HIT:        215  MISS:       2675
cpu0_L2C PREFETCH  ACCESS:          0  HIT:          0  MISS:          0
cpu0_L2C WRITEBACK ACCESS:       3512  HIT:       3498  MISS:         14
LLC TOTAL     ACCESS:      18377  HIT:      17649  MISS:        728
LLC LOAD      ACCESS:       9886  HIT:       9291  MISS:        595
LLC RFO       ACCESS:       2675  HIT:       2542  MISS:        133
LLC PREFETCH  ACCESS:          0  HIT:          0  MISS:          0
LLC WRITEBACK ACCESS:       5810  HIT:       5810  MISS:          0
Heartbeat CPU 0 instructions: 58000002 cycles: 24146867 heartbeat IPC: 1.44025 cumulative IPC: 1.86569 (Simulation time: 0 hr 47 min 25 sec) 

Region of Interest Statistics
cpu0_DTLB TOTAL     ACCESS:    1480787  HIT:    1476908  MISS:       3879
cpu0_DTLB LOAD      ACCESS:    1152731  HIT:    1149040  MISS:       3691
cpu0_DTLB RFO       ACCESS:     328056  HIT:     327868  MISS:        188
cpu0_DTLB PREFETCH  ACCESS:          0  HIT:          0  MISS:          0
cpu0_DTLB WRITEBACK ACCESS:          0  HIT:          0  MISS:          0
cpu0_ITLB TOTAL     ACCESS:     856071  HIT:     856070  MISS:          1
cpu0_ITLB LOAD      ACCESS:     856071  HIT:     856070  MISS:          1
cpu0_ITLB RFO       ACCESS:          0  HIT:          0  MISS:          0
cpu0_ITLB PREFETCH  ACCESS:          0  HIT:          0  MISS:          0
cpu0_ITLB WRITEBACK ACCESS:          0  HIT:          0  MISS:          0
cpu0_L1I TOTAL     ACCESS:      82950  HIT:      82518  MISS:        432
cpu0_L1I LOAD      ACCESS:      82950  HIT:      82518  MISS:        432
cpu0_L1I RFO       ACCESS:          0  HIT:          0  MISS:          0
cpu0_L1I PREFETCH  ACCESS:          0  HIT:          0  MISS:          0
cpu0_L1I WRITEBACK ACCESS:          0  HIT:          0  MISS:          0
cpu0_STLB TOTAL     ACCESS:       3880  HIT:       3784  MISS:         96
cpu0_STLB LOAD      ACCESS:       3692  HIT:       3602  MISS:         90
cpu0_STLB RFO       ACCESS:        188  HIT:        182  MISS:          6
cpu0_STLB PREFETCH  ACCESS:          0  HIT:          0  MISS:          0
cpu0_STLB WRITEBACK ACCESS:          0  HIT:          0  MISS:          0
cpu0_L1D TOTAL     ACCESS:    1694886  HIT:    1667249  MISS:      27637
cpu0_L1D LOAD      ACCESS:     964032  HIT:     939742  MISS:      24290
cpu0_L1D RFO       ACCESS:     730773  HIT:     727455  MISS:       3318
cpu0_L1D PREFETCH  ACCESS:          0  HIT:          0  MISS:          0
cpu0_L1D WRITEBACK ACCESS:          0  HIT:          0  MISS:          0
cpu0_L2C TOTAL     ACCESS:      31957  HIT:      12373  MISS:      19584
cpu0_L2C LOAD      ACCESS:      24722  HIT:       8121  MISS:      16601
cpu0_L2C RFO       ACCESS:       3318  HIT:        362  MISS:       2956
cpu0_L2C PREFETCH  ACCESS:          0  HIT:          0  MISS:          0
cpu0_L2C WRITEBACK ACCESS:       3888  HIT:       3868  MISS:         20
LLC TOTAL     ACCESS:      25695  HIT:      24724  MISS:        971
LLC LOAD      ACCESS:      16601  HIT:      15770  MISS:        831
LLC RFO       ACCESS:       2956  HIT:       2816  MISS:        140
LLC PREFETCH  ACCESS:          0  HIT:          0  MISS:          0
LLC WRITEBACK ACCESS:       6131  HIT:       6131  MISS:          0
Heartbeat CPU 0 instructions: 60000003 cycles: 25944523 heartbeat IPC: 1.11256 cumulative IPC: 1.64322 (Simulation time: 0 hr 48 min 26 sec) 

Region of Interest Statistics
cpu0_DTLB TOTAL     ACCESS:    1867297  HIT:    1862204  MISS:       5093
cpu0_DTLB LOAD      ACCESS:    1472545  HIT:    1467694  MISS:       4851
cpu0_DTLB RFO       ACCESS:     394752  HIT:     394510  MISS:        242
cpu0_DTLB PREFETCH  ACCESS:          0  HIT:          0  MISS:          0
cpu0_DTLB WRITEBACK ACCESS:          0  HIT:          0  MISS:          0
cpu0_ITLB TOTAL     ACCESS:    1083795  HIT:    1083794  MISS:          1
cpu0_ITLB LOAD      ACCESS:    1083795  HIT:    1083794  MISS:          1
cpu0_ITLB RFO       ACCESS:          0  HIT:          0  MISS:          0
cpu0_ITLB PREFETCH  ACCESS:          0  HIT:          0  MISS:          0
cpu0_ITLB WRITEBACK ACCESS:          0  HIT:          0  MISS:          0
cpu0_L1I TOTAL     ACCESS:      97254  HIT:      96813  MISS:        441
cpu0_L1I LOAD      ACCESS:      97254  HIT:      96813  MISS:        441
cpu0_L1I RFO       ACCESS:          0  HIT:          0  MISS:          0
cpu0_L1I PREFETCH  ACCESS:          0  HIT:          0  MISS:          0
cpu0_L1I WRITEBACK ACCESS:          0  HIT:          0  MISS:          0
cpu0_STLB TOTAL     ACCESS:       5094  HIT:       4996  MISS:         98
cpu0_STLB LOAD      ACCESS:       4852  HIT:       4760  MISS:         92
cpu0_STLB RFO       ACCESS:        242  HIT:        236  MISS:          6
cpu0_STLB PREFETCH  ACCESS:          0  HIT:          0  MISS:          0
cpu0_STLB WRITEBACK ACCESS:          0  HIT:          0  MISS:          0
cpu0_L1D TOTAL     ACCESS:    2117159  HIT:    2082225  MISS:      34934
cpu0_L1D LOAD      ACCESS:    1233574  HIT:    1202235  MISS:      31339
cpu0_L1D RFO       ACCESS:     883502  HIT:     879937  MISS:       3565
cpu0_L1D PREFETCH  ACCESS:          0  HIT:          0  MISS:          0
cpu0_L1D WRITEBACK ACCESS:          0  HIT:          0  MISS:          0
cpu0_L2C TOTAL     ACCESS:      39664  HIT:      14896  MISS:      24768
cpu0_L2C LOAD      ACCESS:      31780  HIT:      10111  MISS:      21669
cpu0_L2C RFO       ACCESS:       3565  HIT:        494  MISS:       3071
cpu0_L2C PREFETCH  ACCESS:          0  HIT:          0  MISS:          0
cpu0_L2C WRITEBACK ACCESS:       4289  HIT:       4268  MISS:         21
LLC TOTAL     ACCESS:      31108  HIT:      30061  MISS:       1047
LLC LOAD      ACCESS:      21669  HIT:      20764  MISS:        905
LLC RFO       ACCESS:       3071  HIT:       2929  MISS:        142
LLC PREFETCH  ACCESS:          0  HIT:          0  MISS:          0
LLC WRITEBACK ACCESS:       6361  HIT:       6361  MISS:          0
Heartbeat CPU 0 instructions: 62000004 cycles: 27240382 heartbeat IPC: 1.54338 cumulative IPC: 1.62569 (Simulation time: 0 hr 49 min 36 sec) 

Region of Interest Statistics
cpu0_DTLB TOTAL     ACCESS:    2231959  HIT:    2225547  MISS:       6412
cpu0_DTLB LOAD      ACCESS:    1760604  HIT:    1754473  MISS:       6131
cpu0_DTLB RFO       ACCESS:     471355  HIT:     471074  MISS:        281
cpu0_DTLB PREFETCH  ACCESS:          0  HIT:          0  MISS:          0
cpu0_DTLB WRITEBACK ACCESS:          0  HIT:          0  MISS:          0
cpu0_ITLB TOTAL     ACCESS:    1309614  HIT:    1309613  MISS:          1
cpu0_ITLB LOAD      ACCESS:    1309614  HIT:    1309613  MISS:          1
cpu0_ITLB RFO       ACCESS:          0  HIT:          0  MISS:          0
cpu0_ITLB PREFETCH  ACCESS:          0  HIT:          0  MISS:          0
cpu0_ITLB WRITEBACK ACCESS:          0  HIT:          0  MISS:          0
cpu0_L1I TOTAL     ACCESS:     113499  HIT:     112956  MISS:        543
cpu0_L1I LOAD      ACCESS:     113499  HIT:     112956  MISS:        543
cpu0_L1I RFO       ACCESS:          0  HIT:          0  MISS:          0
cpu0_L1I PREFETCH  ACCESS:          0  HIT:          0  MISS:          0
cpu0_L1I WRITEBACK ACCESS:          0  HIT:          0  MISS:          0
cpu0_STLB TOTAL     ACCESS:       6413  HIT:       6248  MISS:        165
cpu0_STLB LOAD      ACCESS:       6132  HIT:       5974  MISS:        158
cpu0_STLB RFO       ACCESS:        281  HIT:        274  MISS:          7
cpu0_STLB PREFETCH  ACCESS:          0  HIT:          0  MISS:          0
cpu0_STLB WRITEBACK ACCESS:          0  HIT:          0  MISS:          0
cpu0_L1D TOTAL     ACCESS:    2519961  HIT:    2477195  MISS:      42766
cpu0_L1D LOAD      ACCESS:    1462442  HIT:    1423663  MISS:      38779
cpu0_L1D RFO       ACCESS:    1057380  HIT:    1053428  MISS:       3952
cpu0_L1D PREFETCH  ACCESS:          0  HIT:          0  MISS:          0
cpu0_L1D WRITEBACK ACCESS:          0  HIT:          0  MISS:          0
cpu0_L2C TOTAL     ACCESS:      48045  HIT:      17156  MISS:      30889
cpu0_L2C LOAD      ACCESS:      39322  HIT:      11784  MISS:      27538
cpu0_L2C RFO       ACCESS:       3952  HIT:        638  MISS:       3314
cpu0_L2C PREFETCH  ACCESS:          0  HIT:          0  MISS:          0
cpu0_L2C WRITEBACK ACCESS:       4736  HIT:       4707  MISS:         29
LLC TOTAL     ACCESS:      37431  HIT:      36042  MISS:       1389
LLC LOAD      ACCESS:      27538  HIT:      26301  MISS:       1237
LLC RFO       ACCESS:       3314  HIT:       3162  MISS:        152
LLC PREFETCH  ACCESS:          0  HIT:          0  MISS:          0
LLC WRITEBACK ACCESS:       6571  HIT:       6571  MISS:          0
Heartbeat CPU 0 instructions: 64000001 cycles: 28477960 heartbeat IPC: 1.61606 cumulative IPC: 1.62431 (Simulation time: 0 hr 50 min 40 sec) 

Region of Interest Statistics
cpu0_DTLB TOTAL     ACCESS:    2595308  HIT:    2587441  MISS:       7867
cpu0_DTLB LOAD      ACCESS:    2050896  HIT:    2043365  MISS:       7531
cpu0_DTLB RFO       ACCESS:     544412  HIT:     544076  MISS:        336
cpu0_DTLB PREFETCH  ACCESS:          0  HIT:          0  MISS:          0
cpu0_DTLB WRITEBACK ACCESS:          0  HIT:          0  MISS:          0
cpu0_ITLB TOTAL     ACCESS:    1533246  HIT:    1533245  MISS:          1
cpu0_ITLB LOAD      ACCESS:    1533246  HIT:    1533245  MISS:          1
cpu0_ITLB RFO       ACCESS:          0  HIT:          0  MISS:          0
cpu0_ITLB PREFETCH  ACCESS:          0  HIT:          0  MISS:          0
cpu0_ITLB WRITEBACK ACCESS:          0  HIT:          0  MISS:          0
cpu0_L1I TOTAL     ACCESS:     130211  HIT:     129579  MISS:        632
cpu0_L1I LOAD      ACCESS:     130211  HIT:     129579  MISS:        632
cpu0_L1I RFO       ACCESS:          0  HIT:          0  MISS:          0
cpu0_L1I PREFETCH  ACCESS:          0  HIT:          0  MISS:          0
cpu0_L1I WRITEBACK ACCESS:          0  HIT:          0  MISS:          0
cpu0_STLB TOTAL     ACCESS:       7868  HIT:       7672  MISS:        196
cpu0_STLB LOAD      ACCESS:       7532  HIT:       7343  MISS:        189
cpu0_STLB RFO       ACCESS:        336  HIT:        329  MISS:          7
cpu0_STLB PREFETCH  ACCESS:          0  HIT:          0  MISS:          0
cpu0_STLB WRITEBACK ACCESS:          0  HIT:          0  MISS:          0
cpu0_L1D TOTAL     ACCESS:    2907763  HIT:    2856427  MISS:      51336
cpu0_L1D LOAD      ACCESS:    1684308  HIT:    1637403  MISS:      46905
cpu0_L1D RFO       ACCESS:    1223287  HIT:    1218899  MISS:       4388
cpu0_L1D PREFETCH  ACCESS:          0  HIT:          0  MISS:          0
cpu0_L1D WRITEBACK ACCESS:          0  HIT:          0  MISS:          0
cpu0_L2C TOTAL     ACCESS:      57208  HIT:      19455  MISS:      37753
cpu0_L2C LOAD      ACCESS:      47537  HIT:      13432  MISS:      34105
cpu0_L2C RFO       ACCESS:       4388  HIT:        784  MISS:       3604
cpu0_L2C PREFETCH  ACCESS:          0  HIT:          0  MISS:          0
cpu0_L2C WRITEBACK ACCESS:       5240  HIT:       5206  MISS:         34
LLC TOTAL     ACCESS:      44567  HIT:      42960  MISS:       1607
LLC LOAD      ACCESS:      34105  HIT:      32655  MISS:       1450
LLC RFO       ACCESS:       3604  HIT:       3447  MISS:        157
LLC PREFETCH  ACCESS:          0  HIT:          0  MISS:          0
LLC WRITEBACK ACCESS:       6848  HIT:       6848  MISS:          0
Heartbeat CPU 0 instructions: 66000001 cycles: 29974223 heartbeat IPC: 1.33666 cumulative IPC: 1.58176 (Simulation time: 0 hr 51 min 48 sec) 

Region of Interest Statistics
cpu0_DTLB TOTAL     ACCESS:    2966362  HIT:    2957210  MISS:       9152
cpu0_DTLB LOAD      ACCESS:    2354186  HIT:    2345425  MISS:       8761
cpu0_DTLB RFO       ACCESS:     612176  HIT:     611785  MISS:        391
cpu0_DTLB PREFETCH  ACCESS:          0  HIT:          0  MISS:          0
cpu0_DTLB WRITEBACK ACCESS:          0  HIT:          0  MISS:          0
cpu0_ITLB TOTAL     ACCESS:    1756383  HIT:    1756382  MISS:          1
cpu0_ITLB LOAD      ACCESS:    1756383  HIT:    1756382  MISS:          1
cpu0_ITLB RFO       ACCESS:          0  HIT:          0  MISS:          0
cpu0_ITLB PREFETCH  ACCESS:          0  HIT:          0  MISS:          0
cpu0_ITLB WRITEBACK ACCESS:          0  HIT:          0  MISS:          0
cpu0_L1I TOTAL     ACCESS:     147032  HIT:     146391  MISS:        641
cpu0_L1I LOAD      ACCESS:     147032  HIT:     146391  MISS:        641
cpu0_L1I RFO       ACCESS:          0  HIT:          0  MISS:          0
cpu0_L1I PREFETCH  ACCESS:          0  HIT:          0  MISS:          0
cpu0_L1I WRITEBACK ACCESS:          0  HIT:          0  MISS:          0
cpu0_STLB TOTAL     ACCESS:       9153  HIT:       8930  MISS:        223
cpu0_STLB LOAD      ACCESS:       8762  HIT:       8546  MISS:        216
cpu0_STLB RFO       ACCESS:        391  HIT:        384  MISS:          7
cpu0_STLB PREFETCH  ACCESS:          0  HIT:          0  MISS:          0
cpu0_STLB WRITEBACK ACCESS:          0  HIT:          0  MISS:          0
cpu0_L1D TOTAL     ACCESS:    3302677  HIT:    3243194  MISS:      59483
cpu0_L1D LOAD      ACCESS:    1924571  HIT:    1869861  MISS:      54710
cpu0_L1D RFO       ACCESS:    1377913  HIT:    1373189  MISS:       4724
cpu0_L1D PREFETCH  ACCESS:          0  HIT:          0  MISS:          0
cpu0_L1D WRITEBACK ACCESS:          0  HIT:          0  MISS:          0
cpu0_L2C TOTAL     ACCESS:      65708  HIT:      21652  MISS:      44056
cpu0_L2C LOAD      ACCESS:      55351  HIT:      15143  MISS:      40208
cpu0_L2C RFO       ACCESS:       4724  HIT:        924  MISS:       3800
cpu0_L2C PREFETCH  ACCESS:          0  HIT:          0  MISS:          0
cpu0_L2C WRITEBACK ACCESS:       5584  HIT:       5549  MISS:         35
LLC TOTAL     ACCESS:      51193  HIT:      49135  MISS:       2058
LLC LOAD      ACCESS:      40208  HIT:      38308  MISS:       1900
LLC RFO       ACCESS:       3800  HIT:       3642  MISS:        158
LLC PREFETCH  ACCESS:          0  HIT:          0  MISS:          0
LLC WRITEBACK ACCESS:       7172  HIT:       7172  MISS:          0
Heartbeat CPU 0 instructions: 68000000 cycles: 31679536 heartbeat IPC: 1.1728 cumulative IPC: 1.52276 (Simulation time: 0 hr 52 min 56 sec) 

Region of Interest Statistics
cpu0_DTLB TOTAL     ACCESS:    3472755  HIT:    3462631  MISS:      10124
cpu0_DTLB LOAD      ACCESS:    2735868  HIT:    2726221  MISS:       9647
cpu0_DTLB RFO       ACCESS:     736887  HIT:     736410  MISS:        477
cpu0_DTLB PREFETCH  ACCESS:          0  HIT:          0  MISS:          0
cpu0_DTLB WRITEBACK ACCESS:          0  HIT:          0  MISS:          0
cpu0_ITLB TOTAL     ACCESS:    1896970  HIT:    1896967  MISS:          3
cpu0_ITLB LOAD      ACCESS:    1896970  HIT:    1896967  MISS:          3
cpu0_ITLB RFO       ACCESS:          0  HIT:          0  MISS:          0
cpu0_ITLB PREFETCH  ACCESS:          0  HIT:          0  MISS:          0
cpu0_ITLB WRITEBACK ACCESS:          0  HIT:          0  MISS:          0
cpu0_L1I TOTAL     ACCESS:     252376  HIT:     250091  MISS:       2285
cpu0_L1I LOAD      ACCESS:     252376  HIT:     250091  MISS:       2285
cpu0_L1I RFO       ACCESS:          0  HIT:          0  MISS:          0
cpu0_L1I PREFETCH  ACCESS:          0  HIT:          0  MISS:          0
cpu0_L1I WRITEBACK ACCESS:          0  HIT:          0  MISS:          0
cpu0_STLB TOTAL     ACCESS:      10127  HIT:       9887  MISS:        240
cpu0_STLB LOAD      ACCESS:       9650  HIT:       9423  MISS:        227
cpu0_STLB RFO       ACCESS:        477  HIT:        464  MISS:         13
cpu0_STLB PREFETCH  ACCESS:          0  HIT:          0  MISS:          0
cpu0_STLB WRITEBACK ACCESS:          0  HIT:          0  MISS:          0
cpu0_L1D TOTAL     ACCESS:    3892734  HIT:    3830797  MISS:      61937
cpu0_L1D LOAD      ACCESS:    2304275  HIT:    2248028  MISS:      56247
cpu0_L1D RFO       ACCESS:    1588250  HIT:    1582613  MISS:       5637
cpu0_L1D PREFETCH  ACCESS:          0  HIT:          0  MISS:          0
cpu0_L1D WRITEBACK ACCESS:          0  HIT:          0  MISS:          0
cpu0_L2C TOTAL     ACCESS:      70565  HIT:      24066  MISS:      46499
cpu0_L2C LOAD      ACCESS:      58532  HIT:      16514  MISS:      42018
cpu0_L2C RFO       ACCESS:       5637  HIT:       1235  MISS:       4402
cpu0_L2C PREFETCH  ACCESS:          0  HIT:          0  MISS:          0
cpu0_L2C WRITEBACK ACCESS:       6343  HIT:       6278  MISS:         65
LLC TOTAL     ACCESS:      53690  HIT:      51367  MISS:       2323
LLC LOAD      ACCESS:      42018  HIT:      40038  MISS:       1980
LLC RFO       ACCESS:       4402  HIT:       4059  MISS:        343
LLC PREFETCH  ACCESS:          0  HIT:          0  MISS:          0
LLC WRITEBACK ACCESS:       7256  HIT:       7256  MISS:          0
Heartbeat CPU 0 instructions: 70000001 cycles: 33496414 heartbeat IPC: 1.10079 cumulative IPC: 1.46654 (Simulation time: 0 hr 54 min 6 sec) 

Region of Interest Statistics
cpu0_DTLB TOTAL     ACCESS:    3991866  HIT:    3981141  MISS:      10725
cpu0_DTLB LOAD      ACCESS:    3112483  HIT:    3102287  MISS:      10196
cpu0_DTLB RFO       ACCESS:     879383  HIT:     878854  MISS:        529
cpu0_DTLB PREFETCH  ACCESS:          0  HIT:          0  MISS:          0
cpu0_DTLB WRITEBACK ACCESS:          0  HIT:          0  MISS:          0
cpu0_ITLB TOTAL     ACCESS:    2040442  HIT:    2040439  MISS:          3
cpu0_ITLB LOAD      ACCESS:    2040442  HIT:    2040439  MISS:          3
cpu0_ITLB RFO       ACCESS:          0  HIT:          0  MISS:          0
cpu0_ITLB PREFETCH  ACCESS:          0  HIT:          0  MISS:          0
cpu0_ITLB WRITEBACK ACCESS:          0  HIT:          0  MISS:          0
cpu0_L1I TOTAL     ACCESS:     369245  HIT:     365920  MISS:       3325
cpu0_L1I LOAD      ACCESS:     369245  HIT:     365920  MISS:       3325
cpu0_L1I RFO       ACCESS:          0  HIT:          0  MISS:          0
cpu0_L1I PREFETCH  ACCESS:          0  HIT:          0  MISS:          0
cpu0_L1I WRITEBACK ACCESS:          0  HIT:          0  MISS:          0
cpu0_STLB TOTAL     ACCESS:      10728  HIT:      10488  MISS:        240
cpu0_STLB LOAD      ACCESS:      10199  HIT:       9972  MISS:        227
cpu0_STLB RFO       ACCESS:        529  HIT:        516  MISS:         13
cpu0_STLB PREFETCH  ACCESS:          0  HIT:          0  MISS:          0
cpu0_STLB WRITEBACK ACCESS:          0  HIT:          0  MISS:          0
cpu0_L1D TOTAL     ACCESS:    4515493  HIT:    4453336  MISS:      62157
cpu0_L1D LOAD      ACCESS:    2682585  HIT:    2626214  MISS:      56371
cpu0_L1D RFO       ACCESS:    1832699  HIT:    1826966  MISS:       5733
cpu0_L1D PREFETCH  ACCESS:          0  HIT:          0  MISS:          0
cpu0_L1D WRITEBACK ACCESS:          0  HIT:          0  MISS:          0
cpu0_L2C TOTAL     ACCESS:      71960  HIT:      25439  MISS:      46521
cpu0_L2C LOAD      ACCESS:      59696  HIT:      17660  MISS:      42036
cpu0_L2C RFO       ACCESS:       5733  HIT:       1327  MISS:       4406
cpu0_L2C PREFETCH  ACCESS:          0  HIT:          0  MISS:          0
cpu0_L2C WRITEBACK ACCESS:       6478  HIT:       6413  MISS:         65
LLC TOTAL     ACCESS:      53720  HIT:      51396  MISS:       2324
LLC LOAD      ACCESS:      42036  HIT:      40055  MISS:       1981
LLC RFO       ACCESS:       4406  HIT:       4063  MISS:        343
LLC PREFETCH  ACCESS:          0  HIT:          0  MISS:          0
LLC WRITEBACK ACCESS:       7264  HIT:       7264  MISS:          0
Heartbeat CPU 0 instructions: 72000001 cycles: 35071004 heartbeat IPC: 1.27017 cumulative IPC: 1.44622 (Simulation time: 0 hr 55 min 40 sec) 

Region of Interest Statistics
cpu0_DTLB TOTAL     ACCESS:    4492174  HIT:    4481013  MISS:      11161
cpu0_DTLB LOAD      ACCESS:    3522644  HIT:    3512084  MISS:      10560
cpu0_DTLB RFO       ACCESS:     969530  HIT:     968929  MISS:        601
cpu0_DTLB PREFETCH  ACCESS:          0  HIT:          0  MISS:          0
cpu0_DTLB WRITEBACK ACCESS:          0  HIT:          0  MISS:          0
cpu0_ITLB TOTAL     ACCESS:    2140210  HIT:    2140205  MISS:          5
cpu0_ITLB LOAD      ACCESS:    2140210  HIT:    2140205  MISS:          5
cpu0_ITLB RFO       ACCESS:          0  HIT:          0  MISS:          0
cpu0_ITLB PREFETCH  ACCESS:          0  HIT:          0  MISS:          0
cpu0_ITLB WRITEBACK ACCESS:          0  HIT:          0  MISS:          0
cpu0_L1I TOTAL     ACCESS:     495576  HIT:     491788  MISS:       3788
cpu0_L1I LOAD      ACCESS:     495576  HIT:     491788  MISS:       3788
cpu0_L1I RFO       ACCESS:          0  HIT:          0  MISS:          0
cpu0_L1I PREFETCH  ACCESS:          0  HIT:          0  MISS:          0
cpu0_L1I WRITEBACK ACCESS:          0  HIT:          0  MISS:          0
cpu0_STLB TOTAL     ACCESS:      11166  HIT:      10917  MISS:        249
cpu0_STLB LOAD      ACCESS:      10565  HIT:      10331  MISS:        234
cpu0_STLB RFO       ACCESS:        601  HIT:        586  MISS:         15
cpu0_STLB PREFETCH  ACCESS:          0  HIT:          0  MISS:          0
cpu0_STLB WRITEBACK ACCESS:          0  HIT:          0  MISS:          0
cpu0_L1D TOTAL     ACCESS:    5063395  HIT:    5000028  MISS:      63367
cpu0_L1D LOAD      ACCESS:    3076035  HIT:    3019237  MISS:      56798
cpu0_L1D RFO       ACCESS:    1987142  HIT:    1980627  MISS:       6515
cpu0_L1D PREFETCH  ACCESS:          0  HIT:          0  MISS:          0
cpu0_L1D WRITEBACK ACCESS:          0  HIT:          0  MISS:          0
cpu0_L2C TOTAL     ACCESS:      74272  HIT:      26454  MISS:      47818
cpu0_L2C LOAD      ACCESS:      60586  HIT:      18005  MISS:      42581
cpu0_L2C RFO       ACCESS:       6515  HIT:       1369  MISS:       5146
cpu0_L2C PREFETCH  ACCESS:          0  HIT:          0  MISS:          0
cpu0_L2C WRITEBACK ACCESS:       7117  HIT:       7040  MISS:         77
LLC TOTAL     ACCESS:      55150  HIT:      52743  MISS:       2407
LLC LOAD      ACCESS:      42581  HIT:      40551  MISS:       2030
LLC RFO       ACCESS:       5146  HIT:       4769  MISS:        377
LLC PREFETCH  ACCESS:          0  HIT:          0  MISS:          0
LLC WRITEBACK ACCESS:       7409  HIT:       7409  MISS:          0
Heartbeat CPU 0 instructions: 74000003 cycles: 36276631 heartbeat IPC: 1.65889 cumulative IPC: 1.46184 (Simulation time: 0 hr 57 min 19 sec) 

Region of Interest Statistics
cpu0_DTLB TOTAL     ACCESS:    4943285  HIT:    4931984  MISS:      11301
cpu0_DTLB LOAD      ACCESS:    3920822  HIT:    3910180  MISS:      10642
cpu0_DTLB RFO       ACCESS:    1022463  HIT:    1021804  MISS:        659
cpu0_DTLB PREFETCH  ACCESS:          0  HIT:          0  MISS:          0
cpu0_DTLB WRITEBACK ACCESS:          0  HIT:          0  MISS:          0
cpu0_ITLB TOTAL     ACCESS:    2235095  HIT:    2235090  MISS:          5
cpu0_ITLB LOAD      ACCESS:    2235095  HIT:    2235090  MISS:          5
cpu0_ITLB RFO       ACCESS:          0  HIT:          0  MISS:          0
cpu0_ITLB PREFETCH  ACCESS:          0  HIT:          0  MISS:          0
cpu0_ITLB WRITEBACK ACCESS:          0  HIT:          0  MISS:          0
cpu0_L1I TOTAL     ACCESS:     602323  HIT:     598448  MISS:       3875
cpu0_L1I LOAD      ACCESS:     602323  HIT:     598448  MISS:       3875
cpu0_L1I RFO       ACCESS:          0  HIT:          0  MISS:          0
cpu0_L1I PREFETCH  ACCESS:          0  HIT:          0  MISS:          0
cpu0_L1I WRITEBACK ACCESS:          0  HIT:          0  MISS:          0
cpu0_STLB TOTAL     ACCESS:      11306  HIT:      11046  MISS:        260
cpu0_STLB LOAD      ACCESS:      10647  HIT:      10408  MISS:        239
cpu0_STLB RFO       ACCESS:        659  HIT:        638  MISS:         21
cpu0_STLB PREFETCH  ACCESS:          0  HIT:          0  MISS:          0
cpu0_STLB WRITEBACK ACCESS:          0  HIT:          0  MISS:          0
cpu0_L1D TOTAL     ACCESS:    5511699  HIT:    5442353  MISS:      69346
cpu0_L1D LOAD      ACCESS:    3437878  HIT:    3377839  MISS:      60039
cpu0_L1D RFO       ACCESS:    2073592  HIT:    2064342  MISS:       9250
cpu0_L1D PREFETCH  ACCESS:          0  HIT:          0  MISS:          0
cpu0_L1D WRITEBACK ACCESS:          0  HIT:          0  MISS:          0
cpu0_L2C TOTAL     ACCESS:      83137  HIT:      31771  MISS:      51366
cpu0_L2C LOAD      ACCESS:      63914  HIT:      20488  MISS:      43426
cpu0_L2C RFO       ACCESS:       9250  HIT:       1403  MISS:       7847
cpu0_L2C PREFETCH  ACCESS:          0  HIT:          0  MISS:          0
cpu0_L2C WRITEBACK ACCESS:       9916  HIT:       9839  MISS:         77
LLC TOTAL     ACCESS:      60036  HIT:      57471  MISS:       2565
LLC LOAD      ACCESS:      43426  HIT:      41240  MISS:       2186
LLC RFO       ACCESS:       7847  HIT:       7469  MISS:        378
LLC PREFETCH  ACCESS:          0  HIT:          0  MISS:          0
LLC WRITEBACK ACCESS:       8747  HIT:       8746  MISS:          1
Heartbeat CPU 0 instructions: 76000002 cycles: 37482877 heartbeat IPC: 1.65804 cumulative IPC: 1.47526 (Simulation time: 0 hr 59 min 3 sec) 

Region of Interest Statistics
cpu0_DTLB TOTAL     ACCESS:    5395551  HIT:    5384108  MISS:      11443
cpu0_DTLB LOAD      ACCESS:    4320072  HIT:    4309347  MISS:      10725
cpu0_DTLB RFO       ACCESS:    1075479  HIT:    1074761  MISS:        718
cpu0_DTLB PREFETCH  ACCESS:          0  HIT:          0  MISS:          0
cpu0_DTLB WRITEBACK ACCESS:          0  HIT:          0  MISS:          0
cpu0_ITLB TOTAL     ACCESS:    2329923  HIT:    2329918  MISS:          5
cpu0_ITLB LOAD      ACCESS:    2329923  HIT:    2329918  MISS:          5
cpu0_ITLB RFO       ACCESS:          0  HIT:          0  MISS:          0
cpu0_ITLB PREFETCH  ACCESS:          0  HIT:          0  MISS:          0
cpu0_ITLB WRITEBACK ACCESS:          0  HIT:          0  MISS:          0
cpu0_L1I TOTAL     ACCESS:     709043  HIT:     705165  MISS:       3878
cpu0_L1I LOAD      ACCESS:     709043  HIT:     705165  MISS:       3878
cpu0_L1I RFO       ACCESS:          0  HIT:          0  MISS:          0
cpu0_L1I PREFETCH  ACCESS:          0  HIT:          0  MISS:          0
cpu0_L1I WRITEBACK ACCESS:          0  HIT:          0  MISS:          0
cpu0_STLB TOTAL     ACCESS:      11448  HIT:      11179  MISS:        269
cpu0_STLB LOAD      ACCESS:      10730  HIT:      10489  MISS:        241
cpu0_STLB RFO       ACCESS:        718  HIT:        690  MISS:         28
cpu0_STLB PREFETCH  ACCESS:          0  HIT:          0  MISS:          0
cpu0_STLB WRITEBACK ACCESS:          0  HIT:          0  MISS:          0
cpu0_L1D TOTAL     ACCESS:    5962728  HIT:    5887365  MISS:      75363
cpu0_L1D LOAD      ACCESS:    3802791  HIT:    3739474  MISS:      63317
cpu0_L1D RFO       ACCESS:    2159699  HIT:    2147714  MISS:      11985
cpu0_L1D PREFETCH  ACCESS:          0  HIT:          0  MISS:          0
cpu0_L1D WRITEBACK ACCESS:          0  HIT:          0  MISS:          0
cpu0_L2C TOTAL     ACCESS:      92007  HIT:      37470  MISS:      54537
cpu0_L2C LOAD      ACCESS:      67195  HIT:      23290  MISS:      43905
cpu0_L2C RFO       ACCESS:      11985  HIT:       1447  MISS:      10538
cpu0_L2C PREFETCH  ACCESS:          0  HIT:          0  MISS:          0
cpu0_L2C WRITEBACK ACCESS:      12766  HIT:      12689  MISS:         77
LLC TOTAL     ACCESS:      65379  HIT:      62594  MISS:       2785
LLC LOAD      ACCESS:      43905  HIT:      41527  MISS:       2378
LLC RFO       ACCESS:      10538  HIT:      10132  MISS:        406
LLC PREFETCH  ACCESS:          0  HIT:          0  MISS:          0
LLC WRITEBACK ACCESS:      10919  HIT:      10918  MISS:          1
Heartbeat CPU 0 instructions: 78000002 cycles: 38686184 heartbeat IPC: 1.66209 cumulative IPC: 1.4872 (Simulation time: 1 hr 0 min 51 sec) 

Region of Interest Statistics
cpu0_DTLB TOTAL     ACCESS:    5849426  HIT:    5837838  MISS:      11588
cpu0_DTLB LOAD      ACCESS:    4721044  HIT:    4710233  MISS:      10811
cpu0_DTLB RFO       ACCESS:    1128382  HIT:    1127605  MISS:        777
cpu0_DTLB PREFETCH  ACCESS:          0  HIT:          0  MISS:          0
cpu0_DTLB WRITEBACK ACCESS:          0  HIT:          0  MISS:          0
cpu0_ITLB TOTAL     ACCESS:    2424523  HIT:    2424518  MISS:          5
cpu0_ITLB LOAD      ACCESS:    2424523  HIT:    2424518  MISS:          5
cpu0_ITLB RFO       ACCESS:          0  HIT:          0  MISS:          0
cpu0_ITLB PREFETCH  ACCESS:          0  HIT:          0  MISS:          0
cpu0_ITLB WRITEBACK ACCESS:          0  HIT:          0  MISS:          0
cpu0_L1I TOTAL     ACCESS:     815690  HIT:     811811  MISS:       3879
cpu0_L1I LOAD      ACCESS:     815690  HIT:     811811  MISS:       3879
cpu0_L1I RFO       ACCESS:          0  HIT:          0  MISS:          0
cpu0_L1I PREFETCH  ACCESS:          0  HIT:          0  MISS:          0
cpu0_L1I WRITEBACK ACCESS:          0  HIT:          0  MISS:          0
cpu0_STLB TOTAL     ACCESS:      11593  HIT:      11315  MISS:        278
cpu0_STLB LOAD      ACCESS:      10816  HIT:      10572  MISS:        244
cpu0_STLB RFO       ACCESS:        777  HIT:        743  MISS:         34
cpu0_STLB PREFETCH  ACCESS:          0  HIT:          0  MISS:          0
cpu0_STLB WRITEBACK ACCESS:          0  HIT:          0  MISS:          0
cpu0_L1D TOTAL     ACCESS:    6417303  HIT:    6335938  MISS:      81365
cpu0_L1D LOAD      ACCESS:    4171224  HIT:    4104647  MISS:      66577
cpu0_L1D RFO       ACCESS:    2245832  HIT:    2231109  MISS:      14723
cpu0_L1D PREFETCH  ACCESS:          0  HIT:          0  MISS:          0
cpu0_L1D WRITEBACK ACCESS:          0  HIT:          0  MISS:          0
cpu0_L2C TOTAL     ACCESS:     100842  HIT:      43153  MISS:      57689
cpu0_L2C LOAD      ACCESS:      70456  HIT:      26096  MISS:      44360
cpu0_L2C RFO       ACCESS:      14723  HIT:       1489  MISS:      13234
cpu0_L2C PREFETCH  ACCESS:          0  HIT:          0  MISS:          0
cpu0_L2C WRITEBACK ACCESS:      15598  HIT:      15520  MISS:         78
LLC TOTAL     ACCESS:      71176  HIT:      68195  MISS:       2981
LLC LOAD      ACCESS:      44360  HIT:      41845  MISS:       2515
LLC RFO       ACCESS:      13234  HIT:      12769  MISS:        465
LLC PREFETCH  ACCESS:          0  HIT:          0  MISS:          0
LLC WRITEBACK ACCESS:      13565  HIT:      13564  MISS:          1
Heartbeat CPU 0 instructions: 80000001 cycles: 39888593 heartbeat IPC: 1.66333 cumulative IPC: 1.49778 (Simulation time: 1 hr 2 min 36 sec) 

Region of Interest Statistics
cpu0_DTLB TOTAL     ACCESS:    6305172  HIT:    6293441  MISS:      11731
cpu0_DTLB LOAD      ACCESS:    5123703  HIT:    5112808  MISS:      10895
cpu0_DTLB RFO       ACCESS:    1181469  HIT:    1180633  MISS:        836
cpu0_DTLB PREFETCH  ACCESS:          0  HIT:          0  MISS:          0
cpu0_DTLB WRITEBACK ACCESS:          0  HIT:          0  MISS:          0
cpu0_ITLB TOTAL     ACCESS:    2519334  HIT:    2519329  MISS:          5
cpu0_ITLB LOAD      ACCESS:    2519334  HIT:    2519329  MISS:          5
cpu0_ITLB RFO       ACCESS:          0  HIT:          0  MISS:          0
cpu0_ITLB PREFETCH  ACCESS:          0  HIT:          0  MISS:          0
cpu0_ITLB WRITEBACK ACCESS:          0  HIT:          0  MISS:          0
cpu0_L1I TOTAL     ACCESS:     921562  HIT:     917682  MISS:       3880
cpu0_L1I LOAD      ACCESS:     921562  HIT:     917682  MISS:       3880
cpu0_L1I RFO       ACCESS:          0  HIT:          0  MISS:          0
cpu0_L1I PREFETCH  ACCESS:          0  HIT:          0  MISS:          0
cpu0_L1I WRITEBACK ACCESS:          0  HIT:          0  MISS:          0
cpu0_STLB TOTAL     ACCESS:      11736  HIT:      11447  MISS:        289
cpu0_STLB LOAD      ACCESS:      10900  HIT:      10655  MISS:        245
cpu0_STLB RFO       ACCESS:        836  HIT:        792  MISS:         44
cpu0_STLB PREFETCH  ACCESS:          0  HIT:          0  MISS:          0
cpu0_STLB WRITEBACK ACCESS:          0  HIT:          0  MISS:          0
cpu0_L1D TOTAL     ACCESS:    6877310  HIT:    6789942  MISS:      87368
cpu0_L1D LOAD      ACCESS:    4544910  HIT:    4475069  MISS:      69841
cpu0_L1D RFO       ACCESS:    2332142  HIT:    2314684  MISS:      17458
cpu0_L1D PREFETCH  ACCESS:          0  HIT:          0  MISS:          0
cpu0_L1D WRITEBACK ACCESS:          0  HIT:          0  MISS:          0
cpu0_L2C TOTAL     ACCESS:     109628  HIT:      48718  MISS:      60910
cpu0_L2C LOAD      ACCESS:      73721  HIT:      28833  MISS:      44888
cpu0_L2C RFO       ACCESS:      17458  HIT:       1532  MISS:      15926
cpu0_L2C PREFETCH  ACCESS:          0  HIT:          0  MISS:          0
cpu0_L2C WRITEBACK ACCESS:      18380  HIT:      18301  MISS:         79
LLC TOTAL     ACCESS:      77020  HIT:      73906  MISS:       3114
LLC LOAD      ACCESS:      44888  HIT:      42280  MISS:       2608
LLC RFO       ACCESS:      15926  HIT:      15421  MISS:        505
LLC PREFETCH  ACCESS:          0  HIT:          0  MISS:          0
LLC WRITEBACK ACCESS:      16189  HIT:      16188  MISS:          1
Heartbeat CPU 0 instructions: 82000003 cycles: 41103653 heartbeat IPC: 1.64601 cumulative IPC: 1.50626 (Simulation time: 1 hr 4 min 24 sec) 

Region of Interest Statistics
cpu0_DTLB TOTAL     ACCESS:    6765221  HIT:    6753407  MISS:      11814
cpu0_DTLB LOAD      ACCESS:    5532768  HIT:    5521831  MISS:      10937
cpu0_DTLB RFO       ACCESS:    1232453  HIT:    1231576  MISS:        877
cpu0_DTLB PREFETCH  ACCESS:          0  HIT:          0  MISS:          0
cpu0_DTLB WRITEBACK ACCESS:          0  HIT:          0  MISS:          0
cpu0_ITLB TOTAL     ACCESS:    2608727  HIT:    2608722  MISS:          5
cpu0_ITLB LOAD      ACCESS:    2608727  HIT:    2608722  MISS:          5
cpu0_ITLB RFO       ACCESS:          0  HIT:          0  MISS:          0
cpu0_ITLB PREFETCH  ACCESS:          0  HIT:          0  MISS:          0
cpu0_ITLB WRITEBACK ACCESS:          0  HIT:          0  MISS:          0
cpu0_L1I TOTAL     ACCESS:    1030951  HIT:    1027071  MISS:       3880
cpu0_L1I LOAD      ACCESS:    1030951  HIT:    1027071  MISS:       3880
cpu0_L1I RFO       ACCESS:          0  HIT:          0  MISS:          0
cpu0_L1I PREFETCH  ACCESS:          0  HIT:          0  MISS:          0
cpu0_L1I WRITEBACK ACCESS:          0  HIT:          0  MISS:          0
cpu0_STLB TOTAL     ACCESS:      11819  HIT:      11521  MISS:        298
cpu0_STLB LOAD      ACCESS:      10942  HIT:      10695  MISS:        247
cpu0_STLB RFO       ACCESS:        877  HIT:        826  MISS:         51
cpu0_STLB PREFETCH  ACCESS:          0  HIT:          0  MISS:          0
cpu0_STLB WRITEBACK ACCESS:          0  HIT:          0  MISS:          0
cpu0_L1D TOTAL     ACCESS:    7339205  HIT:    7246000  MISS:      93205
cpu0_L1D LOAD      ACCESS:    4925729  HIT:    4852775  MISS:      72954
cpu0_L1D RFO       ACCESS:    2413209  HIT:    2393031  MISS:      20178
cpu0_L1D PREFETCH  ACCESS:          0  HIT:          0  MISS:          0
cpu0_L1D WRITEBACK ACCESS:          0  HIT:          0  MISS:          0
cpu0_L2C TOTAL     ACCESS:     118044  HIT:      53977  MISS:      64067
cpu0_L2C LOAD      ACCESS:      76834  HIT:      31490  MISS:      45344
cpu0_L2C RFO       ACCESS:      20178  HIT:       1551  MISS:      18627
cpu0_L2C PREFETCH  ACCESS:          0  HIT:          0  MISS:          0
cpu0_L2C WRITEBACK ACCESS:      20959  HIT:      20880  MISS:         79
LLC TOTAL     ACCESS:      83015  HIT:      79814  MISS:       3201
LLC LOAD      ACCESS:      45344  HIT:      42698  MISS:       2646
LLC RFO       ACCESS:      18627  HIT:      18073  MISS:        554
LLC PREFETCH  ACCESS:          0  HIT:          0  MISS:          0
LLC WRITEBACK ACCESS:      19027  HIT:      19026  MISS:          1
Heartbeat CPU 0 instructions: 84000002 cycles: 42375823 heartbeat IPC: 1.57212 cumulative IPC: 1.50998 (Simulation time: 1 hr 6 min 17 sec) 

Region of Interest Statistics
cpu0_DTLB TOTAL     ACCESS:    7235172  HIT:    7223279  MISS:      11893
cpu0_DTLB LOAD      ACCESS:    5955285  HIT:    5944297  MISS:      10988
cpu0_DTLB RFO       ACCESS:    1279887  HIT:    1278982  MISS:        905
cpu0_DTLB PREFETCH  ACCESS:          0  HIT:          0  MISS:          0
cpu0_DTLB WRITEBACK ACCESS:          0  HIT:          0  MISS:          0
cpu0_ITLB TOTAL     ACCESS:    2680613  HIT:    2680608  MISS:          5
cpu0_ITLB LOAD      ACCESS:    2680613  HIT:    2680608  MISS:          5
cpu0_ITLB RFO       ACCESS:          0  HIT:          0  MISS:          0
cpu0_ITLB PREFETCH  ACCESS:          0  HIT:          0  MISS:          0
cpu0_ITLB WRITEBACK ACCESS:          0  HIT:          0  MISS:          0
cpu0_L1I TOTAL     ACCESS:    1151790  HIT:    1147910  MISS:       3880
cpu0_L1I LOAD      ACCESS:    1151790  HIT:    1147910  MISS:       3880
cpu0_L1I RFO       ACCESS:          0  HIT:          0  MISS:          0
cpu0_L1I PREFETCH  ACCESS:          0  HIT:          0  MISS:          0
cpu0_L1I WRITEBACK ACCESS:          0  HIT:          0  MISS:          0
cpu0_STLB TOTAL     ACCESS:      11898  HIT:      11591  MISS:        307
cpu0_STLB LOAD      ACCESS:      10993  HIT:      10740  MISS:        253
cpu0_STLB RFO       ACCESS:        905  HIT:        851  MISS:         54
cpu0_STLB PREFETCH  ACCESS:          0  HIT:          0  MISS:          0
cpu0_STLB WRITEBACK ACCESS:          0  HIT:          0  MISS:          0
cpu0_L1D TOTAL     ACCESS:    7822814  HIT:    7726582  MISS:      96232
cpu0_L1D LOAD      ACCESS:    5327591  HIT:    5253283  MISS:      74308
cpu0_L1D RFO       ACCESS:    2494947  HIT:    2473099  MISS:      21848
cpu0_L1D PREFETCH  ACCESS:          0  HIT:          0  MISS:          0
cpu0_L1D WRITEBACK ACCESS:          0  HIT:          0  MISS:          0
cpu0_L2C TOTAL     ACCESS:     123019  HIT:      57099  MISS:      65920
cpu0_L2C LOAD      ACCESS:      78188  HIT:      32633  MISS:      45555
cpu0_L2C RFO       ACCESS:      21848  HIT:       1579  MISS:      20269
cpu0_L2C PREFETCH  ACCESS:          0  HIT:          0  MISS:          0
cpu0_L2C WRITEBACK ACCESS:      22907  HIT:      22828  MISS:         79
LLC TOTAL     ACCESS:      86389  HIT:      83127  MISS:       3262
LLC LOAD      ACCESS:      45555  HIT:      42883  MISS:       2672
LLC RFO       ACCESS:      20269  HIT:      19680  MISS:        589
LLC PREFETCH  ACCESS:          0  HIT:          0  MISS:          0
LLC WRITEBACK ACCESS:      20548  HIT:      20547  MISS:          1
Heartbeat CPU 0 instructions: 86000000 cycles: 43596248 heartbeat IPC: 1.63877 cumulative IPC: 1.5166 (Simulation time: 1 hr 8 min 5 sec) 

Region of Interest Statistics
cpu0_DTLB TOTAL     ACCESS:    7693255  HIT:    7681223  MISS:      12032
cpu0_DTLB LOAD      ACCESS:    6361651  HIT:    6350573  MISS:      11078
cpu0_DTLB RFO       ACCESS:    1331604  HIT:    1330650  MISS:        954
cpu0_DTLB PREFETCH  ACCESS:          0  HIT:          0  MISS:          0
cpu0_DTLB WRITEBACK ACCESS:          0  HIT:          0  MISS:          0
cpu0_ITLB TOTAL     ACCESS:    2776762  HIT:    2776757  MISS:          5
cpu0_ITLB LOAD      ACCESS:    2776762  HIT:    2776757  MISS:          5
cpu0_ITLB RFO       ACCESS:          0  HIT:          0  MISS:          0
cpu0_ITLB PREFETCH  ACCESS:          0  HIT:          0  MISS:          0
cpu0_ITLB WRITEBACK ACCESS:          0  HIT:          0  MISS:          0
cpu0_L1I TOTAL     ACCESS:    1259933  HIT:    1256042  MISS:       3891
cpu0_L1I LOAD      ACCESS:    1259933  HIT:    1256042  MISS:       3891
cpu0_L1I RFO       ACCESS:          0  HIT:          0  MISS:          0
cpu0_L1I PREFETCH  ACCESS:          0  HIT:          0  MISS:          0
cpu0_L1I WRITEBACK ACCESS:          0  HIT:          0  MISS:          0
cpu0_STLB TOTAL     ACCESS:      12037  HIT:      11717  MISS:        320
cpu0_STLB LOAD      ACCESS:      11083  HIT:      10830  MISS:        253
cpu0_STLB RFO       ACCESS:        954  HIT:        887  MISS:         67
cpu0_STLB PREFETCH  ACCESS:          0  HIT:          0  MISS:          0
cpu0_STLB WRITEBACK ACCESS:          0  HIT:          0  MISS:          0
cpu0_L1D TOTAL     ACCESS:    8289754  HIT:    8188928  MISS:     100826
cpu0_L1D LOAD      ACCESS:    5707205  HIT:    5630544  MISS:      76661
cpu0_L1D RFO       ACCESS:    2582260  HIT:    2558174  MISS:      24086
cpu0_L1D PREFETCH  ACCESS:          0  HIT:          0  MISS:          0
cpu0_L1D WRITEBACK ACCESS:          0  HIT:          0  MISS:          0
cpu0_L2C TOTAL     ACCESS:     129570  HIT:      60932  MISS:      68638
cpu0_L2C LOAD      ACCESS:      80552  HIT:      34488  MISS:      46064
cpu0_L2C RFO       ACCESS:      24086  HIT:       1608  MISS:      22478
cpu0_L2C PREFETCH  ACCESS:          0  HIT:          0  MISS:          0
cpu0_L2C WRITEBACK ACCESS:      24853  HIT:      24774  MISS:         79
LLC TOTAL     ACCESS:      91458  HIT:      88080  MISS:       3378
LLC LOAD      ACCESS:      46064  HIT:      43306  MISS:       2758
LLC RFO       ACCESS:      22478  HIT:      21859  MISS:        619
LLC PREFETCH  ACCESS:          0  HIT:          0  MISS:          0
LLC WRITEBACK ACCESS:      22899  HIT:      22898  MISS:          1
Heartbeat CPU 0 instructions: 88000002 cycles: 44797615 heartbeat IPC: 1.66477 cumulative IPC: 1.52374 (Simulation time: 1 hr 9 min 53 sec) 

Region of Interest Statistics
cpu0_DTLB TOTAL     ACCESS:    8147146  HIT:    8134959  MISS:      12187
cpu0_DTLB LOAD      ACCESS:    6762448  HIT:    6751275  MISS:      11173
cpu0_DTLB RFO       ACCESS:    1384698  HIT:    1383684  MISS:       1014
cpu0_DTLB PREFETCH  ACCESS:          0  HIT:          0  MISS:          0
cpu0_DTLB WRITEBACK ACCESS:          0  HIT:          0  MISS:          0
cpu0_ITLB TOTAL     ACCESS:    2871682  HIT:    2871677  MISS:          5
cpu0_ITLB LOAD      ACCESS:    2871682  HIT:    2871677  MISS:          5
cpu0_ITLB RFO       ACCESS:          0  HIT:          0  MISS:          0
cpu0_ITLB PREFETCH  ACCESS:          0  HIT:          0  MISS:          0
cpu0_ITLB WRITEBACK ACCESS:          0  HIT:          0  MISS:          0
cpu0_L1I TOTAL     ACCESS:    1365540  HIT:    1361649  MISS:       3891
cpu0_L1I LOAD      ACCESS:    1365540  HIT:    1361649  MISS:       3891
cpu0_L1I RFO       ACCESS:          0  HIT:          0  MISS:          0
cpu0_L1I PREFETCH  ACCESS:          0  HIT:          0  MISS:          0
cpu0_L1I WRITEBACK ACCESS:          0  HIT:          0  MISS:          0
cpu0_STLB TOTAL     ACCESS:      12192  HIT:      11850  MISS:        342
cpu0_STLB LOAD      ACCESS:      11178  HIT:      10917  MISS:        261
cpu0_STLB RFO       ACCESS:       1014  HIT:        933  MISS:         81
cpu0_STLB PREFETCH  ACCESS:          0  HIT:          0  MISS:          0
cpu0_STLB WRITEBACK ACCESS:          0  HIT:          0  MISS:          0
cpu0_L1D TOTAL     ACCESS:    8744097  HIT:    8637245  MISS:     106852
cpu0_L1D LOAD      ACCESS:    6075277  HIT:    5995330  MISS:      79947
cpu0_L1D RFO       ACCESS:    2668509  HIT:    2641687  MISS:      26822
cpu0_L1D PREFETCH  ACCESS:          0  HIT:          0  MISS:          0
cpu0_L1D WRITEBACK ACCESS:          0  HIT:          0  MISS:          0
cpu0_L2C TOTAL     ACCESS:     138367  HIT:      66546  MISS:      71821
cpu0_L2C LOAD      ACCESS:      83838  HIT:      37292  MISS:      46546
cpu0_L2C RFO       ACCESS:      26822  HIT:       1645  MISS:      25177
cpu0_L2C PREFETCH  ACCESS:          0  HIT:          0  MISS:          0
cpu0_L2C WRITEBACK ACCESS:      27624  HIT:      27544  MISS:         80
LLC TOTAL     ACCESS:      97392  HIT:      93866  MISS:       3526
LLC LOAD      ACCESS:      46546  HIT:      43716  MISS:       2830
LLC RFO       ACCESS:      25177  HIT:      24482  MISS:        695
LLC PREFETCH  ACCESS:          0  HIT:          0  MISS:          0
LLC WRITEBACK ACCESS:      25651  HIT:      25650  MISS:          1
Heartbeat CPU 0 instructions: 90000001 cycles: 45998942 heartbeat IPC: 1.66482 cumulative IPC: 1.53022 (Simulation time: 1 hr 11 min 33 sec) 

Region of Interest Statistics
cpu0_DTLB TOTAL     ACCESS:    8600758  HIT:    8588420  MISS:      12338
cpu0_DTLB LOAD      ACCESS:    7163047  HIT:    7151780  MISS:      11267
cpu0_DTLB RFO       ACCESS:    1437711  HIT:    1436640  MISS:       1071
cpu0_DTLB PREFETCH  ACCESS:          0  HIT:          0  MISS:          0
cpu0_DTLB WRITEBACK ACCESS:          0  HIT:          0  MISS:          0
cpu0_ITLB TOTAL     ACCESS:    2966606  HIT:    2966601  MISS:          5
cpu0_ITLB LOAD      ACCESS:    2966606  HIT:    2966601  MISS:          5
cpu0_ITLB RFO       ACCESS:          0  HIT:          0  MISS:          0
cpu0_ITLB PREFETCH  ACCESS:          0  HIT:          0  MISS:          0
cpu0_ITLB WRITEBACK ACCESS:          0  HIT:          0  MISS:          0
cpu0_L1I TOTAL     ACCESS:    1471637  HIT:    1467746  MISS:       3891
cpu0_L1I LOAD      ACCESS:    1471637  HIT:    1467746  MISS:       3891
cpu0_L1I RFO       ACCESS:          0  HIT:          0  MISS:          0
cpu0_L1I PREFETCH  ACCESS:          0  HIT:          0  MISS:          0
cpu0_L1I WRITEBACK ACCESS:          0  HIT:          0  MISS:          0
cpu0_STLB TOTAL     ACCESS:      12343  HIT:      11984  MISS:        359
cpu0_STLB LOAD      ACCESS:      11272  HIT:      11006  MISS:        266
cpu0_STLB RFO       ACCESS:       1071  HIT:        978  MISS:         93
cpu0_STLB PREFETCH  ACCESS:          0  HIT:          0  MISS:          0
cpu0_STLB WRITEBACK ACCESS:          0  HIT:          0  MISS:          0
cpu0_L1D TOTAL     ACCESS:    9197113  HIT:    9084256  MISS:     112857
cpu0_L1D LOAD      ACCESS:    6442098  HIT:    6358886  MISS:      83212
cpu0_L1D RFO       ACCESS:    2754688  HIT:    2725129  MISS:      29559
cpu0_L1D PREFETCH  ACCESS:          0  HIT:          0  MISS:          0
cpu0_L1D WRITEBACK ACCESS:          0  HIT:          0  MISS:          0
cpu0_L2C TOTAL     ACCESS:     147119  HIT:      72042  MISS:      75077
cpu0_L2C LOAD      ACCESS:      87103  HIT:      40001  MISS:      47102
cpu0_L2C RFO       ACCESS:      29559  HIT:       1683  MISS:      27876
cpu0_L2C PREFETCH  ACCESS:          0  HIT:          0  MISS:          0
cpu0_L2C WRITEBACK ACCESS:      30371  HIT:      30291  MISS:         80
LLC TOTAL     ACCESS:     103369  HIT:      99690  MISS:       3679
LLC LOAD      ACCESS:      47102  HIT:      44177  MISS:       2925
LLC RFO       ACCESS:      27876  HIT:      27123  MISS:        753
LLC PREFETCH  ACCESS:          0  HIT:          0  MISS:          0
LLC WRITEBACK ACCESS:      28372  HIT:      28371  MISS:          1
Heartbeat CPU 0 instructions: 92000002 cycles: 47198999 heartbeat IPC: 1.66659 cumulative IPC: 1.53621 (Simulation time: 1 hr 13 min 13 sec) 

Region of Interest Statistics
cpu0_DTLB TOTAL     ACCESS:    9053801  HIT:    9041299  MISS:      12502
cpu0_DTLB LOAD      ACCESS:    7563191  HIT:    7551821  MISS:      11370
cpu0_DTLB RFO       ACCESS:    1490610  HIT:    1489478  MISS:       1132
cpu0_DTLB PREFETCH  ACCESS:          0  HIT:          0  MISS:          0
cpu0_DTLB WRITEBACK ACCESS:          0  HIT:          0  MISS:          0
cpu0_ITLB TOTAL     ACCESS:    3061517  HIT:    3061512  MISS:          5
cpu0_ITLB LOAD      ACCESS:    3061517  HIT:    3061512  MISS:          5
cpu0_ITLB RFO       ACCESS:          0  HIT:          0  MISS:          0
cpu0_ITLB PREFETCH  ACCESS:          0  HIT:          0  MISS:          0
cpu0_ITLB WRITEBACK ACCESS:          0  HIT:          0  MISS:          0
cpu0_L1I TOTAL     ACCESS:    1577862  HIT:    1573971  MISS:       3891
cpu0_L1I LOAD      ACCESS:    1577862  HIT:    1573971  MISS:       3891
cpu0_L1I RFO       ACCESS:          0  HIT:          0  MISS:          0
cpu0_L1I PREFETCH  ACCESS:          0  HIT:          0  MISS:          0
cpu0_L1I WRITEBACK ACCESS:          0  HIT:          0  MISS:          0
cpu0_STLB TOTAL     ACCESS:      12507  HIT:      12126  MISS:        381
cpu0_STLB LOAD      ACCESS:      11375  HIT:      11102  MISS:        273
cpu0_STLB RFO       ACCESS:       1132  HIT:       1024  MISS:        108
cpu0_STLB PREFETCH  ACCESS:          0  HIT:          0  MISS:          0
cpu0_STLB WRITEBACK ACCESS:          0  HIT:          0  MISS:          0
cpu0_L1D TOTAL     ACCESS:    9649415  HIT:    9530524  MISS:     118891
cpu0_L1D LOAD      ACCESS:    6808185  HIT:    6721678  MISS:      86507
cpu0_L1D RFO       ACCESS:    2840883  HIT:    2808590  MISS:      32293
cpu0_L1D PREFETCH  ACCESS:          0  HIT:          0  MISS:          0
cpu0_L1D WRITEBACK ACCESS:          0  HIT:          0  MISS:          0
cpu0_L2C TOTAL     ACCESS:     155934  HIT:      77716  MISS:      78218
cpu0_L2C LOAD      ACCESS:      90398  HIT:      42854  MISS:      47544
cpu0_L2C RFO       ACCESS:      32293  HIT:       1719  MISS:      30574
cpu0_L2C PREFETCH  ACCESS:          0  HIT:          0  MISS:          0
cpu0_L2C WRITEBACK ACCESS:      33152  HIT:      33072  MISS:         80
LLC TOTAL     ACCESS:     109100  HIT:     105330  MISS:       3770
LLC LOAD      ACCESS:      47544  HIT:      44545  MISS:       2999
LLC RFO       ACCESS:      30574  HIT:      29804  MISS:        770
LLC PREFETCH  ACCESS:          0  HIT:          0  MISS:          0
LLC WRITEBACK ACCESS:      30962  HIT:      30961  MISS:          1
Heartbeat CPU 0 instructions: 94000001 cycles: 48232600 heartbeat IPC: 1.93498 cumulative IPC: 1.55073 (Simulation time: 1 hr 14 min 38 sec) 

Region of Interest Statistics
cpu0_DTLB TOTAL     ACCESS:    9461753  HIT:    9448826  MISS:      12927
cpu0_DTLB LOAD      ACCESS:    7900117  HIT:    7888381  MISS:      11736
cpu0_DTLB RFO       ACCESS:    1561636  HIT:    1560445  MISS:       1191
cpu0_DTLB PREFETCH  ACCESS:          0  HIT:          0  MISS:          0
cpu0_DTLB WRITEBACK ACCESS:          0  HIT:          0  MISS:          0
cpu0_ITLB TOTAL     ACCESS:    3217351  HIT:    3217346  MISS:          5
cpu0_ITLB LOAD      ACCESS:    3217351  HIT:    3217346  MISS:          5
cpu0_ITLB RFO       ACCESS:          0  HIT:          0  MISS:          0
cpu0_ITLB PREFETCH  ACCESS:          0  HIT:          0  MISS:          0
cpu0_ITLB WRITEBACK ACCESS:          0  HIT:          0  MISS:          0
cpu0_L1I TOTAL     ACCESS:    1638430  HIT:    1634511  MISS:       3919
cpu0_L1I LOAD      ACCESS:    1638430  HIT:    1634511  MISS:       3919
cpu0_L1I RFO       ACCESS:          0  HIT:          0  MISS:          0
cpu0_L1I PREFETCH  ACCESS:          0  HIT:          0  MISS:          0
cpu0_L1I WRITEBACK ACCESS:          0  HIT:          0  MISS:          0
cpu0_STLB TOTAL     ACCESS:      12932  HIT:      12536  MISS:        396
cpu0_STLB LOAD      ACCESS:      11741  HIT:      11458  MISS:        283
cpu0_STLB RFO       ACCESS:       1191  HIT:       1078  MISS:        113
cpu0_STLB PREFETCH  ACCESS:          0  HIT:          0  MISS:          0
cpu0_STLB WRITEBACK ACCESS:          0  HIT:          0  MISS:          0
cpu0_L1D TOTAL     ACCESS:   10082254  HIT:    9956166  MISS:     126088
cpu0_L1D LOAD      ACCESS:    7104158  HIT:    7012827  MISS:      91331
cpu0_L1D RFO       ACCESS:    2977734  HIT:    2943074  MISS:      34660
cpu0_L1D PREFETCH  ACCESS:          0  HIT:          0  MISS:          0
cpu0_L1D WRITEBACK ACCESS:          0  HIT:          0  MISS:          0
cpu0_L2C TOTAL     ACCESS:     166051  HIT:      83469  MISS:      82582
cpu0_L2C LOAD      ACCESS:      95250  HIT:      45689  MISS:      49561
cpu0_L2C RFO       ACCESS:      34660  HIT:       1741  MISS:      32919
cpu0_L2C PREFETCH  ACCESS:          0  HIT:          0  MISS:          0
cpu0_L2C WRITEBACK ACCESS:      36044  HIT:      35964  MISS:         80
LLC TOTAL     ACCESS:     117188  HIT:     113239  MISS:       3949
LLC LOAD      ACCESS:      49561  HIT:      46500  MISS:       3061
LLC RFO       ACCESS:      32919  HIT:      32032  MISS:        887
LLC PREFETCH  ACCESS:          0  HIT:          0  MISS:          0
LLC WRITEBACK ACCESS:      34686  HIT:      34685  MISS:          1
Heartbeat CPU 0 instructions: 96000002 cycles: 49076484 heartbeat IPC: 2.37 cumulative IPC: 1.5744 (Simulation time: 1 hr 15 min 39 sec) 

Region of Interest Statistics
cpu0_DTLB TOTAL     ACCESS:    9810272  HIT:    9796379  MISS:      13893
cpu0_DTLB LOAD      ACCESS:    8153600  HIT:    8140949  MISS:      12651
cpu0_DTLB RFO       ACCESS:    1656672  HIT:    1655430  MISS:       1242
cpu0_DTLB PREFETCH  ACCESS:          0  HIT:          0  MISS:          0
cpu0_DTLB WRITEBACK ACCESS:          0  HIT:          0  MISS:          0
cpu0_ITLB TOTAL     ACCESS:    3450742  HIT:    3450737  MISS:          5
cpu0_ITLB LOAD      ACCESS:    3450742  HIT:    3450737  MISS:          5
cpu0_ITLB RFO       ACCESS:          0  HIT:          0  MISS:          0
cpu0_ITLB PREFETCH  ACCESS:          0  HIT:          0  MISS:          0
cpu0_ITLB WRITEBACK ACCESS:          0  HIT:          0  MISS:          0
cpu0_L1I TOTAL     ACCESS:    1643198  HIT:    1639243  MISS:       3955
cpu0_L1I LOAD      ACCESS:    1643198  HIT:    1639243  MISS:       3955
cpu0_L1I RFO       ACCESS:          0  HIT:          0  MISS:          0
cpu0_L1I PREFETCH  ACCESS:          0  HIT:          0  MISS:          0
cpu0_L1I WRITEBACK ACCESS:          0  HIT:          0  MISS:          0
cpu0_STLB TOTAL     ACCESS:      13898  HIT:      13499  MISS:        399
cpu0_STLB LOAD      ACCESS:      12656  HIT:      12370  MISS:        286
cpu0_STLB RFO       ACCESS:       1242  HIT:       1129  MISS:        113
cpu0_STLB PREFETCH  ACCESS:          0  HIT:          0  MISS:          0
cpu0_STLB WRITEBACK ACCESS:          0  HIT:          0  MISS:          0
cpu0_L1D TOTAL     ACCESS:   10511289  HIT:   10380230  MISS:     131059
cpu0_L1D LOAD      ACCESS:    7312968  HIT:    7216898  MISS:      96070
cpu0_L1D RFO       ACCESS:    3197956  HIT:    3163067  MISS:      34889
cpu0_L1D PREFETCH  ACCESS:          0  HIT:          0  MISS:          0
cpu0_L1D WRITEBACK ACCESS:          0  HIT:          0  MISS:          0
cpu0_L2C TOTAL     ACCESS:     171301  HIT:      85492  MISS:      85809
cpu0_L2C LOAD      ACCESS:     100025  HIT:      47396  MISS:      52629
cpu0_L2C RFO       ACCESS:      34889  HIT:       1813  MISS:      33076
cpu0_L2C PREFETCH  ACCESS:          0  HIT:          0  MISS:          0
cpu0_L2C WRITEBACK ACCESS:      36287  HIT:      36205  MISS:         82
LLC TOTAL     ACCESS:     122083  HIT:     118108  MISS:       3975
LLC LOAD      ACCESS:      52629  HIT:      49543  MISS:       3086
LLC RFO       ACCESS:      33076  HIT:      32188  MISS:        888
LLC PREFETCH  ACCESS:          0  HIT:          0  MISS:          0
LLC WRITEBACK ACCESS:      36356  HIT:      36355  MISS:          1
Heartbeat CPU 0 instructions: 98000002 cycles: 50168467 heartbeat IPC: 1.83153 cumulative IPC: 1.58366 (Simulation time: 1 hr 16 min 39 sec) 

Region of Interest Statistics
cpu0_DTLB TOTAL     ACCESS:   10172757  HIT:   10157735  MISS:      15022
cpu0_DTLB LOAD      ACCESS:    8430311  HIT:    8416577  MISS:      13734
cpu0_DTLB RFO       ACCESS:    1742446  HIT:    1741158  MISS:       1288
cpu0_DTLB PREFETCH  ACCESS:          0  HIT:          0  MISS:          0
cpu0_DTLB WRITEBACK ACCESS:          0  HIT:          0  MISS:          0
cpu0_ITLB TOTAL     ACCESS:    3681111  HIT:    3681105  MISS:          6
cpu0_ITLB LOAD      ACCESS:    3681111  HIT:    3681105  MISS:          6
cpu0_ITLB RFO       ACCESS:          0  HIT:          0  MISS:          0
cpu0_ITLB PREFETCH  ACCESS:          0  HIT:          0  MISS:          0
cpu0_ITLB WRITEBACK ACCESS:          0  HIT:          0  MISS:          0
cpu0_L1I TOTAL     ACCESS:    1651827  HIT:    1647699  MISS:       4128
cpu0_L1I LOAD      ACCESS:    1651827  HIT:    1647699  MISS:       4128
cpu0_L1I RFO       ACCESS:          0  HIT:          0  MISS:          0
cpu0_L1I PREFETCH  ACCESS:          0  HIT:          0  MISS:          0
cpu0_L1I WRITEBACK ACCESS:          0  HIT:          0  MISS:          0
cpu0_STLB TOTAL     ACCESS:      15028  HIT:      14619  MISS:        409
cpu0_STLB LOAD      ACCESS:      13740  HIT:      13445  MISS:        295
cpu0_STLB RFO       ACCESS:       1288  HIT:       1174  MISS:        114
cpu0_STLB PREFETCH  ACCESS:          0  HIT:          0  MISS:          0
cpu0_STLB WRITEBACK ACCESS:          0  HIT:          0  MISS:          0
cpu0_L1D TOTAL     ACCESS:   10934384  HIT:   10796917  MISS:     137467
cpu0_L1D LOAD      ACCESS:    7539171  HIT:    7437018  MISS:     102153
cpu0_L1D RFO       ACCESS:    3394838  HIT:    3359632  MISS:      35206
cpu0_L1D PREFETCH  ACCESS:          0  HIT:          0  MISS:          0
cpu0_L1D WRITEBACK ACCESS:          0  HIT:          0  MISS:          0
cpu0_L2C TOTAL     ACCESS:     178250  HIT:      88334  MISS:      89916
cpu0_L2C LOAD      ACCESS:     106281  HIT:      49800  MISS:      56481
cpu0_L2C RFO       ACCESS:      35206  HIT:       1886  MISS:      33320
cpu0_L2C PREFETCH  ACCESS:          0  HIT:          0  MISS:          0
cpu0_L2C WRITEBACK ACCESS:      36655  HIT:      36565  MISS:         90
LLC TOTAL     ACCESS:     126677  HIT:     122670  MISS:       4007
LLC LOAD      ACCESS:      56481  HIT:      53375  MISS:       3106
LLC RFO       ACCESS:      33320  HIT:      32420  MISS:        900
LLC PREFETCH  ACCESS:          0  HIT:          0  MISS:          0
LLC WRITEBACK ACCESS:      36851  HIT:      36850  MISS:          1
Heartbeat CPU 0 instructions: 100000004 cycles: 51898253 heartbeat IPC: 1.15621 cumulative IPC: 1.56058 (Simulation time: 1 hr 17 min 40 sec) 

Region of Interest Statistics
cpu0_DTLB TOTAL     ACCESS:   10563601  HIT:   10547435  MISS:      16166
cpu0_DTLB LOAD      ACCESS:    8757280  HIT:    8742451  MISS:      14829
cpu0_DTLB RFO       ACCESS:    1806321  HIT:    1804984  MISS:       1337
cpu0_DTLB PREFETCH  ACCESS:          0  HIT:          0  MISS:          0
cpu0_DTLB WRITEBACK ACCESS:          0  HIT:          0  MISS:          0
cpu0_ITLB TOTAL     ACCESS:    3905192  HIT:    3905186  MISS:          6
cpu0_ITLB LOAD      ACCESS:    3905192  HIT:    3905186  MISS:          6
cpu0_ITLB RFO       ACCESS:          0  HIT:          0  MISS:          0
cpu0_ITLB PREFETCH  ACCESS:          0  HIT:          0  MISS:          0
cpu0_ITLB WRITEBACK ACCESS:          0  HIT:          0  MISS:          0
cpu0_L1I TOTAL     ACCESS:    1667338  HIT:    1663199  MISS:       4139
cpu0_L1I LOAD      ACCESS:    1667338  HIT:    1663199  MISS:       4139
cpu0_L1I RFO       ACCESS:          0  HIT:          0  MISS:          0
cpu0_L1I PREFETCH  ACCESS:          0  HIT:          0  MISS:          0
cpu0_L1I WRITEBACK ACCESS:          0  HIT:          0  MISS:          0
cpu0_STLB TOTAL     ACCESS:      16172  HIT:      15758  MISS:        414
cpu0_STLB LOAD      ACCESS:      14835  HIT:      14535  MISS:        300
cpu0_STLB RFO       ACCESS:       1337  HIT:       1223  MISS:        114
cpu0_STLB PREFETCH  ACCESS:          0  HIT:          0  MISS:          0
cpu0_STLB WRITEBACK ACCESS:          0  HIT:          0  MISS:          0
cpu0_L1D TOTAL     ACCESS:   11355176  HIT:   11210133  MISS:     145043
cpu0_L1D LOAD      ACCESS:    7813427  HIT:    7704011  MISS:     109416
cpu0_L1D RFO       ACCESS:    3541369  HIT:    3505852  MISS:      35517
cpu0_L1D PREFETCH  ACCESS:          0  HIT:          0  MISS:          0
cpu0_L1D WRITEBACK ACCESS:          0  HIT:          0  MISS:          0
cpu0_L2C TOTAL     ACCESS:     186172  HIT:      90699  MISS:      95473
cpu0_L2C LOAD      ACCESS:     113555  HIT:      51694  MISS:      61861
cpu0_L2C RFO       ACCESS:      35517  HIT:       2024  MISS:      33493
cpu0_L2C PREFETCH  ACCESS:          0  HIT:          0  MISS:          0
cpu0_L2C WRITEBACK ACCESS:      36990  HIT:      36897  MISS:         93
LLC TOTAL     ACCESS:     132481  HIT:     128455  MISS:       4026
LLC LOAD      ACCESS:      61861  HIT:      58739  MISS:       3122
LLC RFO       ACCESS:      33493  HIT:      32590  MISS:        903
LLC PREFETCH  ACCESS:          0  HIT:          0  MISS:          0
LLC WRITEBACK ACCESS:      37101  HIT:      37100  MISS:          1
Heartbeat CPU 0 instructions: 102000003 cycles: 53509184 heartbeat IPC: 1.24152 cumulative IPC: 1.54531 (Simulation time: 1 hr 18 min 44 sec) 

Region of Interest Statistics
cpu0_DTLB TOTAL     ACCESS:   10952270  HIT:   10934742  MISS:      17528
cpu0_DTLB LOAD      ACCESS:    9078933  HIT:    9062813  MISS:      16120
cpu0_DTLB RFO       ACCESS:    1873337  HIT:    1871929  MISS:       1408
cpu0_DTLB PREFETCH  ACCESS:          0  HIT:          0  MISS:          0
cpu0_DTLB WRITEBACK ACCESS:          0  HIT:          0  MISS:          0
cpu0_ITLB TOTAL     ACCESS:    4130161  HIT:    4130155  MISS:          6
cpu0_ITLB LOAD      ACCESS:    4130161  HIT:    4130155  MISS:          6
cpu0_ITLB RFO       ACCESS:          0  HIT:          0  MISS:          0
cpu0_ITLB PREFETCH  ACCESS:          0  HIT:          0  MISS:          0
cpu0_ITLB WRITEBACK ACCESS:          0  HIT:          0  MISS:          0
cpu0_L1I TOTAL     ACCESS:    1681932  HIT:    1677793  MISS:       4139
cpu0_L1I LOAD      ACCESS:    1681932  HIT:    1677793  MISS:       4139
cpu0_L1I RFO       ACCESS:          0  HIT:          0  MISS:          0
cpu0_L1I PREFETCH  ACCESS:          0  HIT:          0  MISS:          0
cpu0_L1I WRITEBACK ACCESS:          0  HIT:          0  MISS:          0
cpu0_STLB TOTAL     ACCESS:      17534  HIT:      17119  MISS:        415
cpu0_STLB LOAD      ACCESS:      16126  HIT:      15826  MISS:        300
cpu0_STLB RFO       ACCESS:       1408  HIT:       1293  MISS:        115
cpu0_STLB PREFETCH  ACCESS:          0  HIT:          0  MISS:          0
cpu0_STLB WRITEBACK ACCESS:          0  HIT:          0  MISS:          0
cpu0_L1D TOTAL     ACCESS:   11777308  HIT:   11624888  MISS:     152420
cpu0_L1D LOAD      ACCESS:    8082608  HIT:    7966149  MISS:     116459
cpu0_L1D RFO       ACCESS:    3694319  HIT:    3658469  MISS:      35850
cpu0_L1D PREFETCH  ACCESS:          0  HIT:          0  MISS:          0
cpu0_L1D WRITEBACK ACCESS:          0  HIT:          0  MISS:          0
cpu0_L2C TOTAL     ACCESS:     193946  HIT:      93544  MISS:     100402
cpu0_L2C LOAD      ACCESS:     120598  HIT:      53983  MISS:      66615
cpu0_L2C RFO       ACCESS:      35850  HIT:       2183  MISS:      33667
cpu0_L2C PREFETCH  ACCESS:          0  HIT:          0  MISS:          0
cpu0_L2C WRITEBACK ACCESS:      37387  HIT:      37293  MISS:         94
LLC TOTAL     ACCESS:     137601  HIT:     133530  MISS:       4071
LLC LOAD      ACCESS:      66615  HIT:      63451  MISS:       3164
LLC RFO       ACCESS:      33667  HIT:      32761  MISS:        906
LLC PREFETCH  ACCESS:          0  HIT:          0  MISS:          0
LLC WRITEBACK ACCESS:      37293  HIT:      37292  MISS:          1
Heartbeat CPU 0 instructions: 104000001 cycles: 54810523 heartbeat IPC: 1.53688 cumulative IPC: 1.54499 (Simulation time: 1 hr 19 min 47 sec) 

Region of Interest Statistics
cpu0_DTLB TOTAL     ACCESS:   11324975  HIT:   11306216  MISS:      18759
cpu0_DTLB LOAD      ACCESS:    9379991  HIT:    9362684  MISS:      17307
cpu0_DTLB RFO       ACCESS:    1944984  HIT:    1943532  MISS:       1452
cpu0_DTLB PREFETCH  ACCESS:          0  HIT:          0  MISS:          0
cpu0_DTLB WRITEBACK ACCESS:          0  HIT:          0  MISS:          0
cpu0_ITLB TOTAL     ACCESS:    4354208  HIT:    4354202  MISS:          6
cpu0_ITLB LOAD      ACCESS:    4354208  HIT:    4354202  MISS:          6
cpu0_ITLB RFO       ACCESS:          0  HIT:          0  MISS:          0
cpu0_ITLB PREFETCH  ACCESS:          0  HIT:          0  MISS:          0
cpu0_ITLB WRITEBACK ACCESS:          0  HIT:          0  MISS:          0
cpu0_L1I TOTAL     ACCESS:    1696268  HIT:    1692129  MISS:       4139
cpu0_L1I LOAD      ACCESS:    1696268  HIT:    1692129  MISS:       4139
cpu0_L1I RFO       ACCESS:          0  HIT:          0  MISS:          0
cpu0_L1I PREFETCH  ACCESS:          0  HIT:          0  MISS:          0
cpu0_L1I WRITEBACK ACCESS:          0  HIT:          0  MISS:          0
cpu0_STLB TOTAL     ACCESS:      18765  HIT:      18340  MISS:        425
cpu0_STLB LOAD      ACCESS:      17313  HIT:      17004  MISS:        309
cpu0_STLB RFO       ACCESS:       1452  HIT:       1336  MISS:        116
cpu0_STLB PREFETCH  ACCESS:          0  HIT:          0  MISS:          0
cpu0_STLB WRITEBACK ACCESS:          0  HIT:          0  MISS:          0
cpu0_L1D TOTAL     ACCESS:   12180822  HIT:   12020998  MISS:     159824
cpu0_L1D LOAD      ACCESS:    8323389  HIT:    8199881  MISS:     123508
cpu0_L1D RFO       ACCESS:    3857042  HIT:    3820841  MISS:      36201
cpu0_L1D PREFETCH  ACCESS:          0  HIT:          0  MISS:          0
cpu0_L1D WRITEBACK ACCESS:          0  HIT:          0  MISS:          0
cpu0_L2C TOTAL     ACCESS:     201755  HIT:      95707  MISS:     106048
cpu0_L2C LOAD      ACCESS:     127647  HIT:      55615  MISS:      72032
cpu0_L2C RFO       ACCESS:      36201  HIT:       2311  MISS:      33890
cpu0_L2C PREFETCH  ACCESS:          0  HIT:          0  MISS:          0
cpu0_L2C WRITEBACK ACCESS:      37792  HIT:      37694  MISS:         98
LLC TOTAL     ACCESS:     143441  HIT:     139330  MISS:       4111
LLC LOAD      ACCESS:      72032  HIT:      68837  MISS:       3195
LLC RFO       ACCESS:      33890  HIT:      32975  MISS:        915
LLC PREFETCH  ACCESS:          0  HIT:          0  MISS:          0
LLC WRITEBACK ACCESS:      37491  HIT:      37490  MISS:          1
Heartbeat CPU 0 instructions: 106000002 cycles: 56110410 heartbeat IPC: 1.5386 cumulative IPC: 1.54476 (Simulation time: 1 hr 20 min 49 sec) 

Region of Interest Statistics
cpu0_DTLB TOTAL     ACCESS:   11690646  HIT:   11670582  MISS:      20064
cpu0_DTLB LOAD      ACCESS:    9673849  HIT:    9655300  MISS:      18549
cpu0_DTLB RFO       ACCESS:    2016797  HIT:    2015282  MISS:       1515
cpu0_DTLB PREFETCH  ACCESS:          0  HIT:          0  MISS:          0
cpu0_DTLB WRITEBACK ACCESS:          0  HIT:          0  MISS:          0
cpu0_ITLB TOTAL     ACCESS:    4579536  HIT:    4579530  MISS:          6
cpu0_ITLB LOAD      ACCESS:    4579536  HIT:    4579530  MISS:          6
cpu0_ITLB RFO       ACCESS:          0  HIT:          0  MISS:          0
cpu0_ITLB PREFETCH  ACCESS:          0  HIT:          0  MISS:          0
cpu0_ITLB WRITEBACK ACCESS:          0  HIT:          0  MISS:          0
cpu0_L1I TOTAL     ACCESS:    1711511  HIT:    1707368  MISS:       4143
cpu0_L1I LOAD      ACCESS:    1711511  HIT:    1707368  MISS:       4143
cpu0_L1I RFO       ACCESS:          0  HIT:          0  MISS:          0
cpu0_L1I PREFETCH  ACCESS:          0  HIT:          0  MISS:          0
cpu0_L1I WRITEBACK ACCESS:          0  HIT:          0  MISS:          0
cpu0_STLB TOTAL     ACCESS:      20070  HIT:      19638  MISS:        432
cpu0_STLB LOAD      ACCESS:      18555  HIT:      18239  MISS:        316
cpu0_STLB RFO       ACCESS:       1515  HIT:       1399  MISS:        116
cpu0_STLB PREFETCH  ACCESS:          0  HIT:          0  MISS:          0
cpu0_STLB WRITEBACK ACCESS:          0  HIT:          0  MISS:          0
cpu0_L1D TOTAL     ACCESS:   12574138  HIT:   12406546  MISS:     167592
cpu0_L1D LOAD      ACCESS:    8551998  HIT:    8421080  MISS:     130918
cpu0_L1D RFO       ACCESS:    4021742  HIT:    3985187  MISS:      36555
cpu0_L1D PREFETCH  ACCESS:          0  HIT:          0  MISS:          0
cpu0_L1D WRITEBACK ACCESS:          0  HIT:          0  MISS:          0
cpu0_L2C TOTAL     ACCESS:     209838  HIT:      98073  MISS:     111765
cpu0_L2C LOAD      ACCESS:     135061  HIT:      57552  MISS:      77509
cpu0_L2C RFO       ACCESS:      36555  HIT:       2432  MISS:      34123
cpu0_L2C PREFETCH  ACCESS:          0  HIT:          0  MISS:          0
cpu0_L2C WRITEBACK ACCESS:      38103  HIT:      37998  MISS:        105
[...]
cpu0_DTLB LOAD      ACCESS:  270725858  HIT:  270191122  MISS:     534736
cpu0_DTLB RFO       ACCESS:   55439833  HIT:   55325523  MISS:     114310
cpu0_DTLB PREFETCH  ACCESS:          0  HIT:          0  MISS:          0
cpu0_DTLB WRITEBACK ACCESS:          0  HIT:          0  MISS:          0
cpu0_ITLB TOTAL     ACCESS:  110905940  HIT:  110905626  MISS:        314
cpu0_ITLB LOAD      ACCESS:  110905940  HIT:  110905626  MISS:        314
cpu0_ITLB RFO       ACCESS:          0  HIT:          0  MISS:          0
cpu0_ITLB PREFETCH  ACCESS:          0  HIT:          0  MISS:          0
cpu0_ITLB WRITEBACK ACCESS:          0  HIT:          0  MISS:          0
cpu0_L1I TOTAL     ACCESS:   69317832  HIT:   69222913  MISS:      94919
cpu0_L1I LOAD      ACCESS:   69317832  HIT:   69222913  MISS:      94919
cpu0_L1I RFO       ACCESS:          0  HIT:          0  MISS:          0
cpu0_L1I PREFETCH  ACCESS:          0  HIT:          0  MISS:          0
cpu0_L1I WRITEBACK ACCESS:          0  HIT:          0  MISS:          0
cpu0_STLB TOTAL     ACCESS:     649360  HIT:     643912  MISS:       5448
cpu0_STLB LOAD      ACCESS:     535050  HIT:     531673  MISS:       3377
cpu0_STLB RFO       ACCESS:     114310  HIT:     112239  MISS:       2071
cpu0_STLB PREFETCH  ACCESS:          0  HIT:          0  MISS:          0
cpu0_STLB WRITEBACK ACCESS:          0  HIT:          0  MISS:          0
cpu0_L1D TOTAL     ACCESS:  345309873  HIT:  341396101  MISS:    3913772
cpu0_L1D LOAD      ACCESS:  247411188  HIT:  244608935  MISS:    2802253
cpu0_L1D RFO       ACCESS:   97893580  HIT:   96783769  MISS:    1109811
cpu0_L1D PREFETCH  ACCESS:          0  HIT:          0  MISS:          0
cpu0_L1D WRITEBACK ACCESS:          0  HIT:          0  MISS:          0
cpu0_L2C TOTAL     ACCESS:    5152694  HIT:    2644260  MISS:    2508434
cpu0_L2C LOAD      ACCESS:    2897163  HIT:    1413320  MISS:    1483843
cpu0_L2C RFO       ACCESS:    1109786  HIT:      88314  MISS:    1021472
cpu0_L2C PREFETCH  ACCESS:          0  HIT:          0  MISS:          0
cpu0_L2C WRITEBACK ACCESS:    1144037  HIT:    1141545  MISS:       2492
LLC TOTAL     ACCESS:    3546568  HIT:    3422483  MISS:     124085
LLC LOAD      ACCESS:    1483843  HIT:    1410836  MISS:      73007
LLC RFO       ACCESS:    1021464  HIT:     970419  MISS:      51045
LLC PREFETCH  ACCESS:          0  HIT:          0  MISS:          0
LLC WRITEBACK ACCESS:    1040634  HIT:    1040603  MISS:         31
Heartbeat CPU 0 instructions: 1550000004 cycles: 945923639 heartbeat IPC: 1.5471 cumulative IPC: 1.61976 (Simulation time: 16 hr 3 min 32 sec) 

Region of Interest Statistics
cpu0_DTLB TOTAL     ACCESS:  326653865  HIT:  326004724  MISS:     649141
cpu0_DTLB LOAD      ACCESS:  271166267  HIT:  270631454  MISS:     534813
cpu0_DTLB RFO       ACCESS:   55487598  HIT:   55373270  MISS:     114328
cpu0_DTLB PREFETCH  ACCESS:          0  HIT:          0  MISS:          0
cpu0_DTLB WRITEBACK ACCESS:          0  HIT:          0  MISS:          0
cpu0_ITLB TOTAL     ACCESS:  110983981  HIT:  110983667  MISS:        314
cpu0_ITLB LOAD      ACCESS:  110983981  HIT:  110983667  MISS:        314
cpu0_ITLB RFO       ACCESS:          0  HIT:          0  MISS:          0
cpu0_ITLB PREFETCH  ACCESS:          0  HIT:          0  MISS:          0
cpu0_ITLB WRITEBACK ACCESS:          0  HIT:          0  MISS:          0
cpu0_L1I TOTAL     ACCESS:   69428514  HIT:   69333595  MISS:      94919
cpu0_L1I LOAD      ACCESS:   69428514  HIT:   69333595  MISS:      94919
cpu0_L1I RFO       ACCESS:          0  HIT:          0  MISS:          0
cpu0_L1I PREFETCH  ACCESS:          0  HIT:          0  MISS:          0
cpu0_L1I WRITEBACK ACCESS:          0  HIT:          0  MISS:          0
cpu0_STLB TOTAL     ACCESS:     649455  HIT:     643992  MISS:       5463
cpu0_STLB LOAD      ACCESS:     535127  HIT:     531735  MISS:       3392
cpu0_STLB RFO       ACCESS:     114328  HIT:     112257  MISS:       2071
cpu0_STLB PREFETCH  ACCESS:          0  HIT:          0  MISS:          0
cpu0_STLB WRITEBACK ACCESS:          0  HIT:          0  MISS:          0
cpu0_L1D TOTAL     ACCESS:  345829829  HIT:  341914270  MISS:    3915559
cpu0_L1D LOAD      ACCESS:  247843172  HIT:  245040277  MISS:    2802895
cpu0_L1D RFO       ACCESS:   97981541  HIT:   96870586  MISS:    1110955
cpu0_L1D PREFETCH  ACCESS:          0  HIT:          0  MISS:          0
cpu0_L1D WRITEBACK ACCESS:          0  HIT:          0  MISS:          0
cpu0_L2C TOTAL     ACCESS:    5155693  HIT:    2645632  MISS:    2510061
cpu0_L2C LOAD      ACCESS:    2897805  HIT:    1413450  MISS:    1484355
cpu0_L2C RFO       ACCESS:    1110930  HIT:      88344  MISS:    1022586
cpu0_L2C PREFETCH  ACCESS:          0  HIT:          0  MISS:          0
cpu0_L2C WRITEBACK ACCESS:    1145249  HIT:    1142757  MISS:       2492
LLC TOTAL     ACCESS:    3549663  HIT:    3425369  MISS:     124294
LLC LOAD      ACCESS:    1484355  HIT:    1411140  MISS:      73215
LLC RFO       ACCESS:    1022578  HIT:     971532  MISS:      51046
LLC PREFETCH  ACCESS:          0  HIT:          0  MISS:          0
LLC WRITEBACK ACCESS:    1042102  HIT:    1042071  MISS:         31
Finished CPU 0 instructions: 1500000002 cycles: 926064720 cumulative IPC: 1.61976 (Simulation time: 16 hr 3 min 32 sec) 

ChampSim completed all CPUs

Region of Interest Statistics

CPU 0 cumulative IPC: 1.61976 instructions: 1500000002 cycles: 926064720
cpu0_DTLB TOTAL     ACCESS:  326653865  HIT:  326004724  MISS:     649141
cpu0_DTLB LOAD      ACCESS:  271166267  HIT:  270631454  MISS:     534813
cpu0_DTLB RFO       ACCESS:   55487598  HIT:   55373270  MISS:     114328
cpu0_DTLB PREFETCH  ACCESS:          0  HIT:          0  MISS:          0
cpu0_DTLB WRITEBACK ACCESS:          0  HIT:          0  MISS:          0
cpu0_DTLB TRANSLATION ACCESS:          0  HIT:          0  MISS:          0
cpu0_DTLB PREFETCH  REQUESTED:          0  ISSUED:          0  USEFUL:          0  USELESS:          0
cpu0_DTLB AVERAGE MISS LATENCY: 9.51662 cycles
cpu0_ITLB TOTAL     ACCESS:  110983981  HIT:  110983667  MISS:        314
cpu0_ITLB LOAD      ACCESS:  110983981  HIT:  110983667  MISS:        314
cpu0_ITLB RFO       ACCESS:          0  HIT:          0  MISS:          0
cpu0_ITLB PREFETCH  ACCESS:          0  HIT:          0  MISS:          0
cpu0_ITLB WRITEBACK ACCESS:          0  HIT:          0  MISS:          0
cpu0_ITLB TRANSLATION ACCESS:          0  HIT:          0  MISS:          0
cpu0_ITLB PREFETCH  REQUESTED:          0  ISSUED:          0  USEFUL:          0  USELESS:          0
cpu0_ITLB AVERAGE MISS LATENCY: 51.379 cycles
cpu0_L1I TOTAL     ACCESS:   69428514  HIT:   69333595  MISS:      94919
cpu0_L1I LOAD      ACCESS:   69428514  HIT:   69333595  MISS:      94919
cpu0_L1I RFO       ACCESS:          0  HIT:          0  MISS:          0
cpu0_L1I PREFETCH  ACCESS:          0  HIT:          0  MISS:          0
cpu0_L1I WRITEBACK ACCESS:          0  HIT:          0  MISS:          0
cpu0_L1I TRANSLATION ACCESS:          0  HIT:          0  MISS:          0
cpu0_L1I PREFETCH  REQUESTED:          0  ISSUED:          0  USEFUL:          0  USELESS:          0
cpu0_L1I AVERAGE MISS LATENCY: 26.4829 cycles
cpu0_STLB TOTAL     ACCESS:     649455  HIT:     643992  MISS:       5463
cpu0_STLB LOAD      ACCESS:     535127  HIT:     531735  MISS:       3392
cpu0_STLB RFO       ACCESS:     114328  HIT:     112257  MISS:       2071
cpu0_STLB PREFETCH  ACCESS:          0  HIT:          0  MISS:          0
cpu0_STLB WRITEBACK ACCESS:          0  HIT:          0  MISS:          0
cpu0_STLB TRANSLATION ACCESS:          0  HIT:          0  MISS:          0
cpu0_STLB PREFETCH  REQUESTED:          0  ISSUED:          0  USEFUL:          0  USELESS:          0
cpu0_STLB AVERAGE MISS LATENCY: 62.5609 cycles
cpu0_L1D TOTAL     ACCESS:  345829829  HIT:  341914270  MISS:    3915559
cpu0_L1D LOAD      ACCESS:  247843172  HIT:  245040277  MISS:    2802895
cpu0_L1D RFO       ACCESS:   97981541  HIT:   96870586  MISS:    1110955
cpu0_L1D PREFETCH  ACCESS:          0  HIT:          0  MISS:          0
cpu0_L1D WRITEBACK ACCESS:          0  HIT:          0  MISS:          0
cpu0_L1D TRANSLATION ACCESS:       5116  HIT:       3407  MISS:       1709
cpu0_L1D PREFETCH  REQUESTED:          0  ISSUED:          0  USEFUL:          0  USELESS:          0
cpu0_L1D AVERAGE MISS LATENCY: 31.0085 cycles
cpu0_L2C TOTAL     ACCESS:    5155693  HIT:    2645632  MISS:    2510061
cpu0_L2C LOAD      ACCESS:    2897805  HIT:    1413450  MISS:    1484355
cpu0_L2C RFO       ACCESS:    1110930  HIT:      88344  MISS:    1022586
cpu0_L2C PREFETCH  ACCESS:          0  HIT:          0  MISS:          0
cpu0_L2C WRITEBACK ACCESS:    1145249  HIT:    1142757  MISS:       2492
cpu0_L2C TRANSLATION ACCESS:       1709  HIT:       1081  MISS:        628
cpu0_L2C PREFETCH  REQUESTED:          0  ISSUED:          0  USEFUL:          0  USELESS:          0
cpu0_L2C AVERAGE MISS LATENCY: 31.7747 cycles
LLC TOTAL     ACCESS:    3549663  HIT:    3425369  MISS:     124294
LLC LOAD      ACCESS:    1484355  HIT:    1411140  MISS:      73215
LLC RFO       ACCESS:    1022578  HIT:     971532  MISS:      51046
LLC PREFETCH  ACCESS:          0  HIT:          0  MISS:          0
LLC WRITEBACK ACCESS:    1042102  HIT:    1042071  MISS:         31
LLC TRANSLATION ACCESS:        628  HIT:        626  MISS:          2
LLC PREFETCH  REQUESTED:          0  ISSUED:          0  USEFUL:          0  USELESS:          0
LLC AVERAGE MISS LATENCY: 218.009 cycles
~~~~~~~~~~Reuse Distance Profiler output~~~~~~~~~~
0	0	0
1	0	0
2	0	0
3	0	0
4	0	0
5	0	0
6	0	0
7	0	0
8	0	0
9	0	0
10	0	0
11	0	0
12	0	0
13	0	0
14	0	0
15	0	0
16	0	0
17	0	0
18	0	0
19	0	0
20	0	0
21	0	0
22	0	0
23	0	0
24	0	0
25	0	0
26	0	0
27	0	0
28	0	0
29	0	0
30	0	0
31	0	0
32	0	0
33	0	0
34	0	0
35	0	0
36	0	0
37	0	0
38	0	0
39	0	0
40	0	0
41	0	0
42	0	0
43	0	0
44	0	0
45	0	0
46	0	0
47	0	0
48	0	0
49	0	0
50	0	0
51	0	0
52	0	0
53	0	0
54	0	0
55	0	0
56	0	0
57	0	0
58	0	0
59	0	0
60	0	0
61	0	0
62	0	0
63	0	0
64	0	0
66	0	0
68	0	0
70	0	0
72	0	0
74	0	0
76	0	0
78	0	0
80	0	0
82	0	0
84	0	0
86	0	0
88	0	0
90	0	0
92	0	0
94	0	0
96	0	0
98	0	0
100	0	0
102	0	0
104	0	0
106	0	0
108	0	0
110	0	0
112	0	0
114	0	0
116	0	0
118	0	0
120	0	0
122	0	0
124	0	0
126	0	0
128	0	0
132	0	0
136	0	0
140	0	0
144	0	0
148	0	0
152	0	0
156	0	0
160	0	0
164	0	0
168	0	0
172	0	0
176	0	0
180	0	0
184	0	0
188	0	0
192	0	0
196	0	0
200	0	0
204	0	0
208	0	0
212	0	0
216	0	0
220	0	0
224	0	0
228	0	0
232	0	0
236	0	0
240	0	0
244	0	0
248	0	0
252	0	0
256	0	0
264	0	0
272	0	0
280	0	0
288	0	0
296	0	0
304	0	0
312	0	0
320	0	0
328	0	0
336	0	0
344	0	0
352	0	0
360	0	0
368	0	0
376	0	0
384	0	0
392	0	0
400	0	0
408	0	0
416	0	0
424	0	0
432	0	0
440	0	0
448	0	0
456	0	0
464	0	0
472	0	0
480	0	0
488	0	0
496	0	0
504	0	0
512	0	0
528	0	0
544	0	0
560	0	0
576	0	0
592	0	0
608	0	0
624	0	0
640	0	0
656	0	0
672	0	0
688	0	0
704	0	0
720	0	0
736	0	0
752	0	0
768	0	0
784	0	0
800	0	0
816	0	0
832	0	0
848	0	0
864	0	0
880	0	0
896	0	0
912	0	0
928	0	0
944	0	0
960	0	0
976	0	0
992	0	0
1008	0	0
1024	0	0
1056	0	0
1088	0	0
1120	0	0
1152	0	0
1184	0	0
1216	0	0
1248	0	0
1280	0	0
1312	0	0
1344	0	0
1376	0	0
1408	0	0
1440	0	0
1472	0	0
1504	0	0
1536	0	0
1568	0	0
1600	0	0
1632	0	0
1664	0	0
1696	0	0
1728	0	0
1760	0	0
1792	0	0
1824	0	0
1856	0	0
1888	0	0
1920	0	0
1952	0	0
1984	0	0
2016	0	0
2048	0	0
2112	0	0
2176	0	0
2240	0	0
2304	0	0
2368	0	0
2432	0	0
2496	0	0
2560	0	0
2624	0	0
2688	0	0
2752	0	0
2816	0	0
2880	0	0
2944	0	0
3008	0	0
3072	0	0
3136	0	0
3200	0	0
3264	0	0
3328	0	0
3392	0	0
3456	0	0
3520	0	0
3584	0	0
3648	0	0
3712	0	0
3776	0	0
3840	0	0
3904	0	0
3968	0	0
4032	0	0
4096	0	0
4224	0	0
4352	0	0
4480	0	0
4608	0	0
4736	0	0
4864	0	0
4992	0	0
5120	0	0
5248	0	0
5376	0	0
5504	0	0
5632	0	0
5760	0	0
5888	0	0
6016	0	0
6144	0	0
6272	0	0
6400	0	0
6528	0	0
6656	0	0
6784	0	0
6912	0	0
7040	0	0
7168	0	0
7296	0	0
7424	0	0
7552	0	0
7680	0	0
7808	0	0
7936	0	0
8064	0	0
8192	0	0
8448	0	0
8704	0	0
8960	0	0
9216	0	0
9472	0	0
9728	0	0
9984	0	0
10240	0	0
10496	0	0
10752	0	0
11008	0	0
11264	0	0
11520	0	0
11776	0	0
12032	0	0
12288	0	0
12544	0	0
12800	0	0
13056	0	0
13312	0	0
13568	0	0
13824	0	0
14080	0	0
14336	0	0
14592	0	0
14848	0	0
15104	0	0
15360	0	0
15616	0	0
15872	0	0
16128	0	0
16384	0	0
16896	0	0
17408	0	0
17920	0	0
18432	0	0
18944	0	0
19456	0	0
19968	0	0
20480	0	0
20992	0	0
21504	0	0
22016	0	0
22528	0	0
23040	0	0
23552	0	0
24064	0	0
24576	0	0
25088	0	0
25600	0	0
26112	0	0
26624	0	0
27136	0	0
27648	0	0
28160	0	0
28672	0	0
29184	0	0
29696	0	0
30208	0	0
30720	0	0
31232	0	0
31744	0	0
32256	0	0
32768	0	0
33792	0	0
34816	0	0
35840	0	0
36864	0	0
37888	0	0
38912	0	0
39936	0	0
40960	0	0
41984	0	0
43008	0	0
44032	0	0
45056	0	0
46080	0	0
47104	0	0
48128	0	0
49152	0	0
50176	0	0
51200	0	0
52224	0	0
53248	0	0
54272	0	0
55296	0	0
56320	0	0
57344	0	0
58368	0	0
59392	0	0
60416	0	0
61440	0	0
62464	0	0
63488	0	0
64512	0	0
65536	0	0
67584	0	0
69632	0	0
71680	0	0
73728	0	0
75776	0	0
77824	0	0
79872	0	0
81920	0	0
83968	0	0
86016	0	0
88064	0	0
90112	0	0
92160	0	0
94208	0	0
96256	0	0
98304	0	0
100352	0	0
102400	0	0
104448	0	0
106496	0	0
108544	0	0
110592	0	0
112640	0	0
114688	0	0
116736	0	0
118784	0	0
120832	0	0
122880	0	0
124928	0	0
126976	0	0
129024	0	0
131072	0	0
135168	0	0
139264	0	0
143360	0	0
147456	0	0
151552	0	0
155648	0	0
159744	0	0
163840	0	0
167936	0	0
172032	0	0
176128	0	0
180224	0	0
184320	0	0
188416	0	0
192512	0	0
196608	0	0
200704	0	0
204800	0	0
208896	0	0
212992	0	0
217088	0	0
221184	0	0
225280	0	0
229376	0	0
233472	0	0
237568	0	0
241664	0	0
245760	0	0
249856	0	0
253952	0	0
258048	0	0
262144	0	0
270336	0	0
278528	0	0
286720	0	0
294912	0	0
303104	0	0
311296	0	0
319488	0	0
327680	0	0
335872	0	0
344064	0	0
352256	0	0
360448	0	0
368640	0	0
376832	0	0
385024	0	0
393216	0	0
401408	0	0
409600	0	0
417792	0	0
425984	0	0
434176	0	0
442368	0	0
450560	0	0
458752	0	0
466944	0	0
475136	0	0
483328	0	0
491520	0	0
499712	0	0
507904	0	0
516096	0	0
524288	0	0
540672	0	0
557056	0	0
573440	0	0
589824	0	0
606208	0	0
622592	0	0
638976	0	0
655360	0	0
671744	0	0
688128	0	0
704512	0	0
720896	0	0
737280	0	0
753664	0	0
770048	0	0
786432	0	0
802816	0	0
819200	0	0
835584	0	0
851968	0	0
868352	0	0
884736	0	0
901120	0	0
917504	0	0
933888	0	0
950272	0	0
966656	0	0
983040	0	0
999424	0	0
1015808	0	0
1032192	0	0
1048576	0	0
1081344	0	0
1114112	0	0
1146880	0	0
1179648	0	0
1212416	0	0
1245184	0	0
1277952	0	0
1310720	0	0
1343488	0	0
1376256	0	0
1409024	0	0
1441792	0	0
1474560	0	0
1507328	0	0
1540096	0	0
1572864	0	0
1605632	0	0
1638400	0	0
1671168	0	0
1703936	0	0
1736704	0	0
1769472	0	0
1802240	0	0
1835008	0	0
1867776	0	0
1900544	0	0
1933312	0	0
1966080	0	0
1998848	0	0
2031616	0	0
2064384	0	0
2097152	0	0
2162688	0	0
2228224	0	0
2293760	0	0
2359296	0	0
2424832	0	0
2490368	0	0
2555904	0	0
2621440	0	0
2686976	0	0
2752512	0	0
2818048	0	0
2883584	0	0
2949120	0	0
3014656	0	0
3080192	0	0
3145728	0	0
3211264	0	0
3276800	0	0
3342336	0	0
3407872	0	0
3473408	0	0
3538944	0	0
3604480	0	0
3670016	0	0
3735552	0	0
3801088	0	0
3866624	0	0
3932160	0	0
3997696	0	0
4063232	0	0
4128768	0	0
4194304	0	0
4325376	0	0
4456448	0	0
4587520	0	0
4718592	0	0
4849664	0	0
4980736	0	0
5111808	0	0
5242880	0	0
5373952	0	0
5505024	0	0
5636096	0	0
5767168	0	0
5898240	0	0
6029312	0	0
6160384	0	0
6291456	0	0
6422528	0	0
6553600	0	0
6684672	0	0
6815744	0	0
6946816	0	0
7077888	0	0
7208960	0	0
7340032	0	0
7471104	0	0
7602176	0	0
7733248	0	0
7864320	0	0
7995392	0	0
8126464	0	0
8257536	0	0
8388608	0	0
8650752	0	0
8912896	0	0
9175040	0	0
9437184	0	0
9699328	0	0
9961472	0	0
10223616	0	0
10485760	0	0
10747904	0	0
11010048	0	0
11272192	0	0
11534336	0	0
11796480	0	0
12058624	0	0
12320768	0	0
12582912	0	0
12845056	0	0
13107200	0	0
13369344	0	0
13631488	0	0
13893632	0	0
14155776	0	0
14417920	0	0
14680064	0	0
14942208	0	0
15204352	0	0
15466496	0	0
15728640	0	0
15990784	0	0
16252928	0	0
16515072	0	0
16777216	0	0
17301504	0	0
17825792	0	0
18350080	0	0
18874368	0	0
19398656	0	0
19922944	0	0
20447232	0	0
20971520	0	0
21495808	0	0
22020096	0	0
22544384	0	0
23068672	0	0
23592960	0	0
24117248	0	0
24641536	0	0
25165824	0	0
25690112	0	0
26214400	0	0
26738688	0	0
27262976	0	0
27787264	0	0
28311552	0	0
28835840	0	0
29360128	0	0
29884416	0	0
30408704	0	0
30932992	0	0
31457280	0	0
31981568	0	0
32505856	0	0
33030144	0	0
33554432	0	0
34603008	0	0
35651584	0	0
36700160	0	0
37748736	0	0
38797312	0	0
39845888	0	0
40894464	0	0
41943040	0	0
42991616	0	0
44040192	0	0
45088768	0	0
46137344	0	0
47185920	0	0
48234496	0	0
49283072	0	0
50331648	0	0
51380224	0	0
52428800	0	0
53477376	0	0
54525952	0	0
55574528	0	0
56623104	0	0
57671680	0	0
58720256	0	0
59768832	0	0
60817408	0	0
61865984	0	0
62914560	0	0
63963136	0	0
65011712	0	0
66060288	0	0
67108864	0	0
69206016	0	0
71303168	0	0
73400320	0	0
75497472	0	0
77594624	0	0
79691776	0	0
81788928	0	0
83886080	0	0
85983232	0	0
88080384	0	0
90177536	0	0
92274688	0	0
94371840	0	0
96468992	0	0
98566144	0	0
100663296	0	0
102760448	0	0
104857600	0	0
106954752	0	0
109051904	0	0
111149056	0	0
113246208	0	0
115343360	0	0
117440512	0	0
119537664	0	0
121634816	0	0
123731968	0	0
125829120	0	0
127926272	0	0
130023424	0	0
132120576	0	0
134217728	0	0
138412032	0	0
142606336	0	0
146800640	0	0
150994944	0	0
155189248	0	0
159383552	0	0
163577856	0	0
167772160	0	0
171966464	0	0
176160768	0	0
180355072	0	0
184549376	0	0
188743680	0	0
192937984	0	0
197132288	0	0
201326592	0	0
205520896	0	0
209715200	0	0
213909504	0	0
218103808	0	0
222298112	0	0
226492416	0	0
230686720	0	0
234881024	0	0
239075328	0	0
243269632	0	0
247463936	0	0
251658240	0	0
255852544	0	0
260046848	0	0
264241152	0	0
268435456	0	0
276824064	0	0
285212672	0	0
293601280	0	0
301989888	0	0
310378496	0	0
318767104	0	0
327155712	0	0
335544320	0	0
343932928	0	0
352321536	0	0
360710144	0	0
369098752	0	0
377487360	0	0
385875968	0	0
394264576	0	0
402653184	0	0
411041792	0	0
419430400	0	0
427819008	0	0
436207616	0	0
444596224	0	0
452984832	0	0
461373440	0	0
469762048	0	0
478150656	0	0
486539264	0	0
494927872	0	0
503316480	0	0
511705088	0	0
520093696	0	0
528482304	0	0
536870912	0	0
553648128	0	0
570425344	0	0
587202560	0	0
603979776	0	0
620756992	0	0
637534208	0	0
654311424	0	0
671088640	0	0
687865856	0	0
704643072	0	0
721420288	0	0
738197504	0	0
754974720	0	0
771751936	0	0
788529152	0	0
805306368	0	0
822083584	0	0
838860800	0	0
855638016	0	0
872415232	0	0
889192448	0	0
905969664	0	0
922746880	0	0
939524096	0	0
956301312	0	0
973078528	0	0
989855744	0	0
1006632960	0	0
1023410176	0	0
1040187392	0	0
1056964608	0	0
1073741824	0	0
1107296256	0	0
1140850688	0	0
1174405120	0	0
1207959552	0	0
1241513984	0	0
1275068416	0	0
1308622848	0	0
1342177280	0	0
1375731712	0	0
1409286144	0	0
1442840576	0	0
1476395008	0	0
1509949440	0	0
1543503872	0	0
1577058304	0	0
1610612736	0	0
1644167168	0	0
1677721600	0	0
1711276032	0	0
1744830464	0	0
1778384896	0	0
1811939328	0	0
1845493760	0	0
1879048192	0	0
1912602624	0	0
1946157056	0	0
1979711488	0	0
2013265920	0	0
2046820352	0	0
2080374784	0	0
2113929216	0	0
2147483648	0	0
2214592512	0	0
2281701376	0	0
2348810240	0	0
2415919104	0	0
2483027968	0	0
2550136832	0	0
2617245696	0	0
2684354560	0	0
2751463424	0	0
2818572288	0	0
2885681152	0	0
2952790016	0	0
3019898880	0	0
3087007744	0	0
3154116608	0	0
3221225472	0	0
3288334336	0	0
3355443200	0	0
3422552064	0	0
3489660928	0	0
3556769792	0	0
3623878656	0	0
3690987520	0	0
3758096384	0	0
3825205248	0	0
3892314112	0	0
3959422976	0	0
4026531840	0	0
4093640704	0	0
4160749568	0	0
4227858432	0	0
~~~~~~~~~~Reuse Distance Profiler output end~~~~~~~~~~

Sampler size:0

DRAM Statistics
 CHANNEL 0
 RQ ROW_BUFFER_HIT:      21060  ROW_BUFFER_MISS:     103188
 DBUS AVG_CONGESTED_CYCLE:    3.91055
 WQ ROW_BUFFER_HIT:       5245  ROW_BUFFER_MISS:      46956  FULL:          0


CPU 0 Branch Prediction Accuracy: 92.7084% MPKI: 7.58058 Average ROB Occupancy at Mispredict: 121.221
Branch type MPKI
BRANCH_DIRECT_JUMP: 0.000139333
BRANCH_INDIRECT: 0.00102933
BRANCH_CONDITIONAL: 7.45793
BRANCH_DIRECT_CALL: 0.119748
BRANCH_INDIRECT_CALL: 0.000113333
BRANCH_RETURN: 0.001614

