
*** ChampSim Multicore Out-of-Order Simulator ***

Warmup Instructions: 50000000
Simulation Instructions: 1500000000
Number of CPUs: 1
Off-chip DRAM Size: 4 GiB Channels: 1 Width: 64-bit Data Rate: 3200 MT/s

VirtualMemory physical capacity: 8588881920 num_ppages: 2096895
VirtualMemory page size: 4096 log2_page_size: 12

CPU 0 runs /s/traces/champsim_traces/603.bwaves_s-3699B.champsimtrace.xz
CPU 0 Bimodal branch predictor
Basic BTB sets: 1024 ways: 8 indirect buffer size: 4096 RAS size: 64
Initializing LRU.
Initializing LRU.
Initializing LRU.
Initializing LRU.
Initializing rdLRU.
Initializing LRU.
Initializing LRU.
Heartbeat CPU 0 instructions: 2000002 cycles: 536676 heartbeat IPC: 3.72665 cumulative IPC: 3.72665 (Simulation time: 0 hr 0 min 55 sec) 
Heartbeat CPU 0 instructions: 4000002 cycles: 1075614 heartbeat IPC: 3.711 cumulative IPC: 3.71881 (Simulation time: 0 hr 1 min 48 sec) 
Heartbeat CPU 0 instructions: 6000001 cycles: 1612973 heartbeat IPC: 3.7219 cumulative IPC: 3.71984 (Simulation time: 0 hr 2 min 43 sec) 
Heartbeat CPU 0 instructions: 8000000 cycles: 2148534 heartbeat IPC: 3.7344 cumulative IPC: 3.72347 (Simulation time: 0 hr 3 min 40 sec) 
Heartbeat CPU 0 instructions: 10000000 cycles: 2685181 heartbeat IPC: 3.72684 cumulative IPC: 3.72414 (Simulation time: 0 hr 4 min 35 sec) 
Heartbeat CPU 0 instructions: 12000000 cycles: 3224119 heartbeat IPC: 3.711 cumulative IPC: 3.72195 (Simulation time: 0 hr 5 min 30 sec) 
Heartbeat CPU 0 instructions: 14000002 cycles: 3761142 heartbeat IPC: 3.72424 cumulative IPC: 3.72227 (Simulation time: 0 hr 6 min 30 sec) 
Heartbeat CPU 0 instructions: 16000000 cycles: 4293189 heartbeat IPC: 3.75906 cumulative IPC: 3.72683 (Simulation time: 0 hr 7 min 24 sec) 
Heartbeat CPU 0 instructions: 18000002 cycles: 4818734 heartbeat IPC: 3.80558 cumulative IPC: 3.73542 (Simulation time: 0 hr 8 min 10 sec) 
Heartbeat CPU 0 instructions: 20000002 cycles: 5318734 heartbeat IPC: 4 cumulative IPC: 3.76029 (Simulation time: 0 hr 9 min 7 sec) 
Heartbeat CPU 0 instructions: 22000002 cycles: 5818734 heartbeat IPC: 4 cumulative IPC: 3.78089 (Simulation time: 0 hr 10 min 9 sec) 
Heartbeat CPU 0 instructions: 24000003 cycles: 6329213 heartbeat IPC: 3.91789 cumulative IPC: 3.79194 (Simulation time: 0 hr 11 min 9 sec) 
Heartbeat CPU 0 instructions: 26000002 cycles: 6866674 heartbeat IPC: 3.7212 cumulative IPC: 3.7864 (Simulation time: 0 hr 12 min 12 sec) 
Heartbeat CPU 0 instructions: 28000002 cycles: 7403932 heartbeat IPC: 3.72261 cumulative IPC: 3.78177 (Simulation time: 0 hr 13 min 16 sec) 
Heartbeat CPU 0 instructions: 30000003 cycles: 7940291 heartbeat IPC: 3.72885 cumulative IPC: 3.7782 (Simulation time: 0 hr 14 min 20 sec) 
Heartbeat CPU 0 instructions: 32000003 cycles: 8477247 heartbeat IPC: 3.7247 cumulative IPC: 3.77481 (Simulation time: 0 hr 15 min 24 sec) 
Heartbeat CPU 0 instructions: 34000001 cycles: 9012744 heartbeat IPC: 3.73484 cumulative IPC: 3.77244 (Simulation time: 0 hr 16 min 33 sec) 
Heartbeat CPU 0 instructions: 36000000 cycles: 9549856 heartbeat IPC: 3.72362 cumulative IPC: 3.76969 (Simulation time: 0 hr 17 min 37 sec) 
Heartbeat CPU 0 instructions: 38000000 cycles: 10088794 heartbeat IPC: 3.711 cumulative IPC: 3.76656 (Simulation time: 0 hr 18 min 41 sec) 
Heartbeat CPU 0 instructions: 40000003 cycles: 10625414 heartbeat IPC: 3.72704 cumulative IPC: 3.76456 (Simulation time: 0 hr 19 min 43 sec) 
Heartbeat CPU 0 instructions: 42000001 cycles: 11161030 heartbeat IPC: 3.73401 cumulative IPC: 3.76309 (Simulation time: 0 hr 20 min 44 sec) 
Heartbeat CPU 0 instructions: 44000002 cycles: 11698362 heartbeat IPC: 3.7221 cumulative IPC: 3.76121 (Simulation time: 0 hr 21 min 46 sec) 
Heartbeat CPU 0 instructions: 46000003 cycles: 12237300 heartbeat IPC: 3.711 cumulative IPC: 3.759 (Simulation time: 0 hr 22 min 48 sec) 
Heartbeat CPU 0 instructions: 48000000 cycles: 12773918 heartbeat IPC: 3.72704 cumulative IPC: 3.75766 (Simulation time: 0 hr 23 min 50 sec) 
Heartbeat CPU 0 instructions: 50000002 cycles: 13309266 heartbeat IPC: 3.73589 cumulative IPC: 3.75678 (Simulation time: 0 hr 24 min 52 sec) 

Warmup complete CPU 0 instructions: 50000002 cycles: 13309266 (Simulation time: 0 hr 24 min 52 sec) 

Heartbeat CPU 0 instructions: 52000000 cycles: 14493151 heartbeat IPC: 1.68935 cumulative IPC: 1.68935 (Simulation time: 0 hr 25 min 40 sec) 

Region of Interest Statistics
cpu0_DTLB TOTAL     ACCESS:     295440  HIT:     295440  MISS:          0
cpu0_DTLB LOAD      ACCESS:     255515  HIT:     255515  MISS:          0
cpu0_DTLB RFO       ACCESS:      39925  HIT:      39925  MISS:          0
cpu0_DTLB PREFETCH  ACCESS:          0  HIT:          0  MISS:          0
cpu0_DTLB WRITEBACK ACCESS:          0  HIT:          0  MISS:          0
cpu0_ITLB TOTAL     ACCESS:     244827  HIT:     244827  MISS:          0
cpu0_ITLB LOAD      ACCESS:     244827  HIT:     244827  MISS:          0
cpu0_ITLB RFO       ACCESS:          0  HIT:          0  MISS:          0
cpu0_ITLB PREFETCH  ACCESS:          0  HIT:          0  MISS:          0
cpu0_ITLB WRITEBACK ACCESS:          0  HIT:          0  MISS:          0
cpu0_L1I TOTAL     ACCESS:       3566  HIT:       3566  MISS:          0
cpu0_L1I LOAD      ACCESS:       3566  HIT:       3566  MISS:          0
cpu0_L1I RFO       ACCESS:          0  HIT:          0  MISS:          0
cpu0_L1I PREFETCH  ACCESS:          0  HIT:          0  MISS:          0
cpu0_L1I WRITEBACK ACCESS:          0  HIT:          0  MISS:          0
cpu0_L1D TOTAL     ACCESS:     323680  HIT:     323662  MISS:         18
cpu0_L1D LOAD      ACCESS:     258329  HIT:     258326  MISS:          3
cpu0_L1D RFO       ACCESS:      65351  HIT:      65336  MISS:         15
cpu0_L1D PREFETCH  ACCESS:          0  HIT:          0  MISS:          0
cpu0_L1D WRITEBACK ACCESS:          0  HIT:          0  MISS:          0
cpu0_L2C TOTAL     ACCESS:         35  HIT:         17  MISS:         18
cpu0_L2C LOAD      ACCESS:          3  HIT:          0  MISS:          3
cpu0_L2C RFO       ACCESS:         15  HIT:          0  MISS:         15
cpu0_L2C PREFETCH  ACCESS:          0  HIT:          0  MISS:          0
cpu0_L2C WRITEBACK ACCESS:         17  HIT:         17  MISS:          0
LLC TOTAL     ACCESS:         34  HIT:         16  MISS:         18
LLC LOAD      ACCESS:          3  HIT:          0  MISS:          3
LLC RFO       ACCESS:         15  HIT:          0  MISS:         15
LLC PREFETCH  ACCESS:          0  HIT:          0  MISS:          0
LLC WRITEBACK ACCESS:         16  HIT:         16  MISS:          0
Heartbeat CPU 0 instructions: 54000000 cycles: 15683995 heartbeat IPC: 1.67948 cumulative IPC: 1.6844 (Simulation time: 0 hr 26 min 30 sec) 

Region of Interest Statistics
cpu0_DTLB TOTAL     ACCESS:     591738  HIT:     591738  MISS:          0
cpu0_DTLB LOAD      ACCESS:     511698  HIT:     511698  MISS:          0
cpu0_DTLB RFO       ACCESS:      80040  HIT:      80040  MISS:          0
cpu0_DTLB PREFETCH  ACCESS:          0  HIT:          0  MISS:          0
cpu0_DTLB WRITEBACK ACCESS:          0  HIT:          0  MISS:          0
cpu0_ITLB TOTAL     ACCESS:     489959  HIT:     489959  MISS:          0
cpu0_ITLB LOAD      ACCESS:     489959  HIT:     489959  MISS:          0
cpu0_ITLB RFO       ACCESS:          0  HIT:          0  MISS:          0
cpu0_ITLB PREFETCH  ACCESS:          0  HIT:          0  MISS:          0
cpu0_ITLB WRITEBACK ACCESS:          0  HIT:          0  MISS:          0
cpu0_L1I TOTAL     ACCESS:       6750  HIT:       6750  MISS:          0
cpu0_L1I LOAD      ACCESS:       6750  HIT:       6750  MISS:          0
cpu0_L1I RFO       ACCESS:          0  HIT:          0  MISS:          0
cpu0_L1I PREFETCH  ACCESS:          0  HIT:          0  MISS:          0
cpu0_L1I WRITEBACK ACCESS:          0  HIT:          0  MISS:          0
cpu0_L1D TOTAL     ACCESS:     647555  HIT:     647520  MISS:         35
cpu0_L1D LOAD      ACCESS:     516928  HIT:     516922  MISS:          6
cpu0_L1D RFO       ACCESS:     130627  HIT:     130598  MISS:         29
cpu0_L1D PREFETCH  ACCESS:          0  HIT:          0  MISS:          0
cpu0_L1D WRITEBACK ACCESS:          0  HIT:          0  MISS:          0
cpu0_L2C TOTAL     ACCESS:         68  HIT:         33  MISS:         35
cpu0_L2C LOAD      ACCESS:          6  HIT:          0  MISS:          6
cpu0_L2C RFO       ACCESS:         29  HIT:          0  MISS:         29
cpu0_L2C PREFETCH  ACCESS:          0  HIT:          0  MISS:          0
cpu0_L2C WRITEBACK ACCESS:         33  HIT:         33  MISS:          0
LLC TOTAL     ACCESS:         68  HIT:         33  MISS:         35
LLC LOAD      ACCESS:          6  HIT:          0  MISS:          6
LLC RFO       ACCESS:         29  HIT:          0  MISS:         29
LLC PREFETCH  ACCESS:          0  HIT:          0  MISS:          0
LLC WRITEBACK ACCESS:         33  HIT:         33  MISS:          0
Heartbeat CPU 0 instructions: 56000000 cycles: 16878301 heartbeat IPC: 1.67461 cumulative IPC: 1.68113 (Simulation time: 0 hr 27 min 21 sec) 

Region of Interest Statistics
cpu0_DTLB TOTAL     ACCESS:     887576  HIT:     887573  MISS:          3
cpu0_DTLB LOAD      ACCESS:     766795  HIT:     766794  MISS:          1
cpu0_DTLB RFO       ACCESS:     120781  HIT:     120779  MISS:          2
cpu0_DTLB PREFETCH  ACCESS:          0  HIT:          0  MISS:          0
cpu0_DTLB WRITEBACK ACCESS:          0  HIT:          0  MISS:          0
cpu0_ITLB TOTAL     ACCESS:     733499  HIT:     733499  MISS:          0
cpu0_ITLB LOAD      ACCESS:     733499  HIT:     733499  MISS:          0
cpu0_ITLB RFO       ACCESS:          0  HIT:          0  MISS:          0
cpu0_ITLB PREFETCH  ACCESS:          0  HIT:          0  MISS:          0
cpu0_ITLB WRITEBACK ACCESS:          0  HIT:          0  MISS:          0
cpu0_L1I TOTAL     ACCESS:      12712  HIT:      12712  MISS:          0
cpu0_L1I LOAD      ACCESS:      12712  HIT:      12712  MISS:          0
cpu0_L1I RFO       ACCESS:          0  HIT:          0  MISS:          0
cpu0_L1I PREFETCH  ACCESS:          0  HIT:          0  MISS:          0
cpu0_L1I WRITEBACK ACCESS:          0  HIT:          0  MISS:          0
cpu0_STLB TOTAL     ACCESS:          3  HIT:          0  MISS:          3
cpu0_STLB LOAD      ACCESS:          1  HIT:          0  MISS:          1
cpu0_STLB RFO       ACCESS:          2  HIT:          0  MISS:          2
cpu0_STLB PREFETCH  ACCESS:          0  HIT:          0  MISS:          0
cpu0_STLB WRITEBACK ACCESS:          0  HIT:          0  MISS:          0
cpu0_L1D TOTAL     ACCESS:     971509  HIT:     971326  MISS:        183
cpu0_L1D LOAD      ACCESS:     773924  HIT:     773894  MISS:         30
cpu0_L1D RFO       ACCESS:     197582  HIT:     197429  MISS:        153
cpu0_L1D PREFETCH  ACCESS:          0  HIT:          0  MISS:          0
cpu0_L1D WRITEBACK ACCESS:          0  HIT:          0  MISS:          0
cpu0_L2C TOTAL     ACCESS:        335  HIT:        152  MISS:        183
cpu0_L2C LOAD      ACCESS:         30  HIT:          0  MISS:         30
cpu0_L2C RFO       ACCESS:        153  HIT:          0  MISS:        153
cpu0_L2C PREFETCH  ACCESS:          0  HIT:          0  MISS:          0
cpu0_L2C WRITEBACK ACCESS:        152  HIT:        152  MISS:          0
LLC TOTAL     ACCESS:        354  HIT:        171  MISS:        183
LLC LOAD      ACCESS:         30  HIT:          0  MISS:         30
LLC RFO       ACCESS:        153  HIT:          0  MISS:        153
LLC PREFETCH  ACCESS:          0  HIT:          0  MISS:          0
LLC WRITEBACK ACCESS:        171  HIT:        171  MISS:          0
Heartbeat CPU 0 instructions: 58000003 cycles: 18058660 heartbeat IPC: 1.6944 cumulative IPC: 1.68443 (Simulation time: 0 hr 28 min 12 sec) 

Region of Interest Statistics
cpu0_DTLB TOTAL     ACCESS:    1183265  HIT:    1183262  MISS:          3
cpu0_DTLB LOAD      ACCESS:    1022644  HIT:    1022643  MISS:          1
cpu0_DTLB RFO       ACCESS:     160621  HIT:     160619  MISS:          2
cpu0_DTLB PREFETCH  ACCESS:          0  HIT:          0  MISS:          0
cpu0_DTLB WRITEBACK ACCESS:          0  HIT:          0  MISS:          0
cpu0_ITLB TOTAL     ACCESS:     977427  HIT:     977427  MISS:          0
cpu0_ITLB LOAD      ACCESS:     977427  HIT:     977427  MISS:          0
cpu0_ITLB RFO       ACCESS:          0  HIT:          0  MISS:          0
cpu0_ITLB PREFETCH  ACCESS:          0  HIT:          0  MISS:          0
cpu0_ITLB WRITEBACK ACCESS:          0  HIT:          0  MISS:          0
cpu0_L1I TOTAL     ACCESS:      15887  HIT:      15887  MISS:          0
cpu0_L1I LOAD      ACCESS:      15887  HIT:      15887  MISS:          0
cpu0_L1I RFO       ACCESS:          0  HIT:          0  MISS:          0
cpu0_L1I PREFETCH  ACCESS:          0  HIT:          0  MISS:          0
cpu0_L1I WRITEBACK ACCESS:          0  HIT:          0  MISS:          0
cpu0_STLB TOTAL     ACCESS:          3  HIT:          0  MISS:          3
cpu0_STLB LOAD      ACCESS:          1  HIT:          0  MISS:          1
cpu0_STLB RFO       ACCESS:          2  HIT:          0  MISS:          2
cpu0_STLB PREFETCH  ACCESS:          0  HIT:          0  MISS:          0
cpu0_STLB WRITEBACK ACCESS:          0  HIT:          0  MISS:          0
cpu0_L1D TOTAL     ACCESS:    1297581  HIT:    1297378  MISS:        203
cpu0_L1D LOAD      ACCESS:    1034654  HIT:    1034620  MISS:         34
cpu0_L1D RFO       ACCESS:     262924  HIT:     262755  MISS:        169
cpu0_L1D PREFETCH  ACCESS:          0  HIT:          0  MISS:          0
cpu0_L1D WRITEBACK ACCESS:          0  HIT:          0  MISS:          0
cpu0_L2C TOTAL     ACCESS:        373  HIT:        170  MISS:        203
cpu0_L2C LOAD      ACCESS:         34  HIT:          0  MISS:         34
cpu0_L2C RFO       ACCESS:        169  HIT:          0  MISS:        169
cpu0_L2C PREFETCH  ACCESS:          0  HIT:          0  MISS:          0
cpu0_L2C WRITEBACK ACCESS:        170  HIT:        170  MISS:          0
LLC TOTAL     ACCESS:        389  HIT:        186  MISS:        203
LLC LOAD      ACCESS:         34  HIT:          0  MISS:         34
LLC RFO       ACCESS:        169  HIT:          0  MISS:        169
LLC PREFETCH  ACCESS:          0  HIT:          0  MISS:          0
LLC WRITEBACK ACCESS:        186  HIT:        186  MISS:          0
Heartbeat CPU 0 instructions: 60000003 cycles: 19250004 heartbeat IPC: 1.67878 cumulative IPC: 1.68329 (Simulation time: 0 hr 29 min 2 sec) 

Region of Interest Statistics
cpu0_DTLB TOTAL     ACCESS:    1479125  HIT:    1479122  MISS:          3
cpu0_DTLB LOAD      ACCESS:    1277857  HIT:    1277856  MISS:          1
cpu0_DTLB RFO       ACCESS:     201268  HIT:     201266  MISS:          2
cpu0_DTLB PREFETCH  ACCESS:          0  HIT:          0  MISS:          0
cpu0_DTLB WRITEBACK ACCESS:          0  HIT:          0  MISS:          0
cpu0_ITLB TOTAL     ACCESS:    1221631  HIT:    1221631  MISS:          0
cpu0_ITLB LOAD      ACCESS:    1221631  HIT:    1221631  MISS:          0
cpu0_ITLB RFO       ACCESS:          0  HIT:          0  MISS:          0
cpu0_ITLB PREFETCH  ACCESS:          0  HIT:          0  MISS:          0
cpu0_ITLB WRITEBACK ACCESS:          0  HIT:          0  MISS:          0
cpu0_L1I TOTAL     ACCESS:      19589  HIT:      19589  MISS:          0
cpu0_L1I LOAD      ACCESS:      19589  HIT:      19589  MISS:          0
cpu0_L1I RFO       ACCESS:          0  HIT:          0  MISS:          0
cpu0_L1I PREFETCH  ACCESS:          0  HIT:          0  MISS:          0
cpu0_L1I WRITEBACK ACCESS:          0  HIT:          0  MISS:          0
cpu0_STLB TOTAL     ACCESS:          3  HIT:          0  MISS:          3
cpu0_STLB LOAD      ACCESS:          1  HIT:          0  MISS:          1
cpu0_STLB RFO       ACCESS:          2  HIT:          0  MISS:          2
cpu0_STLB PREFETCH  ACCESS:          0  HIT:          0  MISS:          0
cpu0_STLB WRITEBACK ACCESS:          0  HIT:          0  MISS:          0
cpu0_L1D TOTAL     ACCESS:    1623465  HIT:    1623247  MISS:        218
cpu0_L1D LOAD      ACCESS:    1293636  HIT:    1293600  MISS:         36
cpu0_L1D RFO       ACCESS:     329826  HIT:     329644  MISS:        182
cpu0_L1D PREFETCH  ACCESS:          0  HIT:          0  MISS:          0
cpu0_L1D WRITEBACK ACCESS:          0  HIT:          0  MISS:          0
cpu0_L2C TOTAL     ACCESS:        402  HIT:        184  MISS:        218
cpu0_L2C LOAD      ACCESS:         36  HIT:          0  MISS:         36
cpu0_L2C RFO       ACCESS:        182  HIT:          0  MISS:        182
cpu0_L2C PREFETCH  ACCESS:          0  HIT:          0  MISS:          0
cpu0_L2C WRITEBACK ACCESS:        184  HIT:        184  MISS:          0
LLC TOTAL     ACCESS:        414  HIT:        196  MISS:        218
LLC LOAD      ACCESS:         36  HIT:          0  MISS:         36
LLC RFO       ACCESS:        182  HIT:          0  MISS:        182
LLC PREFETCH  ACCESS:          0  HIT:          0  MISS:          0
LLC WRITEBACK ACCESS:        196  HIT:        196  MISS:          0
Heartbeat CPU 0 instructions: 62000003 cycles: 20438941 heartbeat IPC: 1.68217 cumulative IPC: 1.68311 (Simulation time: 0 hr 29 min 54 sec) 

Region of Interest Statistics
cpu0_DTLB TOTAL     ACCESS:    1773776  HIT:    1773763  MISS:         13
cpu0_DTLB LOAD      ACCESS:    1529909  HIT:    1529906  MISS:          3
cpu0_DTLB RFO       ACCESS:     243867  HIT:     243857  MISS:         10
cpu0_DTLB PREFETCH  ACCESS:          0  HIT:          0  MISS:          0
cpu0_DTLB WRITEBACK ACCESS:          0  HIT:          0  MISS:          0
cpu0_ITLB TOTAL     ACCESS:    1458615  HIT:    1458615  MISS:          0
cpu0_ITLB LOAD      ACCESS:    1458615  HIT:    1458615  MISS:          0
cpu0_ITLB RFO       ACCESS:          0  HIT:          0  MISS:          0
cpu0_ITLB PREFETCH  ACCESS:          0  HIT:          0  MISS:          0
cpu0_ITLB WRITEBACK ACCESS:          0  HIT:          0  MISS:          0
cpu0_L1I TOTAL     ACCESS:      33186  HIT:      33186  MISS:          0
cpu0_L1I LOAD      ACCESS:      33186  HIT:      33186  MISS:          0
cpu0_L1I RFO       ACCESS:          0  HIT:          0  MISS:          0
cpu0_L1I PREFETCH  ACCESS:          0  HIT:          0  MISS:          0
cpu0_L1I WRITEBACK ACCESS:          0  HIT:          0  MISS:          0
cpu0_STLB TOTAL     ACCESS:         13  HIT:          1  MISS:         12
cpu0_STLB LOAD      ACCESS:          3  HIT:          1  MISS:          2
cpu0_STLB RFO       ACCESS:         10  HIT:          0  MISS:         10
cpu0_STLB PREFETCH  ACCESS:          0  HIT:          0  MISS:          0
cpu0_STLB WRITEBACK ACCESS:          0  HIT:          0  MISS:          0
cpu0_L1D TOTAL     ACCESS:    1955057  HIT:    1954260  MISS:        797
cpu0_L1D LOAD      ACCESS:    1551848  HIT:    1551703  MISS:        145
cpu0_L1D RFO       ACCESS:     403197  HIT:     402545  MISS:        652
cpu0_L1D PREFETCH  ACCESS:          0  HIT:          0  MISS:          0
cpu0_L1D WRITEBACK ACCESS:          0  HIT:          0  MISS:          0
cpu0_L2C TOTAL     ACCESS:       1449  HIT:        676  MISS:        773
cpu0_L2C LOAD      ACCESS:        145  HIT:         16  MISS:        129
cpu0_L2C RFO       ACCESS:        652  HIT:          8  MISS:        644
cpu0_L2C PREFETCH  ACCESS:          0  HIT:          0  MISS:          0
cpu0_L2C WRITEBACK ACCESS:        652  HIT:        652  MISS:          0
LLC TOTAL     ACCESS:       1414  HIT:        641  MISS:        773
LLC LOAD      ACCESS:        129  HIT:          0  MISS:        129
LLC RFO       ACCESS:        644  HIT:          0  MISS:        644
LLC PREFETCH  ACCESS:          0  HIT:          0  MISS:          0
LLC WRITEBACK ACCESS:        641  HIT:        641  MISS:          0
Heartbeat CPU 0 instructions: 64000002 cycles: 21620234 heartbeat IPC: 1.69306 cumulative IPC: 1.68452 (Simulation time: 0 hr 30 min 43 sec) 

Region of Interest Statistics
cpu0_DTLB TOTAL     ACCESS:    2069429  HIT:    2069416  MISS:         13
cpu0_DTLB LOAD      ACCESS:    1785291  HIT:    1785288  MISS:          3
cpu0_DTLB RFO       ACCESS:     284138  HIT:     284128  MISS:         10
cpu0_DTLB PREFETCH  ACCESS:          0  HIT:          0  MISS:          0
cpu0_DTLB WRITEBACK ACCESS:          0  HIT:          0  MISS:          0
cpu0_ITLB TOTAL     ACCESS:    1702632  HIT:    1702632  MISS:          0
cpu0_ITLB LOAD      ACCESS:    1702632  HIT:    1702632  MISS:          0
cpu0_ITLB RFO       ACCESS:          0  HIT:          0  MISS:          0
cpu0_ITLB PREFETCH  ACCESS:          0  HIT:          0  MISS:          0
cpu0_ITLB WRITEBACK ACCESS:          0  HIT:          0  MISS:          0
cpu0_L1I TOTAL     ACCESS:      37684  HIT:      37684  MISS:          0
cpu0_L1I LOAD      ACCESS:      37684  HIT:      37684  MISS:          0
cpu0_L1I RFO       ACCESS:          0  HIT:          0  MISS:          0
cpu0_L1I PREFETCH  ACCESS:          0  HIT:          0  MISS:          0
cpu0_L1I WRITEBACK ACCESS:          0  HIT:          0  MISS:          0
cpu0_STLB TOTAL     ACCESS:         13  HIT:          1  MISS:         12
cpu0_STLB LOAD      ACCESS:          3  HIT:          1  MISS:          2
cpu0_STLB RFO       ACCESS:         10  HIT:          0  MISS:         10
cpu0_STLB PREFETCH  ACCESS:          0  HIT:          0  MISS:          0
cpu0_STLB WRITEBACK ACCESS:          0  HIT:          0  MISS:          0
cpu0_L1D TOTAL     ACCESS:    2280239  HIT:    2279408  MISS:        831
cpu0_L1D LOAD      ACCESS:    1810225  HIT:    1810075  MISS:        150
cpu0_L1D RFO       ACCESS:     470002  HIT:     469321  MISS:        681
cpu0_L1D PREFETCH  ACCESS:          0  HIT:          0  MISS:          0
cpu0_L1D WRITEBACK ACCESS:          0  HIT:          0  MISS:          0
cpu0_L2C TOTAL     ACCESS:       1515  HIT:        708  MISS:        807
cpu0_L2C LOAD      ACCESS:        150  HIT:         16  MISS:        134
cpu0_L2C RFO       ACCESS:        681  HIT:          8  MISS:        673
cpu0_L2C PREFETCH  ACCESS:          0  HIT:          0  MISS:          0
cpu0_L2C WRITEBACK ACCESS:        684  HIT:        684  MISS:          0
LLC TOTAL     ACCESS:       1482  HIT:        675  MISS:        807
LLC LOAD      ACCESS:        134  HIT:          0  MISS:        134
LLC RFO       ACCESS:        673  HIT:          0  MISS:        673
LLC PREFETCH  ACCESS:          0  HIT:          0  MISS:          0
LLC WRITEBACK ACCESS:        675  HIT:        675  MISS:          0
Heartbeat CPU 0 instructions: 66000000 cycles: 22809533 heartbeat IPC: 1.68166 cumulative IPC: 1.68416 (Simulation time: 0 hr 31 min 32 sec) 

Region of Interest Statistics
cpu0_DTLB TOTAL     ACCESS:    2365686  HIT:    2365673  MISS:         13
cpu0_DTLB LOAD      ACCESS:    2041724  HIT:    2041721  MISS:          3
cpu0_DTLB RFO       ACCESS:     323962  HIT:     323952  MISS:         10
cpu0_DTLB PREFETCH  ACCESS:          0  HIT:          0  MISS:          0
cpu0_DTLB WRITEBACK ACCESS:          0  HIT:          0  MISS:          0
cpu0_ITLB TOTAL     ACCESS:    1948267  HIT:    1948267  MISS:          0
cpu0_ITLB LOAD      ACCESS:    1948267  HIT:    1948267  MISS:          0
cpu0_ITLB RFO       ACCESS:          0  HIT:          0  MISS:          0
cpu0_ITLB PREFETCH  ACCESS:          0  HIT:          0  MISS:          0
cpu0_ITLB WRITEBACK ACCESS:          0  HIT:          0  MISS:          0
cpu0_L1I TOTAL     ACCESS:      40905  HIT:      40905  MISS:          0
cpu0_L1I LOAD      ACCESS:      40905  HIT:      40905  MISS:          0
cpu0_L1I RFO       ACCESS:          0  HIT:          0  MISS:          0
cpu0_L1I PREFETCH  ACCESS:          0  HIT:          0  MISS:          0
cpu0_L1I WRITEBACK ACCESS:          0  HIT:          0  MISS:          0
cpu0_STLB TOTAL     ACCESS:         13  HIT:          1  MISS:         12
cpu0_STLB LOAD      ACCESS:          3  HIT:          1  MISS:          2
cpu0_STLB RFO       ACCESS:         10  HIT:          0  MISS:         10
cpu0_STLB PREFETCH  ACCESS:          0  HIT:          0  MISS:          0
cpu0_STLB WRITEBACK ACCESS:          0  HIT:          0  MISS:          0
cpu0_L1D TOTAL     ACCESS:    2602406  HIT:    2601557  MISS:        849
cpu0_L1D LOAD      ACCESS:    2067739  HIT:    2067586  MISS:        153
cpu0_L1D RFO       ACCESS:     534655  HIT:     533959  MISS:        696
cpu0_L1D PREFETCH  ACCESS:          0  HIT:          0  MISS:          0
cpu0_L1D WRITEBACK ACCESS:          0  HIT:          0  MISS:          0
cpu0_L2C TOTAL     ACCESS:       1550  HIT:        725  MISS:        825
cpu0_L2C LOAD      ACCESS:        153  HIT:         16  MISS:        137
cpu0_L2C RFO       ACCESS:        696  HIT:          8  MISS:        688
cpu0_L2C PREFETCH  ACCESS:          0  HIT:          0  MISS:          0
cpu0_L2C WRITEBACK ACCESS:        701  HIT:        701  MISS:          0
LLC TOTAL     ACCESS:       1518  HIT:        693  MISS:        825
LLC LOAD      ACCESS:        137  HIT:          0  MISS:        137
LLC RFO       ACCESS:        688  HIT:          0  MISS:        688
LLC PREFETCH  ACCESS:          0  HIT:          0  MISS:          0
LLC WRITEBACK ACCESS:        693  HIT:        693  MISS:          0
Heartbeat CPU 0 instructions: 68000001 cycles: 23999278 heartbeat IPC: 1.68103 cumulative IPC: 1.68381 (Simulation time: 0 hr 32 min 21 sec) 

Region of Interest Statistics
cpu0_DTLB TOTAL     ACCESS:    2661285  HIT:    2661272  MISS:         13
cpu0_DTLB LOAD      ACCESS:    2296992  HIT:    2296989  MISS:          3
cpu0_DTLB RFO       ACCESS:     364293  HIT:     364283  MISS:         10
cpu0_DTLB PREFETCH  ACCESS:          0  HIT:          0  MISS:          0
cpu0_DTLB WRITEBACK ACCESS:          0  HIT:          0  MISS:          0
cpu0_ITLB TOTAL     ACCESS:    2193426  HIT:    2193426  MISS:          0
cpu0_ITLB LOAD      ACCESS:    2193426  HIT:    2193426  MISS:          0
cpu0_ITLB RFO       ACCESS:          0  HIT:          0  MISS:          0
cpu0_ITLB PREFETCH  ACCESS:          0  HIT:          0  MISS:          0
cpu0_ITLB WRITEBACK ACCESS:          0  HIT:          0  MISS:          0
cpu0_L1I TOTAL     ACCESS:      44711  HIT:      44711  MISS:          0
cpu0_L1I LOAD      ACCESS:      44711  HIT:      44711  MISS:          0
cpu0_L1I RFO       ACCESS:          0  HIT:          0  MISS:          0
cpu0_L1I PREFETCH  ACCESS:          0  HIT:          0  MISS:          0
cpu0_L1I WRITEBACK ACCESS:          0  HIT:          0  MISS:          0
cpu0_STLB TOTAL     ACCESS:         13  HIT:          1  MISS:         12
cpu0_STLB LOAD      ACCESS:          3  HIT:          1  MISS:          2
cpu0_STLB RFO       ACCESS:         10  HIT:          0  MISS:         10
cpu0_STLB PREFETCH  ACCESS:          0  HIT:          0  MISS:          0
cpu0_STLB WRITEBACK ACCESS:          0  HIT:          0  MISS:          0
cpu0_L1D TOTAL     ACCESS:    2925635  HIT:    2924764  MISS:        871
cpu0_L1D LOAD      ACCESS:    2324806  HIT:    2324649  MISS:        157
cpu0_L1D RFO       ACCESS:     600817  HIT:     600103  MISS:        714
cpu0_L1D PREFETCH  ACCESS:          0  HIT:          0  MISS:          0
cpu0_L1D WRITEBACK ACCESS:          0  HIT:          0  MISS:          0
cpu0_L2C TOTAL     ACCESS:       1591  HIT:        744  MISS:        847
cpu0_L2C LOAD      ACCESS:        157  HIT:         16  MISS:        141
cpu0_L2C RFO       ACCESS:        714  HIT:          8  MISS:        706
cpu0_L2C PREFETCH  ACCESS:          0  HIT:          0  MISS:          0
cpu0_L2C WRITEBACK ACCESS:        720  HIT:        720  MISS:          0
LLC TOTAL     ACCESS:       1561  HIT:        714  MISS:        847
LLC LOAD      ACCESS:        141  HIT:          0  MISS:        141
LLC RFO       ACCESS:        706  HIT:          0  MISS:        706
LLC PREFETCH  ACCESS:          0  HIT:          0  MISS:          0
LLC WRITEBACK ACCESS:        714  HIT:        714  MISS:          0
Heartbeat CPU 0 instructions: 70000001 cycles: 25185150 heartbeat IPC: 1.68652 cumulative IPC: 1.68409 (Simulation time: 0 hr 33 min 11 sec) 

Region of Interest Statistics
cpu0_DTLB TOTAL     ACCESS:    2957647  HIT:    2957632  MISS:         15
cpu0_DTLB LOAD      ACCESS:    2553880  HIT:    2553877  MISS:          3
cpu0_DTLB RFO       ACCESS:     403767  HIT:     403755  MISS:         12
cpu0_DTLB PREFETCH  ACCESS:          0  HIT:          0  MISS:          0
cpu0_DTLB WRITEBACK ACCESS:          0  HIT:          0  MISS:          0
cpu0_ITLB TOTAL     ACCESS:    2439217  HIT:    2439217  MISS:          0
cpu0_ITLB LOAD      ACCESS:    2439217  HIT:    2439217  MISS:          0
cpu0_ITLB RFO       ACCESS:          0  HIT:          0  MISS:          0
cpu0_ITLB PREFETCH  ACCESS:          0  HIT:          0  MISS:          0
cpu0_ITLB WRITEBACK ACCESS:          0  HIT:          0  MISS:          0
cpu0_L1I TOTAL     ACCESS:      47665  HIT:      47665  MISS:          0
cpu0_L1I LOAD      ACCESS:      47665  HIT:      47665  MISS:          0
cpu0_L1I RFO       ACCESS:          0  HIT:          0  MISS:          0
cpu0_L1I PREFETCH  ACCESS:          0  HIT:          0  MISS:          0
cpu0_L1I WRITEBACK ACCESS:          0  HIT:          0  MISS:          0
cpu0_STLB TOTAL     ACCESS:         15  HIT:          1  MISS:         14
cpu0_STLB LOAD      ACCESS:          3  HIT:          1  MISS:          2
cpu0_STLB RFO       ACCESS:         12  HIT:          0  MISS:         12
cpu0_STLB PREFETCH  ACCESS:          0  HIT:          0  MISS:          0
cpu0_STLB WRITEBACK ACCESS:          0  HIT:          0  MISS:          0
cpu0_L1D TOTAL     ACCESS:    3247520  HIT:    3246633  MISS:        887
cpu0_L1D LOAD      ACCESS:    2582928  HIT:    2582768  MISS:        160
cpu0_L1D RFO       ACCESS:     664578  HIT:     663851  MISS:        727
cpu0_L1D PREFETCH  ACCESS:          0  HIT:          0  MISS:          0
cpu0_L1D WRITEBACK ACCESS:          0  HIT:          0  MISS:          0
cpu0_L2C TOTAL     ACCESS:       1621  HIT:        758  MISS:        863
cpu0_L2C LOAD      ACCESS:        160  HIT:         16  MISS:        144
cpu0_L2C RFO       ACCESS:        727  HIT:          8  MISS:        719
cpu0_L2C PREFETCH  ACCESS:          0  HIT:          0  MISS:          0
cpu0_L2C WRITEBACK ACCESS:        734  HIT:        734  MISS:          0
LLC TOTAL     ACCESS:       1593  HIT:        730  MISS:        863
LLC LOAD      ACCESS:        144  HIT:          0  MISS:        144
LLC RFO       ACCESS:        719  HIT:          0  MISS:        719
LLC PREFETCH  ACCESS:          0  HIT:          0  MISS:          0
LLC WRITEBACK ACCESS:        730  HIT:        730  MISS:          0
Heartbeat CPU 0 instructions: 72000000 cycles: 26375880 heartbeat IPC: 1.67964 cumulative IPC: 1.68368 (Simulation time: 0 hr 33 min 59 sec) 

Region of Interest Statistics
cpu0_DTLB TOTAL     ACCESS:    3253275  HIT:    3253259  MISS:         16
cpu0_DTLB LOAD      ACCESS:    2809039  HIT:    2809035  MISS:          4
cpu0_DTLB RFO       ACCESS:     444236  HIT:     444224  MISS:         12
cpu0_DTLB PREFETCH  ACCESS:          0  HIT:          0  MISS:          0
cpu0_DTLB WRITEBACK ACCESS:          0  HIT:          0  MISS:          0
cpu0_ITLB TOTAL     ACCESS:    2684155  HIT:    2684155  MISS:          0
cpu0_ITLB LOAD      ACCESS:    2684155  HIT:    2684155  MISS:          0
cpu0_ITLB RFO       ACCESS:          0  HIT:          0  MISS:          0
cpu0_ITLB PREFETCH  ACCESS:          0  HIT:          0  MISS:          0
cpu0_ITLB WRITEBACK ACCESS:          0  HIT:          0  MISS:          0
cpu0_L1I TOTAL     ACCESS:      51448  HIT:      51448  MISS:          0
cpu0_L1I LOAD      ACCESS:      51448  HIT:      51448  MISS:          0
cpu0_L1I RFO       ACCESS:          0  HIT:          0  MISS:          0
cpu0_L1I PREFETCH  ACCESS:          0  HIT:          0  MISS:          0
cpu0_L1I WRITEBACK ACCESS:          0  HIT:          0  MISS:          0
cpu0_STLB TOTAL     ACCESS:         16  HIT:          1  MISS:         15
cpu0_STLB LOAD      ACCESS:          4  HIT:          1  MISS:          3
cpu0_STLB RFO       ACCESS:         12  HIT:          0  MISS:         12
cpu0_STLB PREFETCH  ACCESS:          0  HIT:          0  MISS:          0
cpu0_STLB WRITEBACK ACCESS:          0  HIT:          0  MISS:          0
cpu0_L1D TOTAL     ACCESS:    3571634  HIT:    3570725  MISS:        909
cpu0_L1D LOAD      ACCESS:    2840553  HIT:    2840390  MISS:        163
cpu0_L1D RFO       ACCESS:     731066  HIT:     730320  MISS:        746
cpu0_L1D PREFETCH  ACCESS:          0  HIT:          0  MISS:          0
cpu0_L1D WRITEBACK ACCESS:          0  HIT:          0  MISS:          0
cpu0_L2C TOTAL     ACCESS:       1659  HIT:        774  MISS:        885
cpu0_L2C LOAD      ACCESS:        163  HIT:         16  MISS:        147
cpu0_L2C RFO       ACCESS:        746  HIT:          8  MISS:        738
cpu0_L2C PREFETCH  ACCESS:          0  HIT:          0  MISS:          0
cpu0_L2C WRITEBACK ACCESS:        750  HIT:        750  MISS:          0
LLC TOTAL     ACCESS:       1637  HIT:        752  MISS:        885
LLC LOAD      ACCESS:        147  HIT:          0  MISS:        147
LLC RFO       ACCESS:        738  HIT:          0  MISS:        738
LLC PREFETCH  ACCESS:          0  HIT:          0  MISS:          0
LLC WRITEBACK ACCESS:        752  HIT:        752  MISS:          0
Heartbeat CPU 0 instructions: 74000001 cycles: 27557628 heartbeat IPC: 1.69241 cumulative IPC: 1.6844 (Simulation time: 0 hr 34 min 48 sec) 

Region of Interest Statistics
cpu0_DTLB TOTAL     ACCESS:    3548750  HIT:    3548734  MISS:         16
cpu0_DTLB LOAD      ACCESS:    3065044  HIT:    3065040  MISS:          4
cpu0_DTLB RFO       ACCESS:     483706  HIT:     483694  MISS:         12
cpu0_DTLB PREFETCH  ACCESS:          0  HIT:          0  MISS:          0
cpu0_DTLB WRITEBACK ACCESS:          0  HIT:          0  MISS:          0
cpu0_ITLB TOTAL     ACCESS:    2929608  HIT:    2929608  MISS:          0
cpu0_ITLB LOAD      ACCESS:    2929608  HIT:    2929608  MISS:          0
cpu0_ITLB RFO       ACCESS:          0  HIT:          0  MISS:          0
cpu0_ITLB PREFETCH  ACCESS:          0  HIT:          0  MISS:          0
cpu0_ITLB WRITEBACK ACCESS:          0  HIT:          0  MISS:          0
cpu0_L1I TOTAL     ACCESS:      54762  HIT:      54762  MISS:          0
cpu0_L1I LOAD      ACCESS:      54762  HIT:      54762  MISS:          0
cpu0_L1I RFO       ACCESS:          0  HIT:          0  MISS:          0
cpu0_L1I PREFETCH  ACCESS:          0  HIT:          0  MISS:          0
cpu0_L1I WRITEBACK ACCESS:          0  HIT:          0  MISS:          0
cpu0_STLB TOTAL     ACCESS:         16  HIT:          1  MISS:         15
cpu0_STLB LOAD      ACCESS:          4  HIT:          1  MISS:          3
cpu0_STLB RFO       ACCESS:         12  HIT:          0  MISS:         12
cpu0_STLB PREFETCH  ACCESS:          0  HIT:          0  MISS:          0
cpu0_STLB WRITEBACK ACCESS:          0  HIT:          0  MISS:          0
cpu0_L1D TOTAL     ACCESS:    3894058  HIT:    3893134  MISS:        924
cpu0_L1D LOAD      ACCESS:    3098641  HIT:    3098475  MISS:        166
cpu0_L1D RFO       ACCESS:     795402  HIT:     794644  MISS:        758
cpu0_L1D PREFETCH  ACCESS:          0  HIT:          0  MISS:          0
cpu0_L1D WRITEBACK ACCESS:          0  HIT:          0  MISS:          0
cpu0_L2C TOTAL     ACCESS:       1684  HIT:        784  MISS:        900
cpu0_L2C LOAD      ACCESS:        166  HIT:         16  MISS:        150
cpu0_L2C RFO       ACCESS:        758  HIT:          8  MISS:        750
cpu0_L2C PREFETCH  ACCESS:          0  HIT:          0  MISS:          0
cpu0_L2C WRITEBACK ACCESS:        760  HIT:        760  MISS:          0
LLC TOTAL     ACCESS:       1667  HIT:        767  MISS:        900
LLC LOAD      ACCESS:        150  HIT:          0  MISS:        150
LLC RFO       ACCESS:        750  HIT:          0  MISS:        750
LLC PREFETCH  ACCESS:          0  HIT:          0  MISS:          0
LLC WRITEBACK ACCESS:        767  HIT:        767  MISS:          0
Heartbeat CPU 0 instructions: 76000000 cycles: 28752645 heartbeat IPC: 1.67362 cumulative IPC: 1.68357 (Simulation time: 0 hr 35 min 37 sec) 

Region of Interest Statistics
cpu0_DTLB TOTAL     ACCESS:    3845272  HIT:    3845256  MISS:         16
cpu0_DTLB LOAD      ACCESS:    3321075  HIT:    3321071  MISS:          4
cpu0_DTLB RFO       ACCESS:     524197  HIT:     524185  MISS:         12
cpu0_DTLB PREFETCH  ACCESS:          0  HIT:          0  MISS:          0
cpu0_DTLB WRITEBACK ACCESS:          0  HIT:          0  MISS:          0
cpu0_ITLB TOTAL     ACCESS:    3174879  HIT:    3174879  MISS:          0
cpu0_ITLB LOAD      ACCESS:    3174879  HIT:    3174879  MISS:          0
cpu0_ITLB RFO       ACCESS:          0  HIT:          0  MISS:          0
cpu0_ITLB PREFETCH  ACCESS:          0  HIT:          0  MISS:          0
cpu0_ITLB WRITEBACK ACCESS:          0  HIT:          0  MISS:          0
cpu0_L1I TOTAL     ACCESS:      58185  HIT:      58185  MISS:          0
cpu0_L1I LOAD      ACCESS:      58185  HIT:      58185  MISS:          0
cpu0_L1I RFO       ACCESS:          0  HIT:          0  MISS:          0
cpu0_L1I PREFETCH  ACCESS:          0  HIT:          0  MISS:          0
cpu0_L1I WRITEBACK ACCESS:          0  HIT:          0  MISS:          0
cpu0_STLB TOTAL     ACCESS:         16  HIT:          1  MISS:         15
cpu0_STLB LOAD      ACCESS:          4  HIT:          1  MISS:          3
cpu0_STLB RFO       ACCESS:         12  HIT:          0  MISS:         12
cpu0_STLB PREFETCH  ACCESS:          0  HIT:          0  MISS:          0
cpu0_STLB WRITEBACK ACCESS:          0  HIT:          0  MISS:          0
cpu0_L1D TOTAL     ACCESS:    4217600  HIT:    4216653  MISS:        947
cpu0_L1D LOAD      ACCESS:    3356270  HIT:    3356100  MISS:        170
cpu0_L1D RFO       ACCESS:     861315  HIT:     860538  MISS:        777
cpu0_L1D PREFETCH  ACCESS:          0  HIT:          0  MISS:          0
cpu0_L1D WRITEBACK ACCESS:          0  HIT:          0  MISS:          0
cpu0_L2C TOTAL     ACCESS:       1722  HIT:        799  MISS:        923
cpu0_L2C LOAD      ACCESS:        170  HIT:         16  MISS:        154
cpu0_L2C RFO       ACCESS:        777  HIT:          8  MISS:        769
cpu0_L2C PREFETCH  ACCESS:          0  HIT:          0  MISS:          0
cpu0_L2C WRITEBACK ACCESS:        775  HIT:        775  MISS:          0
LLC TOTAL     ACCESS:       1713  HIT:        790  MISS:        923
LLC LOAD      ACCESS:        154  HIT:          0  MISS:        154
LLC RFO       ACCESS:        769  HIT:          0  MISS:        769
LLC PREFETCH  ACCESS:          0  HIT:          0  MISS:          0
LLC WRITEBACK ACCESS:        790  HIT:        790  MISS:          0
Heartbeat CPU 0 instructions: 78000000 cycles: 29942930 heartbeat IPC: 1.68027 cumulative IPC: 1.68333 (Simulation time: 0 hr 36 min 26 sec) 

Region of Interest Statistics
cpu0_DTLB TOTAL     ACCESS:    4140882  HIT:    4140866  MISS:         16
cpu0_DTLB LOAD      ACCESS:    3576234  HIT:    3576230  MISS:          4
cpu0_DTLB RFO       ACCESS:     564648  HIT:     564636  MISS:         12
cpu0_DTLB PREFETCH  ACCESS:          0  HIT:          0  MISS:          0
cpu0_DTLB WRITEBACK ACCESS:          0  HIT:          0  MISS:          0
cpu0_ITLB TOTAL     ACCESS:    3419809  HIT:    3419809  MISS:          0
cpu0_ITLB LOAD      ACCESS:    3419809  HIT:    3419809  MISS:          0
cpu0_ITLB RFO       ACCESS:          0  HIT:          0  MISS:          0
cpu0_ITLB PREFETCH  ACCESS:          0  HIT:          0  MISS:          0
cpu0_ITLB WRITEBACK ACCESS:          0  HIT:          0  MISS:          0
cpu0_L1I TOTAL     ACCESS:      61966  HIT:      61966  MISS:          0
cpu0_L1I LOAD      ACCESS:      61966  HIT:      61966  MISS:          0
cpu0_L1I RFO       ACCESS:          0  HIT:          0  MISS:          0
cpu0_L1I PREFETCH  ACCESS:          0  HIT:          0  MISS:          0
cpu0_L1I WRITEBACK ACCESS:          0  HIT:          0  MISS:          0
cpu0_STLB TOTAL     ACCESS:         16  HIT:          1  MISS:         15
cpu0_STLB LOAD      ACCESS:          4  HIT:          1  MISS:          3
cpu0_STLB RFO       ACCESS:         12  HIT:          0  MISS:         12
cpu0_STLB PREFETCH  ACCESS:          0  HIT:          0  MISS:          0
cpu0_STLB WRITEBACK ACCESS:          0  HIT:          0  MISS:          0
cpu0_L1D TOTAL     ACCESS:    4541687  HIT:    4540718  MISS:        969
cpu0_L1D LOAD      ACCESS:    3613873  HIT:    3613700  MISS:        173
cpu0_L1D RFO       ACCESS:     927799  HIT:     927003  MISS:        796
cpu0_L1D PREFETCH  ACCESS:          0  HIT:          0  MISS:          0
cpu0_L1D WRITEBACK ACCESS:          0  HIT:          0  MISS:          0
cpu0_L2C TOTAL     ACCESS:       1763  HIT:        818  MISS:        945
cpu0_L2C LOAD      ACCESS:        173  HIT:         16  MISS:        157
cpu0_L2C RFO       ACCESS:        796  HIT:          8  MISS:        788
cpu0_L2C PREFETCH  ACCESS:          0  HIT:          0  MISS:          0
cpu0_L2C WRITEBACK ACCESS:        794  HIT:        794  MISS:          0
LLC TOTAL     ACCESS:       1751  HIT:        806  MISS:        945
LLC LOAD      ACCESS:        157  HIT:          0  MISS:        157
LLC RFO       ACCESS:        788  HIT:          0  MISS:        788
LLC PREFETCH  ACCESS:          0  HIT:          0  MISS:          0
LLC WRITEBACK ACCESS:        806  HIT:        806  MISS:          0
Heartbeat CPU 0 instructions: 80000000 cycles: 31128397 heartbeat IPC: 1.6871 cumulative IPC: 1.68358 (Simulation time: 0 hr 37 min 14 sec) 

Region of Interest Statistics
cpu0_DTLB TOTAL     ACCESS:    4437162  HIT:    4437146  MISS:         16
cpu0_DTLB LOAD      ACCESS:    3832952  HIT:    3832948  MISS:          4
cpu0_DTLB RFO       ACCESS:     604210  HIT:     604198  MISS:         12
cpu0_DTLB PREFETCH  ACCESS:          0  HIT:          0  MISS:          0
cpu0_DTLB WRITEBACK ACCESS:          0  HIT:          0  MISS:          0
cpu0_ITLB TOTAL     ACCESS:    3665247  HIT:    3665247  MISS:          0
cpu0_ITLB LOAD      ACCESS:    3665247  HIT:    3665247  MISS:          0
cpu0_ITLB RFO       ACCESS:          0  HIT:          0  MISS:          0
cpu0_ITLB PREFETCH  ACCESS:          0  HIT:          0  MISS:          0
cpu0_ITLB WRITEBACK ACCESS:          0  HIT:          0  MISS:          0
cpu0_L1I TOTAL     ACCESS:      64961  HIT:      64961  MISS:          0
cpu0_L1I LOAD      ACCESS:      64961  HIT:      64961  MISS:          0
cpu0_L1I RFO       ACCESS:          0  HIT:          0  MISS:          0
cpu0_L1I PREFETCH  ACCESS:          0  HIT:          0  MISS:          0
cpu0_L1I WRITEBACK ACCESS:          0  HIT:          0  MISS:          0
cpu0_STLB TOTAL     ACCESS:         16  HIT:          1  MISS:         15
cpu0_STLB LOAD      ACCESS:          4  HIT:          1  MISS:          3
cpu0_STLB RFO       ACCESS:         12  HIT:          0  MISS:         12
cpu0_STLB PREFETCH  ACCESS:          0  HIT:          0  MISS:          0
cpu0_STLB WRITEBACK ACCESS:          0  HIT:          0  MISS:          0
cpu0_L1D TOTAL     ACCESS:    4864473  HIT:    4863489  MISS:        984
cpu0_L1D LOAD      ACCESS:    3872630  HIT:    3872454  MISS:        176
cpu0_L1D RFO       ACCESS:     991828  HIT:     991020  MISS:        808
cpu0_L1D PREFETCH  ACCESS:          0  HIT:          0  MISS:          0
cpu0_L1D WRITEBACK ACCESS:          0  HIT:          0  MISS:          0
cpu0_L2C TOTAL     ACCESS:       1792  HIT:        832  MISS:        960
cpu0_L2C LOAD      ACCESS:        176  HIT:         16  MISS:        160
cpu0_L2C RFO       ACCESS:        808  HIT:          8  MISS:        800
cpu0_L2C PREFETCH  ACCESS:          0  HIT:          0  MISS:          0
cpu0_L2C WRITEBACK ACCESS:        808  HIT:        808  MISS:          0
LLC TOTAL     ACCESS:       1779  HIT:        819  MISS:        960
LLC LOAD      ACCESS:        160  HIT:          0  MISS:        160
LLC RFO       ACCESS:        800  HIT:          0  MISS:        800
LLC PREFETCH  ACCESS:          0  HIT:          0  MISS:          0
LLC WRITEBACK ACCESS:        819  HIT:        819  MISS:          0
Heartbeat CPU 0 instructions: 82000000 cycles: 32319262 heartbeat IPC: 1.67945 cumulative IPC: 1.68332 (Simulation time: 0 hr 38 min 2 sec) 

Region of Interest Statistics
cpu0_DTLB TOTAL     ACCESS:    4732821  HIT:    4732805  MISS:         16
cpu0_DTLB LOAD      ACCESS:    4088209  HIT:    4088205  MISS:          4
cpu0_DTLB RFO       ACCESS:     644612  HIT:     644600  MISS:         12
cpu0_DTLB PREFETCH  ACCESS:          0  HIT:          0  MISS:          0
cpu0_DTLB WRITEBACK ACCESS:          0  HIT:          0  MISS:          0
cpu0_ITLB TOTAL     ACCESS:    3910427  HIT:    3910427  MISS:          0
cpu0_ITLB LOAD      ACCESS:    3910427  HIT:    3910427  MISS:          0
cpu0_ITLB RFO       ACCESS:          0  HIT:          0  MISS:          0
cpu0_ITLB PREFETCH  ACCESS:          0  HIT:          0  MISS:          0
cpu0_ITLB WRITEBACK ACCESS:          0  HIT:          0  MISS:          0
cpu0_L1I TOTAL     ACCESS:      68725  HIT:      68725  MISS:          0
cpu0_L1I LOAD      ACCESS:      68725  HIT:      68725  MISS:          0
cpu0_L1I RFO       ACCESS:          0  HIT:          0  MISS:          0
cpu0_L1I PREFETCH  ACCESS:          0  HIT:          0  MISS:          0
cpu0_L1I WRITEBACK ACCESS:          0  HIT:          0  MISS:          0
cpu0_STLB TOTAL     ACCESS:         16  HIT:          1  MISS:         15
cpu0_STLB LOAD      ACCESS:          4  HIT:          1  MISS:          3
cpu0_STLB RFO       ACCESS:         12  HIT:          0  MISS:         12
cpu0_STLB PREFETCH  ACCESS:          0  HIT:          0  MISS:          0
cpu0_STLB WRITEBACK ACCESS:          0  HIT:          0  MISS:          0
cpu0_L1D TOTAL     ACCESS:    5188010  HIT:    5187003  MISS:       1007
cpu0_L1D LOAD      ACCESS:    4129884  HIT:    4129704  MISS:        180
cpu0_L1D RFO       ACCESS:    1058111  HIT:    1057284  MISS:        827
cpu0_L1D PREFETCH  ACCESS:          0  HIT:          0  MISS:          0
cpu0_L1D WRITEBACK ACCESS:          0  HIT:          0  MISS:          0
cpu0_L2C TOTAL     ACCESS:       1836  HIT:        853  MISS:        983
cpu0_L2C LOAD      ACCESS:        180  HIT:         16  MISS:        164
cpu0_L2C RFO       ACCESS:        827  HIT:          8  MISS:        819
cpu0_L2C PREFETCH  ACCESS:          0  HIT:          0  MISS:          0
cpu0_L2C WRITEBACK ACCESS:        829  HIT:        829  MISS:          0
LLC TOTAL     ACCESS:       1817  HIT:        834  MISS:        983
LLC LOAD      ACCESS:        164  HIT:          0  MISS:        164
LLC RFO       ACCESS:        819  HIT:          0  MISS:        819
LLC PREFETCH  ACCESS:          0  HIT:          0  MISS:          0
LLC WRITEBACK ACCESS:        834  HIT:        834  MISS:          0
Heartbeat CPU 0 instructions: 84000004 cycles: 33500310 heartbeat IPC: 1.69341 cumulative IPC: 1.68392 (Simulation time: 0 hr 38 min 49 sec) 

Region of Interest Statistics
cpu0_DTLB TOTAL     ACCESS:    5028230  HIT:    5028214  MISS:         16
cpu0_DTLB LOAD      ACCESS:    4344247  HIT:    4344243  MISS:          4
cpu0_DTLB RFO       ACCESS:     683983  HIT:     683971  MISS:         12
cpu0_DTLB PREFETCH  ACCESS:          0  HIT:          0  MISS:          0
cpu0_DTLB WRITEBACK ACCESS:          0  HIT:          0  MISS:          0
cpu0_ITLB TOTAL     ACCESS:    4156089  HIT:    4156089  MISS:          0
cpu0_ITLB LOAD      ACCESS:    4156089  HIT:    4156089  MISS:          0
cpu0_ITLB RFO       ACCESS:          0  HIT:          0  MISS:          0
cpu0_ITLB PREFETCH  ACCESS:          0  HIT:          0  MISS:          0
cpu0_ITLB WRITEBACK ACCESS:          0  HIT:          0  MISS:          0
cpu0_L1I TOTAL     ACCESS:      71881  HIT:      71881  MISS:          0
cpu0_L1I LOAD      ACCESS:      71881  HIT:      71881  MISS:          0
cpu0_L1I RFO       ACCESS:          0  HIT:          0  MISS:          0
cpu0_L1I PREFETCH  ACCESS:          0  HIT:          0  MISS:          0
cpu0_L1I WRITEBACK ACCESS:          0  HIT:          0  MISS:          0
cpu0_STLB TOTAL     ACCESS:         16  HIT:          1  MISS:         15
cpu0_STLB LOAD      ACCESS:          4  HIT:          1  MISS:          3
cpu0_STLB RFO       ACCESS:         12  HIT:          0  MISS:         12
cpu0_STLB PREFETCH  ACCESS:          0  HIT:          0  MISS:          0
cpu0_STLB WRITEBACK ACCESS:          0  HIT:          0  MISS:          0
cpu0_L1D TOTAL     ACCESS:    5509929  HIT:    5508914  MISS:       1015
cpu0_L1D LOAD      ACCESS:    4387646  HIT:    4387465  MISS:        181
cpu0_L1D RFO       ACCESS:    1122268  HIT:    1121434  MISS:        834
cpu0_L1D PREFETCH  ACCESS:          0  HIT:          0  MISS:          0
cpu0_L1D WRITEBACK ACCESS:          0  HIT:          0  MISS:          0
cpu0_L2C TOTAL     ACCESS:       1851  HIT:        860  MISS:        991
cpu0_L2C LOAD      ACCESS:        181  HIT:         16  MISS:        165
cpu0_L2C RFO       ACCESS:        834  HIT:          8  MISS:        826
cpu0_L2C PREFETCH  ACCESS:          0  HIT:          0  MISS:          0
cpu0_L2C WRITEBACK ACCESS:        836  HIT:        836  MISS:          0
LLC TOTAL     ACCESS:       1829  HIT:        838  MISS:        991
LLC LOAD      ACCESS:        165  HIT:          0  MISS:        165
LLC RFO       ACCESS:        826  HIT:          0  MISS:        826
LLC PREFETCH  ACCESS:          0  HIT:          0  MISS:          0
LLC WRITEBACK ACCESS:        838  HIT:        838  MISS:          0
Heartbeat CPU 0 instructions: 86000002 cycles: 34694536 heartbeat IPC: 1.67472 cumulative IPC: 1.6834 (Simulation time: 0 hr 39 min 37 sec) 

Region of Interest Statistics
cpu0_DTLB TOTAL     ACCESS:    5324633  HIT:    5324615  MISS:         18
cpu0_DTLB LOAD      ACCESS:    4600130  HIT:    4600126  MISS:          4
cpu0_DTLB RFO       ACCESS:     724503  HIT:     724489  MISS:         14
cpu0_DTLB PREFETCH  ACCESS:          0  HIT:          0  MISS:          0
cpu0_DTLB WRITEBACK ACCESS:          0  HIT:          0  MISS:          0
cpu0_ITLB TOTAL     ACCESS:    4401173  HIT:    4401173  MISS:          0
cpu0_ITLB LOAD      ACCESS:    4401173  HIT:    4401173  MISS:          0
cpu0_ITLB RFO       ACCESS:          0  HIT:          0  MISS:          0
cpu0_ITLB PREFETCH  ACCESS:          0  HIT:          0  MISS:          0
cpu0_ITLB WRITEBACK ACCESS:          0  HIT:          0  MISS:          0
cpu0_L1I TOTAL     ACCESS:      75534  HIT:      75534  MISS:          0
cpu0_L1I LOAD      ACCESS:      75534  HIT:      75534  MISS:          0
cpu0_L1I RFO       ACCESS:          0  HIT:          0  MISS:          0
cpu0_L1I PREFETCH  ACCESS:          0  HIT:          0  MISS:          0
cpu0_L1I WRITEBACK ACCESS:          0  HIT:          0  MISS:          0
cpu0_STLB TOTAL     ACCESS:         18  HIT:          1  MISS:         17
cpu0_STLB LOAD      ACCESS:          4  HIT:          1  MISS:          3
cpu0_STLB RFO       ACCESS:         14  HIT:          0  MISS:         14
cpu0_STLB PREFETCH  ACCESS:          0  HIT:          0  MISS:          0
cpu0_STLB WRITEBACK ACCESS:          0  HIT:          0  MISS:          0
cpu0_L1D TOTAL     ACCESS:    5833639  HIT:    5832598  MISS:       1041
cpu0_L1D LOAD      ACCESS:    4645241  HIT:    4645055  MISS:        186
cpu0_L1D RFO       ACCESS:    1188381  HIT:    1187526  MISS:        855
cpu0_L1D PREFETCH  ACCESS:          0  HIT:          0  MISS:          0
cpu0_L1D WRITEBACK ACCESS:          0  HIT:          0  MISS:          0
cpu0_L2C TOTAL     ACCESS:       1901  HIT:        884  MISS:       1017
cpu0_L2C LOAD      ACCESS:        186  HIT:         16  MISS:        170
cpu0_L2C RFO       ACCESS:        855  HIT:          8  MISS:        847
cpu0_L2C PREFETCH  ACCESS:          0  HIT:          0  MISS:          0
cpu0_L2C WRITEBACK ACCESS:        860  HIT:        860  MISS:          0
LLC TOTAL     ACCESS:       1870  HIT:        853  MISS:       1017
LLC LOAD      ACCESS:        170  HIT:          0  MISS:        170
LLC RFO       ACCESS:        847  HIT:          0  MISS:        847
LLC PREFETCH  ACCESS:          0  HIT:          0  MISS:          0
LLC WRITEBACK ACCESS:        853  HIT:        853  MISS:          0
Heartbeat CPU 0 instructions: 88000000 cycles: 35882827 heartbeat IPC: 1.68309 cumulative IPC: 1.68339 (Simulation time: 0 hr 40 min 25 sec) 

Region of Interest Statistics
cpu0_DTLB TOTAL     ACCESS:    5619860  HIT:    5619842  MISS:         18
cpu0_DTLB LOAD      ACCESS:    4854764  HIT:    4854760  MISS:          4
cpu0_DTLB RFO       ACCESS:     765096  HIT:     765082  MISS:         14
cpu0_DTLB PREFETCH  ACCESS:          0  HIT:          0  MISS:          0
cpu0_DTLB WRITEBACK ACCESS:          0  HIT:          0  MISS:          0
cpu0_ITLB TOTAL     ACCESS:    4645236  HIT:    4645236  MISS:          0
cpu0_ITLB LOAD      ACCESS:    4645236  HIT:    4645236  MISS:          0
cpu0_ITLB RFO       ACCESS:          0  HIT:          0  MISS:          0
cpu0_ITLB PREFETCH  ACCESS:          0  HIT:          0  MISS:          0
cpu0_ITLB WRITEBACK ACCESS:          0  HIT:          0  MISS:          0
cpu0_L1I TOTAL     ACCESS:      79425  HIT:      79425  MISS:          0
cpu0_L1I LOAD      ACCESS:      79425  HIT:      79425  MISS:          0
cpu0_L1I RFO       ACCESS:          0  HIT:          0  MISS:          0
cpu0_L1I PREFETCH  ACCESS:          0  HIT:          0  MISS:          0
cpu0_L1I WRITEBACK ACCESS:          0  HIT:          0  MISS:          0
cpu0_STLB TOTAL     ACCESS:         18  HIT:          1  MISS:         17
cpu0_STLB LOAD      ACCESS:          4  HIT:          1  MISS:          3
cpu0_STLB RFO       ACCESS:         14  HIT:          0  MISS:         14
cpu0_STLB PREFETCH  ACCESS:          0  HIT:          0  MISS:          0
cpu0_STLB WRITEBACK ACCESS:          0  HIT:          0  MISS:          0
cpu0_L1D TOTAL     ACCESS:    6159663  HIT:    6158601  MISS:       1062
cpu0_L1D LOAD      ACCESS:    4904177  HIT:    4903988  MISS:        189
cpu0_L1D RFO       ACCESS:    1255469  HIT:    1254596  MISS:        873
cpu0_L1D PREFETCH  ACCESS:          0  HIT:          0  MISS:          0
cpu0_L1D WRITEBACK ACCESS:          0  HIT:          0  MISS:          0
cpu0_L2C TOTAL     ACCESS:       1941  HIT:        903  MISS:       1038
cpu0_L2C LOAD      ACCESS:        189  HIT:         16  MISS:        173
cpu0_L2C RFO       ACCESS:        873  HIT:          8  MISS:        865
cpu0_L2C PREFETCH  ACCESS:          0  HIT:          0  MISS:          0
cpu0_L2C WRITEBACK ACCESS:        879  HIT:        879  MISS:          0
LLC TOTAL     ACCESS:       1903  HIT:        865  MISS:       1038
LLC LOAD      ACCESS:        173  HIT:          0  MISS:        173
LLC RFO       ACCESS:        865  HIT:          0  MISS:        865
LLC PREFETCH  ACCESS:          0  HIT:          0  MISS:          0
LLC WRITEBACK ACCESS:        865  HIT:        865  MISS:          0
Heartbeat CPU 0 instructions: 90000004 cycles: 37076565 heartbeat IPC: 1.67541 cumulative IPC: 1.68298 (Simulation time: 0 hr 41 min 16 sec) 

Region of Interest Statistics
cpu0_DTLB TOTAL     ACCESS:    5915489  HIT:    5915463  MISS:         26
cpu0_DTLB LOAD      ACCESS:    5108752  HIT:    5108746  MISS:          6
cpu0_DTLB RFO       ACCESS:     806737  HIT:     806717  MISS:         20
cpu0_DTLB PREFETCH  ACCESS:          0  HIT:          0  MISS:          0
cpu0_DTLB WRITEBACK ACCESS:          0  HIT:          0  MISS:          0
cpu0_ITLB TOTAL     ACCESS:    4883385  HIT:    4883385  MISS:          0
cpu0_ITLB LOAD      ACCESS:    4883385  HIT:    4883385  MISS:          0
cpu0_ITLB RFO       ACCESS:          0  HIT:          0  MISS:          0
cpu0_ITLB PREFETCH  ACCESS:          0  HIT:          0  MISS:          0
cpu0_ITLB WRITEBACK ACCESS:          0  HIT:          0  MISS:          0
cpu0_L1I TOTAL     ACCESS:      91083  HIT:      91083  MISS:          0
cpu0_L1I LOAD      ACCESS:      91083  HIT:      91083  MISS:          0
cpu0_L1I RFO       ACCESS:          0  HIT:          0  MISS:          0
cpu0_L1I PREFETCH  ACCESS:          0  HIT:          0  MISS:          0
cpu0_L1I WRITEBACK ACCESS:          0  HIT:          0  MISS:          0
cpu0_STLB TOTAL     ACCESS:         26  HIT:          2  MISS:         24
cpu0_STLB LOAD      ACCESS:          6  HIT:          2  MISS:          4
cpu0_STLB RFO       ACCESS:         20  HIT:          0  MISS:         20
cpu0_STLB PREFETCH  ACCESS:          0  HIT:          0  MISS:          0
cpu0_STLB WRITEBACK ACCESS:          0  HIT:          0  MISS:          0
cpu0_L1D TOTAL     ACCESS:    6489801  HIT:    6488154  MISS:       1647
cpu0_L1D LOAD      ACCESS:    5164832  HIT:    5164531  MISS:        301
cpu0_L1D RFO       ACCESS:    1324945  HIT:    1323600  MISS:       1345
cpu0_L1D PREFETCH  ACCESS:          0  HIT:          0  MISS:          0
cpu0_L1D WRITEBACK ACCESS:          0  HIT:          0  MISS:          0
cpu0_L2C TOTAL     ACCESS:       2998  HIT:       1407  MISS:       1591
cpu0_L2C LOAD      ACCESS:        301  HIT:         36  MISS:        265
cpu0_L2C RFO       ACCESS:       1345  HIT:         19  MISS:       1326
cpu0_L2C PREFETCH  ACCESS:          0  HIT:          0  MISS:          0
cpu0_L2C WRITEBACK ACCESS:       1351  HIT:       1351  MISS:          0
LLC TOTAL     ACCESS:       2926  HIT:       1335  MISS:       1591
LLC LOAD      ACCESS:        265  HIT:          0  MISS:        265
LLC RFO       ACCESS:       1326  HIT:          0  MISS:       1326
LLC PREFETCH  ACCESS:          0  HIT:          0  MISS:          0
LLC WRITEBACK ACCESS:       1335  HIT:       1335  MISS:          0
Heartbeat CPU 0 instructions: 92000002 cycles: 38269719 heartbeat IPC: 1.67623 cumulative IPC: 1.68266 (Simulation time: 0 hr 42 min 3 sec) 

Region of Interest Statistics
cpu0_DTLB TOTAL     ACCESS:    6211829  HIT:    6211803  MISS:         26
cpu0_DTLB LOAD      ACCESS:    5364638  HIT:    5364632  MISS:          6
cpu0_DTLB RFO       ACCESS:     847191  HIT:     847171  MISS:         20
cpu0_DTLB PREFETCH  ACCESS:          0  HIT:          0  MISS:          0
cpu0_DTLB WRITEBACK ACCESS:          0  HIT:          0  MISS:          0
cpu0_ITLB TOTAL     ACCESS:    5128470  HIT:    5128470  MISS:          0
cpu0_ITLB LOAD      ACCESS:    5128470  HIT:    5128470  MISS:          0
cpu0_ITLB RFO       ACCESS:          0  HIT:          0  MISS:          0
cpu0_ITLB PREFETCH  ACCESS:          0  HIT:          0  MISS:          0
cpu0_ITLB WRITEBACK ACCESS:          0  HIT:          0  MISS:          0
cpu0_L1I TOTAL     ACCESS:      94663  HIT:      94663  MISS:          0
cpu0_L1I LOAD      ACCESS:      94663  HIT:      94663  MISS:          0
cpu0_L1I RFO       ACCESS:          0  HIT:          0  MISS:          0
cpu0_L1I PREFETCH  ACCESS:          0  HIT:          0  MISS:          0
cpu0_L1I WRITEBACK ACCESS:          0  HIT:          0  MISS:          0
cpu0_STLB TOTAL     ACCESS:         26  HIT:          2  MISS:         24
cpu0_STLB LOAD      ACCESS:          6  HIT:          2  MISS:          4
cpu0_STLB RFO       ACCESS:         20  HIT:          0  MISS:         20
cpu0_STLB PREFETCH  ACCESS:          0  HIT:          0  MISS:          0
cpu0_STLB WRITEBACK ACCESS:          0  HIT:          0  MISS:          0
cpu0_L1D TOTAL     ACCESS:    6813627  HIT:    6811966  MISS:       1661
cpu0_L1D LOAD      ACCESS:    5422515  HIT:    5422212  MISS:        303
cpu0_L1D RFO       ACCESS:    1391088  HIT:    1389731  MISS:       1357
cpu0_L1D PREFETCH  ACCESS:          0  HIT:          0  MISS:          0
cpu0_L1D WRITEBACK ACCESS:          0  HIT:          0  MISS:          0
cpu0_L2C TOTAL     ACCESS:       3025  HIT:       1420  MISS:       1605
cpu0_L2C LOAD      ACCESS:        303  HIT:         36  MISS:        267
cpu0_L2C RFO       ACCESS:       1357  HIT:         19  MISS:       1338
cpu0_L2C PREFETCH  ACCESS:          0  HIT:          0  MISS:          0
cpu0_L2C WRITEBACK ACCESS:       1364  HIT:       1364  MISS:          0
LLC TOTAL     ACCESS:       2954  HIT:       1349  MISS:       1605
LLC LOAD      ACCESS:        267  HIT:          0  MISS:        267
LLC RFO       ACCESS:       1338  HIT:          0  MISS:       1338
LLC PREFETCH  ACCESS:          0  HIT:          0  MISS:          0
LLC WRITEBACK ACCESS:       1349  HIT:       1349  MISS:          0
Heartbeat CPU 0 instructions: 94000000 cycles: 39459361 heartbeat IPC: 1.68118 cumulative IPC: 1.68259 (Simulation time: 0 hr 42 min 51 sec) 

Region of Interest Statistics
cpu0_DTLB TOTAL     ACCESS:    6507313  HIT:    6507285  MISS:         28
cpu0_DTLB LOAD      ACCESS:    5619738  HIT:    5619732  MISS:          6
cpu0_DTLB RFO       ACCESS:     887575  HIT:     887553  MISS:         22
cpu0_DTLB PREFETCH  ACCESS:          0  HIT:          0  MISS:          0
cpu0_DTLB WRITEBACK ACCESS:          0  HIT:          0  MISS:          0
cpu0_ITLB TOTAL     ACCESS:    5373444  HIT:    5373444  MISS:          0
cpu0_ITLB LOAD      ACCESS:    5373444  HIT:    5373444  MISS:          0
cpu0_ITLB RFO       ACCESS:          0  HIT:          0  MISS:          0
cpu0_ITLB PREFETCH  ACCESS:          0  HIT:          0  MISS:          0
cpu0_ITLB WRITEBACK ACCESS:          0  HIT:          0  MISS:          0
cpu0_L1I TOTAL     ACCESS:      98486  HIT:      98486  MISS:          0
cpu0_L1I LOAD      ACCESS:      98486  HIT:      98486  MISS:          0
cpu0_L1I RFO       ACCESS:          0  HIT:          0  MISS:          0
cpu0_L1I PREFETCH  ACCESS:          0  HIT:          0  MISS:          0
cpu0_L1I WRITEBACK ACCESS:          0  HIT:          0  MISS:          0
cpu0_STLB TOTAL     ACCESS:         28  HIT:          2  MISS:         26
cpu0_STLB LOAD      ACCESS:          6  HIT:          2  MISS:          4
cpu0_STLB RFO       ACCESS:         22  HIT:          0  MISS:         22
cpu0_STLB PREFETCH  ACCESS:          0  HIT:          0  MISS:          0
cpu0_STLB WRITEBACK ACCESS:          0  HIT:          0  MISS:          0
cpu0_L1D TOTAL     ACCESS:    7137348  HIT:    7135669  MISS:       1679
cpu0_L1D LOAD      ACCESS:    5679866  HIT:    5679560  MISS:        306
cpu0_L1D RFO       ACCESS:    1457456  HIT:    1456084  MISS:       1372
cpu0_L1D PREFETCH  ACCESS:          0  HIT:          0  MISS:          0
cpu0_L1D WRITEBACK ACCESS:          0  HIT:          0  MISS:          0
cpu0_L2C TOTAL     ACCESS:       3059  HIT:       1436  MISS:       1623
cpu0_L2C LOAD      ACCESS:        306  HIT:         36  MISS:        270
cpu0_L2C RFO       ACCESS:       1372  HIT:         19  MISS:       1353
cpu0_L2C PREFETCH  ACCESS:          0  HIT:          0  MISS:          0
cpu0_L2C WRITEBACK ACCESS:       1380  HIT:       1380  MISS:          0
LLC TOTAL     ACCESS:       2985  HIT:       1362  MISS:       1623
LLC LOAD      ACCESS:        270  HIT:          0  MISS:        270
LLC RFO       ACCESS:       1353  HIT:          0  MISS:       1353
LLC PREFETCH  ACCESS:          0  HIT:          0  MISS:          0
LLC WRITEBACK ACCESS:       1362  HIT:       1362  MISS:          0
Heartbeat CPU 0 instructions: 96000000 cycles: 40725880 heartbeat IPC: 1.57913 cumulative IPC: 1.67781 (Simulation time: 0 hr 43 min 37 sec) 

Region of Interest Statistics
cpu0_DTLB TOTAL     ACCESS:    6801862  HIT:    6801831  MISS:         31
cpu0_DTLB LOAD      ACCESS:    5863727  HIT:    5863720  MISS:          7
cpu0_DTLB RFO       ACCESS:     938135  HIT:     938111  MISS:         24
cpu0_DTLB PREFETCH  ACCESS:          0  HIT:          0  MISS:          0
cpu0_DTLB WRITEBACK ACCESS:          0  HIT:          0  MISS:          0
cpu0_ITLB TOTAL     ACCESS:    5611136  HIT:    5611136  MISS:          0
cpu0_ITLB LOAD      ACCESS:    5611136  HIT:    5611136  MISS:          0
cpu0_ITLB RFO       ACCESS:          0  HIT:          0  MISS:          0
cpu0_ITLB PREFETCH  ACCESS:          0  HIT:          0  MISS:          0
cpu0_ITLB WRITEBACK ACCESS:          0  HIT:          0  MISS:          0
cpu0_L1I TOTAL     ACCESS:     109111  HIT:     109111  MISS:          0
cpu0_L1I LOAD      ACCESS:     109111  HIT:     109111  MISS:          0
cpu0_L1I RFO       ACCESS:          0  HIT:          0  MISS:          0
cpu0_L1I PREFETCH  ACCESS:          0  HIT:          0  MISS:          0
cpu0_L1I WRITEBACK ACCESS:          0  HIT:          0  MISS:          0
cpu0_STLB TOTAL     ACCESS:         31  HIT:          2  MISS:         29
cpu0_STLB LOAD      ACCESS:          7  HIT:          2  MISS:          5
cpu0_STLB RFO       ACCESS:         24  HIT:          0  MISS:         24
cpu0_STLB PREFETCH  ACCESS:          0  HIT:          0  MISS:          0
cpu0_STLB WRITEBACK ACCESS:          0  HIT:          0  MISS:          0
cpu0_L1D TOTAL     ACCESS:    7482501  HIT:    7480671  MISS:       1830
cpu0_L1D LOAD      ACCESS:    5937253  HIT:    5936921  MISS:        332
cpu0_L1D RFO       ACCESS:    1545219  HIT:    1543722  MISS:       1497
cpu0_L1D PREFETCH  ACCESS:          0  HIT:          0  MISS:          0
cpu0_L1D WRITEBACK ACCESS:          0  HIT:          0  MISS:          0
cpu0_L2C TOTAL     ACCESS:       3331  HIT:       1557  MISS:       1774
cpu0_L2C LOAD      ACCESS:        332  HIT:         36  MISS:        296
cpu0_L2C RFO       ACCESS:       1497  HIT:         19  MISS:       1478
cpu0_L2C PREFETCH  ACCESS:          0  HIT:          0  MISS:          0
cpu0_L2C WRITEBACK ACCESS:       1501  HIT:       1501  MISS:          0
LLC TOTAL     ACCESS:       3276  HIT:       1502  MISS:       1774
LLC LOAD      ACCESS:        296  HIT:          0  MISS:        296
LLC RFO       ACCESS:       1478  HIT:          0  MISS:       1478
LLC PREFETCH  ACCESS:          0  HIT:          0  MISS:          0
LLC WRITEBACK ACCESS:       1502  HIT:       1502  MISS:          0
Heartbeat CPU 0 instructions: 98000001 cycles: 41936636 heartbeat IPC: 1.65186 cumulative IPC: 1.67672 (Simulation time: 0 hr 44 min 24 sec) 

Region of Interest Statistics
cpu0_DTLB TOTAL     ACCESS:    7097667  HIT:    7097636  MISS:         31
cpu0_DTLB LOAD      ACCESS:    6116787  HIT:    6116780  MISS:          7
cpu0_DTLB RFO       ACCESS:     980880  HIT:     980856  MISS:         24
cpu0_DTLB PREFETCH  ACCESS:          0  HIT:          0  MISS:          0
cpu0_DTLB WRITEBACK ACCESS:          0  HIT:          0  MISS:          0
cpu0_ITLB TOTAL     ACCESS:    5854750  HIT:    5854750  MISS:          0
cpu0_ITLB LOAD      ACCESS:    5854750  HIT:    5854750  MISS:          0
cpu0_ITLB RFO       ACCESS:          0  HIT:          0  MISS:          0
cpu0_ITLB PREFETCH  ACCESS:          0  HIT:          0  MISS:          0
cpu0_ITLB WRITEBACK ACCESS:          0  HIT:          0  MISS:          0
cpu0_L1I TOTAL     ACCESS:     114495  HIT:     114495  MISS:          0
cpu0_L1I LOAD      ACCESS:     114495  HIT:     114495  MISS:          0
cpu0_L1I RFO       ACCESS:          0  HIT:          0  MISS:          0
cpu0_L1I PREFETCH  ACCESS:          0  HIT:          0  MISS:          0
cpu0_L1I WRITEBACK ACCESS:          0  HIT:          0  MISS:          0
cpu0_STLB TOTAL     ACCESS:         31  HIT:          2  MISS:         29
cpu0_STLB LOAD      ACCESS:          7  HIT:          2  MISS:          5
cpu0_STLB RFO       ACCESS:         24  HIT:          0  MISS:         24
cpu0_STLB PREFETCH  ACCESS:          0  HIT:          0  MISS:          0
cpu0_STLB WRITEBACK ACCESS:          0  HIT:          0  MISS:          0
cpu0_L1D TOTAL     ACCESS:    7810148  HIT:    7808257  MISS:       1891
cpu0_L1D LOAD      ACCESS:    6193904  HIT:    6193562  MISS:        342
cpu0_L1D RFO       ACCESS:    1616215  HIT:    1614667  MISS:       1548
cpu0_L1D PREFETCH  ACCESS:          0  HIT:          0  MISS:          0
cpu0_L1D WRITEBACK ACCESS:          0  HIT:          0  MISS:          0
cpu0_L2C TOTAL     ACCESS:       3446  HIT:       1611  MISS:       1835
cpu0_L2C LOAD      ACCESS:        342  HIT:         36  MISS:        306
cpu0_L2C RFO       ACCESS:       1548  HIT:         19  MISS:       1529
cpu0_L2C PREFETCH  ACCESS:          0  HIT:          0  MISS:          0
cpu0_L2C WRITEBACK ACCESS:       1555  HIT:       1555  MISS:          0
LLC TOTAL     ACCESS:       3392  HIT:       1557  MISS:       1835
LLC LOAD      ACCESS:        306  HIT:          0  MISS:        306
LLC RFO       ACCESS:       1529  HIT:          0  MISS:       1529
LLC PREFETCH  ACCESS:          0  HIT:          0  MISS:          0
LLC WRITEBACK ACCESS:       1557  HIT:       1557  MISS:          0
Heartbeat CPU 0 instructions: 100000002 cycles: 43117158 heartbeat IPC: 1.69417 cumulative IPC: 1.67741 (Simulation time: 0 hr 45 min 12 sec) 

Region of Interest Statistics
cpu0_DTLB TOTAL     ACCESS:    7393136  HIT:    7393105  MISS:         31
cpu0_DTLB LOAD      ACCESS:    6372940  HIT:    6372933  MISS:          7
cpu0_DTLB RFO       ACCESS:    1020196  HIT:    1020172  MISS:         24
cpu0_DTLB PREFETCH  ACCESS:          0  HIT:          0  MISS:          0
cpu0_DTLB WRITEBACK ACCESS:          0  HIT:          0  MISS:          0
cpu0_ITLB TOTAL     ACCESS:    6100366  HIT:    6100366  MISS:          0
cpu0_ITLB LOAD      ACCESS:    6100366  HIT:    6100366  MISS:          0
cpu0_ITLB RFO       ACCESS:          0  HIT:          0  MISS:          0
cpu0_ITLB PREFETCH  ACCESS:          0  HIT:          0  MISS:          0
cpu0_ITLB WRITEBACK ACCESS:          0  HIT:          0  MISS:          0
cpu0_L1I TOTAL     ACCESS:     117581  HIT:     117581  MISS:          0
cpu0_L1I LOAD      ACCESS:     117581  HIT:     117581  MISS:          0
cpu0_L1I RFO       ACCESS:          0  HIT:          0  MISS:          0
cpu0_L1I PREFETCH  ACCESS:          0  HIT:          0  MISS:          0
cpu0_L1I WRITEBACK ACCESS:          0  HIT:          0  MISS:          0
cpu0_STLB TOTAL     ACCESS:         31  HIT:          2  MISS:         29
cpu0_STLB LOAD      ACCESS:          7  HIT:          2  MISS:          5
cpu0_STLB RFO       ACCESS:         24  HIT:          0  MISS:         24
cpu0_STLB PREFETCH  ACCESS:          0  HIT:          0  MISS:          0
cpu0_STLB WRITEBACK ACCESS:          0  HIT:          0  MISS:          0
cpu0_L1D TOTAL     ACCESS:    8132198  HIT:    8130301  MISS:       1897
cpu0_L1D LOAD      ACCESS:    6451988  HIT:    6451646  MISS:        342
cpu0_L1D RFO       ACCESS:    1680181  HIT:    1678627  MISS:       1554
cpu0_L1D PREFETCH  ACCESS:          0  HIT:          0  MISS:          0
cpu0_L1D WRITEBACK ACCESS:          0  HIT:          0  MISS:          0
cpu0_L2C TOTAL     ACCESS:       3457  HIT:       1616  MISS:       1841
cpu0_L2C LOAD      ACCESS:        342  HIT:         36  MISS:        306
cpu0_L2C RFO       ACCESS:       1554  HIT:         19  MISS:       1535
cpu0_L2C PREFETCH  ACCESS:          0  HIT:          0  MISS:          0
cpu0_L2C WRITEBACK ACCESS:       1560  HIT:       1560  MISS:          0
LLC TOTAL     ACCESS:       3403  HIT:       1562  MISS:       1841
LLC LOAD      ACCESS:        306  HIT:          0  MISS:        306
LLC RFO       ACCESS:       1535  HIT:          0  MISS:       1535
LLC PREFETCH  ACCESS:          0  HIT:          0  MISS:          0
LLC WRITEBACK ACCESS:       1562  HIT:       1562  MISS:          0
Heartbeat CPU 0 instructions: 102000003 cycles: 44310151 heartbeat IPC: 1.67646 cumulative IPC: 1.67737 (Simulation time: 0 hr 46 min 0 sec) 

Region of Interest Statistics
cpu0_DTLB TOTAL     ACCESS:    7689065  HIT:    7689034  MISS:         31
cpu0_DTLB LOAD      ACCESS:    6627941  HIT:    6627934  MISS:          7
cpu0_DTLB RFO       ACCESS:    1061124  HIT:    1061100  MISS:         24
cpu0_DTLB PREFETCH  ACCESS:          0  HIT:          0  MISS:          0
cpu0_DTLB WRITEBACK ACCESS:          0  HIT:          0  MISS:          0
cpu0_ITLB TOTAL     ACCESS:    6344172  HIT:    6344172  MISS:          0
cpu0_ITLB LOAD      ACCESS:    6344172  HIT:    6344172  MISS:          0
cpu0_ITLB RFO       ACCESS:          0  HIT:          0  MISS:          0
cpu0_ITLB PREFETCH  ACCESS:          0  HIT:          0  MISS:          0
cpu0_ITLB WRITEBACK ACCESS:          0  HIT:          0  MISS:          0
cpu0_L1I TOTAL     ACCESS:     121168  HIT:     121168  MISS:          0
cpu0_L1I LOAD      ACCESS:     121168  HIT:     121168  MISS:          0
cpu0_L1I RFO       ACCESS:          0  HIT:          0  MISS:          0
cpu0_L1I PREFETCH  ACCESS:          0  HIT:          0  MISS:          0
cpu0_L1I WRITEBACK ACCESS:          0  HIT:          0  MISS:          0
cpu0_STLB TOTAL     ACCESS:         31  HIT:          2  MISS:         29
cpu0_STLB LOAD      ACCESS:          7  HIT:          2  MISS:          5
cpu0_STLB RFO       ACCESS:         24  HIT:          0  MISS:         24
cpu0_STLB PREFETCH  ACCESS:          0  HIT:          0  MISS:          0
cpu0_STLB WRITEBACK ACCESS:          0  HIT:          0  MISS:          0
cpu0_L1D TOTAL     ACCESS:    8459312  HIT:    8457399  MISS:       1913
cpu0_L1D LOAD      ACCESS:    6711622  HIT:    6711276  MISS:        346
cpu0_L1D RFO       ACCESS:    1747661  HIT:    1746095  MISS:       1566
cpu0_L1D PREFETCH  ACCESS:          0  HIT:          0  MISS:          0
cpu0_L1D WRITEBACK ACCESS:          0  HIT:          0  MISS:          0
cpu0_L2C TOTAL     ACCESS:       3483  HIT:       1626  MISS:       1857
cpu0_L2C LOAD      ACCESS:        346  HIT:         36  MISS:        310
cpu0_L2C RFO       ACCESS:       1566  HIT:         19  MISS:       1547
cpu0_L2C PREFETCH  ACCESS:          0  HIT:          0  MISS:          0
cpu0_L2C WRITEBACK ACCESS:       1570  HIT:       1570  MISS:          0
LLC TOTAL     ACCESS:       3433  HIT:       1576  MISS:       1857
LLC LOAD      ACCESS:        310  HIT:          0  MISS:        310
LLC RFO       ACCESS:       1547  HIT:          0  MISS:       1547
LLC PREFETCH  ACCESS:          0  HIT:          0  MISS:          0
LLC WRITEBACK ACCESS:       1576  HIT:       1576  MISS:          0
Heartbeat CPU 0 instructions: 104000001 cycles: 45520223 heartbeat IPC: 1.65279 cumulative IPC: 1.67645 (Simulation time: 0 hr 46 min 50 sec) 

Region of Interest Statistics
cpu0_DTLB TOTAL     ACCESS:    7984253  HIT:    7984212  MISS:         41
cpu0_DTLB LOAD      ACCESS:    6880902  HIT:    6880893  MISS:          9
cpu0_DTLB RFO       ACCESS:    1103351  HIT:    1103319  MISS:         32
cpu0_DTLB PREFETCH  ACCESS:          0  HIT:          0  MISS:          0
cpu0_DTLB WRITEBACK ACCESS:          0  HIT:          0  MISS:          0
cpu0_ITLB TOTAL     ACCESS:    6583824  HIT:    6583824  MISS:          0
cpu0_ITLB LOAD      ACCESS:    6583824  HIT:    6583824  MISS:          0
cpu0_ITLB RFO       ACCESS:          0  HIT:          0  MISS:          0
cpu0_ITLB PREFETCH  ACCESS:          0  HIT:          0  MISS:          0
cpu0_ITLB WRITEBACK ACCESS:          0  HIT:          0  MISS:          0
cpu0_L1I TOTAL     ACCESS:     134452  HIT:     134452  MISS:          0
cpu0_L1I LOAD      ACCESS:     134452  HIT:     134452  MISS:          0
cpu0_L1I RFO       ACCESS:          0  HIT:          0  MISS:          0
cpu0_L1I PREFETCH  ACCESS:          0  HIT:          0  MISS:          0
cpu0_L1I WRITEBACK ACCESS:          0  HIT:          0  MISS:          0
cpu0_STLB TOTAL     ACCESS:         41  HIT:          2  MISS:         39
cpu0_STLB LOAD      ACCESS:          9  HIT:          2  MISS:          7
cpu0_STLB RFO       ACCESS:         32  HIT:          0  MISS:         32
cpu0_STLB PREFETCH  ACCESS:          0  HIT:          0  MISS:          0
cpu0_STLB WRITEBACK ACCESS:          0  HIT:          0  MISS:          0
cpu0_L1D TOTAL     ACCESS:    8784790  HIT:    8782269  MISS:       2521
cpu0_L1D LOAD      ACCESS:    6966889  HIT:    6966436  MISS:        453
cpu0_L1D RFO       ACCESS:    1817862  HIT:    1815796  MISS:       2066
cpu0_L1D PREFETCH  ACCESS:          0  HIT:          0  MISS:          0
cpu0_L1D WRITEBACK ACCESS:          0  HIT:          0  MISS:          0
cpu0_L2C TOTAL     ACCESS:       4585  HIT:       2130  MISS:       2455
cpu0_L2C LOAD      ACCESS:        453  HIT:         44  MISS:        409
cpu0_L2C RFO       ACCESS:       2066  HIT:         22  MISS:       2044
cpu0_L2C PREFETCH  ACCESS:          0  HIT:          0  MISS:          0
cpu0_L2C WRITEBACK ACCESS:       2064  HIT:       2062  MISS:          2
LLC TOTAL     ACCESS:       4564  HIT:       2111  MISS:       2453
LLC LOAD      ACCESS:        409  HIT:          0  MISS:        409
LLC RFO       ACCESS:       2044  HIT:          0  MISS:       2044
LLC PREFETCH  ACCESS:          0  HIT:          0  MISS:          0
LLC WRITEBACK ACCESS:       2111  HIT:       2111  MISS:          0
Heartbeat CPU 0 instructions: 106000000 cycles: 46769173 heartbeat IPC: 1.60134 cumulative IPC: 1.67364 (Simulation time: 0 hr 47 min 40 sec) 

Region of Interest Statistics
cpu0_DTLB TOTAL     ACCESS:    8279417  HIT:    8279374  MISS:         43
cpu0_DTLB LOAD      ACCESS:    7127897  HIT:    7127888  MISS:          9
cpu0_DTLB RFO       ACCESS:    1151520  HIT:    1151486  MISS:         34
cpu0_DTLB PREFETCH  ACCESS:          0  HIT:          0  MISS:          0
cpu0_DTLB WRITEBACK ACCESS:          0  HIT:          0  MISS:          0
cpu0_ITLB TOTAL     ACCESS:    6822862  HIT:    6822862  MISS:          0
cpu0_ITLB LOAD      ACCESS:    6822862  HIT:    6822862  MISS:          0
cpu0_ITLB RFO       ACCESS:          0  HIT:          0  MISS:          0
cpu0_ITLB PREFETCH  ACCESS:          0  HIT:          0  MISS:          0
cpu0_ITLB WRITEBACK ACCESS:          0  HIT:          0  MISS:          0
cpu0_L1I TOTAL     ACCESS:     144429  HIT:     144429  MISS:          0
cpu0_L1I LOAD      ACCESS:     144429  HIT:     144429  MISS:          0
cpu0_L1I RFO       ACCESS:          0  HIT:          0  MISS:          0
cpu0_L1I PREFETCH  ACCESS:          0  HIT:          0  MISS:          0
cpu0_L1I WRITEBACK ACCESS:          0  HIT:          0  MISS:          0
cpu0_STLB TOTAL     ACCESS:         43  HIT:          2  MISS:         41
cpu0_STLB LOAD      ACCESS:          9  HIT:          2  MISS:          7
cpu0_STLB RFO       ACCESS:         34  HIT:          0  MISS:         34
cpu0_STLB PREFETCH  ACCESS:          0  HIT:          0  MISS:          0
cpu0_STLB WRITEBACK ACCESS:          0  HIT:          0  MISS:          0
cpu0_L1D TOTAL     ACCESS:    9123898  HIT:    9121187  MISS:       2711
cpu0_L1D LOAD      ACCESS:    7223529  HIT:    7223045  MISS:        484
cpu0_L1D RFO       ACCESS:    1900328  HIT:    1898103  MISS:       2225
cpu0_L1D PREFETCH  ACCESS:          0  HIT:          0  MISS:          0
cpu0_L1D WRITEBACK ACCESS:          0  HIT:          0  MISS:          0
cpu0_L2C TOTAL     ACCESS:       4933  HIT:       2288  MISS:       2645
cpu0_L2C LOAD      ACCESS:        484  HIT:         44  MISS:        440
cpu0_L2C RFO       ACCESS:       2225  HIT:         22  MISS:       2203
cpu0_L2C PREFETCH  ACCESS:          0  HIT:          0  MISS:          0
cpu0_L2C WRITEBACK ACCESS:       2222  HIT:       2220  MISS:          2
LLC TOTAL     ACCESS:       4924  HIT:       2281  MISS:       2643
LLC LOAD      ACCESS:        440  HIT:          0  MISS:        440
LLC RFO       ACCESS:       2203  HIT:          0  MISS:       2203
LLC PREFETCH  ACCESS:          0  HIT:          0  MISS:          0
LLC WRITEBACK ACCESS:       2281  HIT:       2281  MISS:          0
Heartbeat CPU 0 instructions: 108000001 cycles: 47959171 heartbeat IPC: 1.68068 cumulative IPC: 1.67389 (Simulation time: 0 hr 48 min 28 sec) 

Region of Interest Statistics
cpu0_DTLB TOTAL     ACCESS:    8575463  HIT:    8575420  MISS:         43
cpu0_DTLB LOAD      ACCESS:    7383925  HIT:    7383916  MISS:          9
cpu0_DTLB RFO       ACCESS:    1191538  HIT:    1191504  MISS:         34
[...]
cpu0_DTLB TOTAL     ACCESS:  221196770  HIT:  221192860  MISS:       3910
cpu0_DTLB LOAD      ACCESS:  187840936  HIT:  187840191  MISS:        745
cpu0_DTLB RFO       ACCESS:   33355834  HIT:   33352669  MISS:       3165
cpu0_DTLB PREFETCH  ACCESS:          0  HIT:          0  MISS:          0
cpu0_DTLB WRITEBACK ACCESS:          0  HIT:          0  MISS:          0
cpu0_ITLB TOTAL     ACCESS:  179448556  HIT:  179448556  MISS:          0
cpu0_ITLB LOAD      ACCESS:  179448556  HIT:  179448556  MISS:          0
cpu0_ITLB RFO       ACCESS:          0  HIT:          0  MISS:          0
cpu0_ITLB PREFETCH  ACCESS:          0  HIT:          0  MISS:          0
cpu0_ITLB WRITEBACK ACCESS:          0  HIT:          0  MISS:          0
cpu0_L1I TOTAL     ACCESS:    7633550  HIT:    7633550  MISS:          0
cpu0_L1I LOAD      ACCESS:    7633550  HIT:    7633550  MISS:          0
cpu0_L1I RFO       ACCESS:          0  HIT:          0  MISS:          0
cpu0_L1I PREFETCH  ACCESS:          0  HIT:          0  MISS:          0
cpu0_L1I WRITEBACK ACCESS:          0  HIT:          0  MISS:          0
cpu0_STLB TOTAL     ACCESS:       3910  HIT:        155  MISS:       3755
cpu0_STLB LOAD      ACCESS:        745  HIT:        114  MISS:        631
cpu0_STLB RFO       ACCESS:       3165  HIT:         41  MISS:       3124
cpu0_STLB PREFETCH  ACCESS:          0  HIT:          0  MISS:          0
cpu0_STLB WRITEBACK ACCESS:          0  HIT:          0  MISS:          0
cpu0_L1D TOTAL     ACCESS:  249038805  HIT:  248795525  MISS:     243280
cpu0_L1D LOAD      ACCESS:  192858818  HIT:  192816145  MISS:      42673
cpu0_L1D RFO       ACCESS:   56176234  HIT:   55975762  MISS:     200472
cpu0_L1D PREFETCH  ACCESS:          0  HIT:          0  MISS:          0
cpu0_L1D WRITEBACK ACCESS:          0  HIT:          0  MISS:          0
cpu0_L2C TOTAL     ACCESS:     442704  HIT:     202454  MISS:     240250
cpu0_L2C LOAD      ACCESS:      42673  HIT:       2592  MISS:      40081
cpu0_L2C RFO       ACCESS:     200472  HIT:        554  MISS:     199918
cpu0_L2C PREFETCH  ACCESS:          0  HIT:          0  MISS:          0
cpu0_L2C WRITEBACK ACCESS:     199424  HIT:     199180  MISS:        244
LLC TOTAL     ACCESS:     438758  HIT:     198613  MISS:     240145
LLC LOAD      ACCESS:      40081  HIT:         37  MISS:      40044
LLC RFO       ACCESS:     199918  HIT:          0  MISS:     199918
LLC PREFETCH  ACCESS:          0  HIT:          0  MISS:          0
LLC WRITEBACK ACCESS:     198752  HIT:     198576  MISS:        176
Heartbeat CPU 0 instructions: 1550000001 cycles: 932091034 heartbeat IPC: 1.49977 cumulative IPC: 1.6326 (Simulation time: 9 hr 48 min 1 sec) 

Region of Interest Statistics
cpu0_DTLB TOTAL     ACCESS:  221490703  HIT:  221486788  MISS:       3915
cpu0_DTLB LOAD      ACCESS:  188079523  HIT:  188078777  MISS:        746
cpu0_DTLB RFO       ACCESS:   33411180  HIT:   33408011  MISS:       3169
cpu0_DTLB PREFETCH  ACCESS:          0  HIT:          0  MISS:          0
cpu0_DTLB WRITEBACK ACCESS:          0  HIT:          0  MISS:          0
cpu0_ITLB TOTAL     ACCESS:  179683469  HIT:  179683469  MISS:          0
cpu0_ITLB LOAD      ACCESS:  179683469  HIT:  179683469  MISS:          0
cpu0_ITLB RFO       ACCESS:          0  HIT:          0  MISS:          0
cpu0_ITLB PREFETCH  ACCESS:          0  HIT:          0  MISS:          0
cpu0_ITLB WRITEBACK ACCESS:          0  HIT:          0  MISS:          0
cpu0_L1I TOTAL     ACCESS:    7648840  HIT:    7648840  MISS:          0
cpu0_L1I LOAD      ACCESS:    7648840  HIT:    7648840  MISS:          0
cpu0_L1I RFO       ACCESS:          0  HIT:          0  MISS:          0
cpu0_L1I PREFETCH  ACCESS:          0  HIT:          0  MISS:          0
cpu0_L1I WRITEBACK ACCESS:          0  HIT:          0  MISS:          0
cpu0_STLB TOTAL     ACCESS:       3915  HIT:        155  MISS:       3760
cpu0_STLB LOAD      ACCESS:        746  HIT:        114  MISS:        632
cpu0_STLB RFO       ACCESS:       3169  HIT:         41  MISS:       3128
cpu0_STLB PREFETCH  ACCESS:          0  HIT:          0  MISS:          0
cpu0_STLB WRITEBACK ACCESS:          0  HIT:          0  MISS:          0
cpu0_L1D TOTAL     ACCESS:  249387123  HIT:  249143573  MISS:     243550
cpu0_L1D LOAD      ACCESS:  193111491  HIT:  193068773  MISS:      42718
cpu0_L1D RFO       ACCESS:   56271874  HIT:   56071177  MISS:     200697
cpu0_L1D PREFETCH  ACCESS:          0  HIT:          0  MISS:          0
cpu0_L1D WRITEBACK ACCESS:          0  HIT:          0  MISS:          0
cpu0_L2C TOTAL     ACCESS:     443192  HIT:     202672  MISS:     240520
cpu0_L2C LOAD      ACCESS:      42718  HIT:       2592  MISS:      40126
cpu0_L2C RFO       ACCESS:     200697  HIT:        554  MISS:     200143
cpu0_L2C PREFETCH  ACCESS:          0  HIT:          0  MISS:          0
cpu0_L2C WRITEBACK ACCESS:     199642  HIT:     199398  MISS:        244
LLC TOTAL     ACCESS:     439231  HIT:     198816  MISS:     240415
LLC LOAD      ACCESS:      40126  HIT:         37  MISS:      40089
LLC RFO       ACCESS:     200143  HIT:          0  MISS:     200143
LLC PREFETCH  ACCESS:          0  HIT:          0  MISS:          0
LLC WRITEBACK ACCESS:     198955  HIT:     198779  MISS:        176
Finished CPU 0 instructions: 1500000004 cycles: 918781769 cumulative IPC: 1.6326 (Simulation time: 9 hr 48 min 1 sec) 

ChampSim completed all CPUs

Region of Interest Statistics

CPU 0 cumulative IPC: 1.6326 instructions: 1500000004 cycles: 918781769
cpu0_DTLB TOTAL     ACCESS:  221490703  HIT:  221486788  MISS:       3915
cpu0_DTLB LOAD      ACCESS:  188079523  HIT:  188078777  MISS:        746
cpu0_DTLB RFO       ACCESS:   33411180  HIT:   33408011  MISS:       3169
cpu0_DTLB PREFETCH  ACCESS:          0  HIT:          0  MISS:          0
cpu0_DTLB WRITEBACK ACCESS:          0  HIT:          0  MISS:          0
cpu0_DTLB TRANSLATION ACCESS:          0  HIT:          0  MISS:          0
cpu0_DTLB PREFETCH  REQUESTED:          0  ISSUED:          0  USEFUL:          0  USELESS:          0
cpu0_DTLB AVERAGE MISS LATENCY: 196.45 cycles
cpu0_ITLB TOTAL     ACCESS:  179683469  HIT:  179683469  MISS:          0
cpu0_ITLB LOAD      ACCESS:  179683469  HIT:  179683469  MISS:          0
cpu0_ITLB RFO       ACCESS:          0  HIT:          0  MISS:          0
cpu0_ITLB PREFETCH  ACCESS:          0  HIT:          0  MISS:          0
cpu0_ITLB WRITEBACK ACCESS:          0  HIT:          0  MISS:          0
cpu0_ITLB TRANSLATION ACCESS:          0  HIT:          0  MISS:          0
cpu0_ITLB PREFETCH  REQUESTED:          0  ISSUED:          0  USEFUL:          0  USELESS:          0
cpu0_ITLB AVERAGE MISS LATENCY: -nan cycles
cpu0_L1I TOTAL     ACCESS:    7648840  HIT:    7648840  MISS:          0
cpu0_L1I LOAD      ACCESS:    7648840  HIT:    7648840  MISS:          0
cpu0_L1I RFO       ACCESS:          0  HIT:          0  MISS:          0
cpu0_L1I PREFETCH  ACCESS:          0  HIT:          0  MISS:          0
cpu0_L1I WRITEBACK ACCESS:          0  HIT:          0  MISS:          0
cpu0_L1I TRANSLATION ACCESS:          0  HIT:          0  MISS:          0
cpu0_L1I PREFETCH  REQUESTED:          0  ISSUED:          0  USEFUL:          0  USELESS:          0
cpu0_L1I AVERAGE MISS LATENCY: -nan cycles
cpu0_STLB TOTAL     ACCESS:       3915  HIT:        155  MISS:       3760
cpu0_STLB LOAD      ACCESS:        746  HIT:        114  MISS:        632
cpu0_STLB RFO       ACCESS:       3169  HIT:         41  MISS:       3128
cpu0_STLB PREFETCH  ACCESS:          0  HIT:          0  MISS:          0
cpu0_STLB WRITEBACK ACCESS:          0  HIT:          0  MISS:          0
cpu0_STLB TRANSLATION ACCESS:          0  HIT:          0  MISS:          0
cpu0_STLB PREFETCH  REQUESTED:          0  ISSUED:          0  USEFUL:          0  USELESS:          0
cpu0_STLB AVERAGE MISS LATENCY: 195.177 cycles
cpu0_L1D TOTAL     ACCESS:  249387123  HIT:  249143573  MISS:     243550
cpu0_L1D LOAD      ACCESS:  193111491  HIT:  193068773  MISS:      42718
cpu0_L1D RFO       ACCESS:   56271874  HIT:   56071177  MISS:     200697
cpu0_L1D PREFETCH  ACCESS:          0  HIT:          0  MISS:          0
cpu0_L1D WRITEBACK ACCESS:          0  HIT:          0  MISS:          0
cpu0_L1D TRANSLATION ACCESS:       3758  HIT:       3623  MISS:        135
cpu0_L1D PREFETCH  REQUESTED:          0  ISSUED:          0  USEFUL:          0  USELESS:          0
cpu0_L1D AVERAGE MISS LATENCY: 267.61 cycles
cpu0_L2C TOTAL     ACCESS:     443192  HIT:     202672  MISS:     240520
cpu0_L2C LOAD      ACCESS:      42718  HIT:       2592  MISS:      40126
cpu0_L2C RFO       ACCESS:     200697  HIT:        554  MISS:     200143
cpu0_L2C PREFETCH  ACCESS:          0  HIT:          0  MISS:          0
cpu0_L2C WRITEBACK ACCESS:     199642  HIT:     199398  MISS:        244
cpu0_L2C TRANSLATION ACCESS:        135  HIT:        128  MISS:          7
cpu0_L2C PREFETCH  REQUESTED:          0  ISSUED:          0  USEFUL:          0  USELESS:          0
cpu0_L2C AVERAGE MISS LATENCY: 259.839 cycles
LLC TOTAL     ACCESS:     439231  HIT:     198816  MISS:     240415
LLC LOAD      ACCESS:      40126  HIT:         37  MISS:      40089
LLC RFO       ACCESS:     200143  HIT:          0  MISS:     200143
LLC PREFETCH  ACCESS:          0  HIT:          0  MISS:          0
LLC WRITEBACK ACCESS:     198955  HIT:     198779  MISS:        176
LLC TRANSLATION ACCESS:          7  HIT:          0  MISS:          7
LLC PREFETCH  REQUESTED:          0  ISSUED:          0  USEFUL:          0  USELESS:          0
LLC AVERAGE MISS LATENCY: 238.965 cycles
~~~~~~~~~~Reuse Distance Profiler output~~~~~~~~~~
0	0	0
1	0	0
2	0	0
3	0	0
4	0	0
5	0	0
6	0	0
7	0	0
8	0	0
9	0	0
10	0	0
11	0	0
12	0	0
13	0	0
14	0	0
15	0	0
16	0	0
17	0	0
18	0	0
19	0	0
20	0	0
21	0	0
22	0	0
23	0	0
24	0	0
25	0	0
26	0	0
27	0	0
28	0	0
29	0	0
30	0	0
31	0	0
32	0	0
33	0	0
34	0	0
35	0	0
36	0	0
37	0	0
38	0	0
39	0	0
40	0	0
41	0	0
42	0	0
43	0	0
44	0	0
45	0	0
46	0	0
47	0	0
48	0	0
49	0	0
50	0	0
51	0	0
52	0	0
53	0	0
54	0	0
55	0	0
56	0	0
57	0	0
58	0	0
59	0	0
60	0	0
61	0	0
62	0	0
63	0	0
64	0	0
66	0	0
68	0	0
70	0	0
72	0	0
74	0	0
76	0	0
78	0	0
80	0	0
82	0	0
84	0	0
86	0	0
88	0	0
90	0	0
92	0	0
94	0	0
96	0	0
98	0	0
100	0	0
102	0	0
104	0	0
106	0	0
108	0	0
110	0	0
112	0	0
114	0	0
116	0	0
118	0	0
120	0	0
122	0	0
124	0	0
126	0	0
128	0	0
132	0	0
136	0	0
140	0	0
144	0	0
148	0	0
152	0	0
156	0	0
160	0	0
164	0	0
168	0	0
172	0	0
176	0	0
180	0	0
184	0	0
188	0	0
192	0	0
196	0	0
200	0	0
204	0	0
208	0	0
212	0	0
216	0	0
220	0	0
224	0	0
228	0	0
232	0	0
236	0	0
240	0	0
244	0	0
248	0	0
252	0	0
256	0	0
264	0	0
272	0	0
280	0	0
288	0	0
296	0	0
304	0	0
312	0	0
320	0	0
328	0	0
336	0	0
344	0	0
352	0	0
360	0	0
368	0	0
376	0	0
384	0	0
392	0	0
400	0	0
408	0	0
416	0	0
424	0	0
432	0	0
440	0	0
448	0	0
456	0	0
464	0	0
472	0	0
480	0	0
488	0	0
496	0	0
504	0	0
512	0	0
528	0	0
544	0	0
560	0	0
576	0	0
592	0	0
608	0	0
624	0	0
640	0	0
656	0	0
672	0	0
688	0	0
704	0	0
720	0	0
736	0	0
752	0	0
768	0	0
784	0	0
800	0	0
816	0	0
832	0	0
848	0	0
864	0	0
880	0	0
896	0	0
912	0	0
928	0	0
944	0	0
960	0	0
976	0	0
992	0	0
1008	0	0
1024	0	0
1056	0	0
1088	0	0
1120	0	0
1152	0	0
1184	0	0
1216	0	0
1248	0	0
1280	0	0
1312	0	0
1344	0	0
1376	0	0
1408	0	0
1440	0	0
1472	0	0
1504	0	0
1536	0	0
1568	0	0
1600	0	0
1632	0	0
1664	0	0
1696	0	0
1728	0	0
1760	0	0
1792	0	0
1824	0	0
1856	0	0
1888	0	0
1920	0	0
1952	0	0
1984	0	0
2016	0	0
2048	0	0
2112	0	0
2176	0	0
2240	0	0
2304	0	0
2368	0	0
2432	0	0
2496	0	0
2560	0	0
2624	0	0
2688	0	0
2752	0	0
2816	0	0
2880	0	0
2944	0	0
3008	0	0
3072	0	0
3136	0	0
3200	0	0
3264	0	0
3328	0	0
3392	0	0
3456	0	0
3520	0	0
3584	0	0
3648	0	0
3712	0	0
3776	0	0
3840	0	0
3904	0	0
3968	0	0
4032	0	0
4096	0	0
4224	0	0
4352	0	0
4480	0	0
4608	0	0
4736	0	0
4864	0	0
4992	0	0
5120	0	0
5248	0	0
5376	0	0
5504	0	0
5632	0	0
5760	0	0
5888	0	0
6016	0	0
6144	0	0
6272	0	0
6400	0	0
6528	0	0
6656	0	0
6784	0	0
6912	0	0
7040	0	0
7168	0	0
7296	0	0
7424	0	0
7552	0	0
7680	0	0
7808	0	0
7936	0	0
8064	0	0
8192	0	0
8448	0	0
8704	0	0
8960	0	0
9216	0	0
9472	0	0
9728	0	0
9984	0	0
10240	0	0
10496	0	0
10752	0	0
11008	0	0
11264	0	0
11520	0	0
11776	0	0
12032	0	0
12288	0	0
12544	0	0
12800	0	0
13056	0	0
13312	0	0
13568	0	0
13824	0	0
14080	0	0
14336	0	0
14592	0	0
14848	0	0
15104	0	0
15360	0	0
15616	0	0
15872	0	0
16128	0	0
16384	0	0
16896	0	0
17408	0	0
17920	0	0
18432	0	0
18944	0	0
19456	0	0
19968	0	0
20480	0	0
20992	0	0
21504	0	0
22016	0	0
22528	0	0
23040	0	0
23552	0	0
24064	0	0
24576	0	0
25088	0	0
25600	0	0
26112	0	0
26624	0	0
27136	0	0
27648	0	0
28160	0	0
28672	0	0
29184	0	0
29696	0	0
30208	0	0
30720	0	0
31232	0	0
31744	0	0
32256	0	0
32768	0	0
33792	0	0
34816	0	0
35840	0	0
36864	0	0
37888	0	0
38912	0	0
39936	0	0
40960	0	0
41984	0	0
43008	0	0
44032	0	0
45056	0	0
46080	0	0
47104	0	0
48128	0	0
49152	0	0
50176	0	0
51200	0	0
52224	0	0
53248	0	0
54272	0	0
55296	0	0
56320	0	0
57344	0	0
58368	0	0
59392	0	0
60416	0	0
61440	0	0
62464	0	0
63488	0	0
64512	0	0
65536	0	0
67584	0	0
69632	0	0
71680	0	0
73728	0	0
75776	0	0
77824	0	0
79872	0	0
81920	0	0
83968	0	0
86016	0	0
88064	0	0
90112	0	0
92160	0	0
94208	0	0
96256	0	0
98304	0	0
100352	0	0
102400	0	0
104448	0	0
106496	0	0
108544	0	0
110592	0	0
112640	0	0
114688	0	0
116736	0	0
118784	0	0
120832	0	0
122880	0	0
124928	0	0
126976	0	0
129024	0	0
131072	0	0
135168	0	0
139264	0	0
143360	0	0
147456	0	0
151552	0	0
155648	0	0
159744	0	0
163840	0	0
167936	0	0
172032	0	0
176128	0	0
180224	0	0
184320	0	0
188416	0	0
192512	0	0
196608	0	0
200704	0	0
204800	0	0
208896	0	0
212992	0	0
217088	0	0
221184	0	0
225280	0	0
229376	0	0
233472	0	0
237568	0	0
241664	0	0
245760	0	0
249856	0	0
253952	0	0
258048	0	0
262144	0	0
270336	0	0
278528	0	0
286720	0	0
294912	0	0
303104	0	0
311296	0	0
319488	0	0
327680	0	0
335872	0	0
344064	0	0
352256	0	0
360448	0	0
368640	0	0
376832	0	0
385024	0	0
393216	0	0
401408	0	0
409600	0	0
417792	0	0
425984	0	0
434176	0	0
442368	0	0
450560	0	0
458752	0	0
466944	0	0
475136	0	0
483328	0	0
491520	0	0
499712	0	0
507904	0	0
516096	0	0
524288	0	0
540672	0	0
557056	0	0
573440	0	0
589824	0	0
606208	0	0
622592	0	0
638976	0	0
655360	0	0
671744	0	0
688128	0	0
704512	0	0
720896	0	0
737280	0	0
753664	0	0
770048	0	0
786432	0	0
802816	0	0
819200	0	0
835584	0	0
851968	0	0
868352	0	0
884736	0	0
901120	0	0
917504	0	0
933888	0	0
950272	0	0
966656	0	0
983040	0	0
999424	0	0
1015808	0	0
1032192	0	0
1048576	0	0
1081344	0	0
1114112	0	0
1146880	0	0
1179648	0	0
1212416	0	0
1245184	0	0
1277952	0	0
1310720	0	0
1343488	0	0
1376256	0	0
1409024	0	0
1441792	0	0
1474560	0	0
1507328	0	0
1540096	0	0
1572864	0	0
1605632	0	0
1638400	0	0
1671168	0	0
1703936	0	0
1736704	0	0
1769472	0	0
1802240	0	0
1835008	0	0
1867776	0	0
1900544	0	0
1933312	0	0
1966080	0	0
1998848	0	0
2031616	0	0
2064384	0	0
2097152	0	0
2162688	0	0
2228224	0	0
2293760	0	0
2359296	0	0
2424832	0	0
2490368	0	0
2555904	0	0
2621440	0	0
2686976	0	0
2752512	0	0
2818048	0	0
2883584	0	0
2949120	0	0
3014656	0	0
3080192	0	0
3145728	0	0
3211264	0	0
3276800	0	0
3342336	0	0
3407872	0	0
3473408	0	0
3538944	0	0
3604480	0	0
3670016	0	0
3735552	0	0
3801088	0	0
3866624	0	0
3932160	0	0
3997696	0	0
4063232	0	0
4128768	0	0
4194304	0	0
4325376	0	0
4456448	0	0
4587520	0	0
4718592	0	0
4849664	0	0
4980736	0	0
5111808	0	0
5242880	0	0
5373952	0	0
5505024	0	0
5636096	0	0
5767168	0	0
5898240	0	0
6029312	0	0
6160384	0	0
6291456	0	0
6422528	0	0
6553600	0	0
6684672	0	0
6815744	0	0
6946816	0	0
7077888	0	0
7208960	0	0
7340032	0	0
7471104	0	0
7602176	0	0
7733248	0	0
7864320	0	0
7995392	0	0
8126464	0	0
8257536	0	0
8388608	0	0
8650752	0	0
8912896	0	0
9175040	0	0
9437184	0	0
9699328	0	0
9961472	0	0
10223616	0	0
10485760	0	0
10747904	0	0
11010048	0	0
11272192	0	0
11534336	0	0
11796480	0	0
12058624	0	0
12320768	0	0
12582912	0	0
12845056	0	0
13107200	0	0
13369344	0	0
13631488	0	0
13893632	0	0
14155776	0	0
14417920	0	0
14680064	0	0
14942208	0	0
15204352	0	0
15466496	0	0
15728640	0	0
15990784	0	0
16252928	0	0
16515072	0	0
16777216	0	0
17301504	0	0
17825792	0	0
18350080	0	0
18874368	0	0
19398656	0	0
19922944	0	0
20447232	0	0
20971520	0	0
21495808	0	0
22020096	0	0
22544384	0	0
23068672	0	0
23592960	0	0
24117248	0	0
24641536	0	0
25165824	0	0
25690112	0	0
26214400	0	0
26738688	0	0
27262976	0	0
27787264	0	0
28311552	0	0
28835840	0	0
29360128	0	0
29884416	0	0
30408704	0	0
30932992	0	0
31457280	0	0
31981568	0	0
32505856	0	0
33030144	0	0
33554432	0	0
34603008	0	0
35651584	0	0
36700160	0	0
37748736	0	0
38797312	0	0
39845888	0	0
40894464	0	0
41943040	0	0
42991616	0	0
44040192	0	0
45088768	0	0
46137344	0	0
47185920	0	0
48234496	0	0
49283072	0	0
50331648	0	0
51380224	0	0
52428800	0	0
53477376	0	0
54525952	0	0
55574528	0	0
56623104	0	0
57671680	0	0
58720256	0	0
59768832	0	0
60817408	0	0
61865984	0	0
62914560	0	0
63963136	0	0
65011712	0	0
66060288	0	0
67108864	0	0
69206016	0	0
71303168	0	0
73400320	0	0
75497472	0	0
77594624	0	0
79691776	0	0
81788928	0	0
83886080	0	0
85983232	0	0
88080384	0	0
90177536	0	0
92274688	0	0
94371840	0	0
96468992	0	0
98566144	0	0
100663296	0	0
102760448	0	0
104857600	0	0
106954752	0	0
109051904	0	0
111149056	0	0
113246208	0	0
115343360	0	0
117440512	0	0
119537664	0	0
121634816	0	0
123731968	0	0
125829120	0	0
127926272	0	0
130023424	0	0
132120576	0	0
134217728	0	0
138412032	0	0
142606336	0	0
146800640	0	0
150994944	0	0
155189248	0	0
159383552	0	0
163577856	0	0
167772160	0	0
171966464	0	0
176160768	0	0
180355072	0	0
184549376	0	0
188743680	0	0
192937984	0	0
197132288	0	0
201326592	0	0
205520896	0	0
209715200	0	0
213909504	0	0
218103808	0	0
222298112	0	0
226492416	0	0
230686720	0	0
234881024	0	0
239075328	0	0
243269632	0	0
247463936	0	0
251658240	0	0
255852544	0	0
260046848	0	0
264241152	0	0
268435456	0	0
276824064	0	0
285212672	0	0
293601280	0	0
301989888	0	0
310378496	0	0
318767104	0	0
327155712	0	0
335544320	0	0
343932928	0	0
352321536	0	0
360710144	0	0
369098752	0	0
377487360	0	0
385875968	0	0
394264576	0	0
402653184	0	0
411041792	0	0
419430400	0	0
427819008	0	0
436207616	0	0
444596224	0	0
452984832	0	0
461373440	0	0
469762048	0	0
478150656	0	0
486539264	0	0
494927872	0	0
503316480	0	0
511705088	0	0
520093696	0	0
528482304	0	0
536870912	0	0
553648128	0	0
570425344	0	0
587202560	0	0
603979776	0	0
620756992	0	0
637534208	0	0
654311424	0	0
671088640	0	0
687865856	0	0
704643072	0	0
721420288	0	0
738197504	0	0
754974720	0	0
771751936	0	0
788529152	0	0
805306368	0	0
822083584	0	0
838860800	0	0
855638016	0	0
872415232	0	0
889192448	0	0
905969664	0	0
922746880	0	0
939524096	0	0
956301312	0	0
973078528	0	0
989855744	0	0
1006632960	0	0
1023410176	0	0
1040187392	0	0
1056964608	0	0
1073741824	0	0
1107296256	0	0
1140850688	0	0
1174405120	0	0
1207959552	0	0
1241513984	0	0
1275068416	0	0
1308622848	0	0
1342177280	0	0
1375731712	0	0
1409286144	0	0
1442840576	0	0
1476395008	0	0
1509949440	0	0
1543503872	0	0
1577058304	0	0
1610612736	0	0
1644167168	0	0
1677721600	0	0
1711276032	0	0
1744830464	0	0
1778384896	0	0
1811939328	0	0
1845493760	0	0
1879048192	0	0
1912602624	0	0
1946157056	0	0
1979711488	0	0
2013265920	0	0
2046820352	0	0
2080374784	0	0
2113929216	0	0
2147483648	0	0
2214592512	0	0
2281701376	0	0
2348810240	0	0
2415919104	0	0
2483027968	0	0
2550136832	0	0
2617245696	0	0
2684354560	0	0
2751463424	0	0
2818572288	0	0
2885681152	0	0
2952790016	0	0
3019898880	0	0
3087007744	0	0
3154116608	0	0
3221225472	0	0
3288334336	0	0
3355443200	0	0
3422552064	0	0
3489660928	0	0
3556769792	0	0
3623878656	0	0
3690987520	0	0
3758096384	0	0
3825205248	0	0
3892314112	0	0
3959422976	0	0
4026531840	0	0
4093640704	0	0
4160749568	0	0
4227858432	0	0
~~~~~~~~~~Reuse Distance Profiler output end~~~~~~~~~~

Sampler size:0

DRAM Statistics
 CHANNEL 0
 RQ ROW_BUFFER_HIT:         35  ROW_BUFFER_MISS:     240204
 DBUS AVG_CONGESTED_CYCLE:    3.91104
 WQ ROW_BUFFER_HIT:      19381  ROW_BUFFER_MISS:     179860  FULL:          0


CPU 0 Branch Prediction Accuracy: 80.4194% MPKI: 28.4968 Average ROB Occupancy at Mispredict: 47.1583
Branch type MPKI
BRANCH_DIRECT_JUMP: 6.66667e-07
BRANCH_INDIRECT: 0
BRANCH_CONDITIONAL: 28.4968
BRANCH_DIRECT_CALL: 0
BRANCH_INDIRECT_CALL: 0
BRANCH_RETURN: 0

