
*** ChampSim Multicore Out-of-Order Simulator ***

Warmup Instructions: 50000000
Simulation Instructions: 1500000000
Number of CPUs: 1
Off-chip DRAM Size: 4 GiB Channels: 1 Width: 64-bit Data Rate: 3200 MT/s

VirtualMemory physical capacity: 8588881920 num_ppages: 2096895
VirtualMemory page size: 4096 log2_page_size: 12

CPU 0 runs /s/traces/champsim_traces/607.cactuBSSN_s-2421B.champsimtrace.xz
CPU 0 Bimodal branch predictor
Basic BTB sets: 1024 ways: 8 indirect buffer size: 4096 RAS size: 64
Initializing LRU.
Initializing LRU.
Initializing LRU.
Initializing LRU.
Initializing rdLRU.
Initializing LRU.
Initializing LRU.
Heartbeat CPU 0 instructions: 2000001 cycles: 740299 heartbeat IPC: 2.70161 cumulative IPC: 2.70161 (Simulation time: 0 hr 1 min 50 sec) 
Heartbeat CPU 0 instructions: 4000003 cycles: 1480628 heartbeat IPC: 2.7015 cumulative IPC: 2.70156 (Simulation time: 0 hr 3 min 41 sec) 
Heartbeat CPU 0 instructions: 6000000 cycles: 2220286 heartbeat IPC: 2.70395 cumulative IPC: 2.70235 (Simulation time: 0 hr 5 min 30 sec) 
Heartbeat CPU 0 instructions: 8000001 cycles: 2960616 heartbeat IPC: 2.7015 cumulative IPC: 2.70214 (Simulation time: 0 hr 7 min 20 sec) 
Heartbeat CPU 0 instructions: 10000001 cycles: 3700558 heartbeat IPC: 2.70291 cumulative IPC: 2.7023 (Simulation time: 0 hr 9 min 12 sec) 
Heartbeat CPU 0 instructions: 12000002 cycles: 4439792 heartbeat IPC: 2.7055 cumulative IPC: 2.70283 (Simulation time: 0 hr 11 min 1 sec) 
Heartbeat CPU 0 instructions: 14000001 cycles: 5180238 heartbeat IPC: 2.70107 cumulative IPC: 2.70258 (Simulation time: 0 hr 12 min 46 sec) 
Heartbeat CPU 0 instructions: 16000001 cycles: 5920404 heartbeat IPC: 2.7021 cumulative IPC: 2.70252 (Simulation time: 0 hr 14 min 31 sec) 
Heartbeat CPU 0 instructions: 18000000 cycles: 6660788 heartbeat IPC: 2.7013 cumulative IPC: 2.70238 (Simulation time: 0 hr 16 min 10 sec) 
Heartbeat CPU 0 instructions: 20000004 cycles: 7401161 heartbeat IPC: 2.70135 cumulative IPC: 2.70228 (Simulation time: 0 hr 17 min 51 sec) 
Heartbeat CPU 0 instructions: 22000002 cycles: 8141166 heartbeat IPC: 2.70268 cumulative IPC: 2.70232 (Simulation time: 0 hr 19 min 34 sec) 
Heartbeat CPU 0 instructions: 24000001 cycles: 8881444 heartbeat IPC: 2.70169 cumulative IPC: 2.70226 (Simulation time: 0 hr 21 min 15 sec) 
Heartbeat CPU 0 instructions: 26000002 cycles: 9621658 heartbeat IPC: 2.70192 cumulative IPC: 2.70224 (Simulation time: 0 hr 22 min 54 sec) 
Heartbeat CPU 0 instructions: 28000000 cycles: 10361671 heartbeat IPC: 2.70265 cumulative IPC: 2.70227 (Simulation time: 0 hr 24 min 35 sec) 
Heartbeat CPU 0 instructions: 30000001 cycles: 11101777 heartbeat IPC: 2.70232 cumulative IPC: 2.70227 (Simulation time: 0 hr 26 min 10 sec) 
Heartbeat CPU 0 instructions: 32000000 cycles: 11842065 heartbeat IPC: 2.70165 cumulative IPC: 2.70223 (Simulation time: 0 hr 27 min 51 sec) 
Heartbeat CPU 0 instructions: 34000000 cycles: 12582573 heartbeat IPC: 2.70085 cumulative IPC: 2.70215 (Simulation time: 0 hr 29 min 28 sec) 
Heartbeat CPU 0 instructions: 36000002 cycles: 13322813 heartbeat IPC: 2.70183 cumulative IPC: 2.70213 (Simulation time: 0 hr 31 min 7 sec) 
Heartbeat CPU 0 instructions: 38000002 cycles: 14063235 heartbeat IPC: 2.70116 cumulative IPC: 2.70208 (Simulation time: 0 hr 32 min 40 sec) 
Heartbeat CPU 0 instructions: 40000001 cycles: 14803520 heartbeat IPC: 2.70166 cumulative IPC: 2.70206 (Simulation time: 0 hr 34 min 14 sec) 
Heartbeat CPU 0 instructions: 42000002 cycles: 15543981 heartbeat IPC: 2.70102 cumulative IPC: 2.70201 (Simulation time: 0 hr 35 min 51 sec) 
Heartbeat CPU 0 instructions: 44000003 cycles: 16284249 heartbeat IPC: 2.70173 cumulative IPC: 2.702 (Simulation time: 0 hr 37 min 28 sec) 
Heartbeat CPU 0 instructions: 46000001 cycles: 17024441 heartbeat IPC: 2.702 cumulative IPC: 2.702 (Simulation time: 0 hr 39 min 1 sec) 
Heartbeat CPU 0 instructions: 48000000 cycles: 17764557 heartbeat IPC: 2.70228 cumulative IPC: 2.70201 (Simulation time: 0 hr 40 min 32 sec) 
Heartbeat CPU 0 instructions: 50000003 cycles: 18504731 heartbeat IPC: 2.70207 cumulative IPC: 2.70201 (Simulation time: 0 hr 42 min 8 sec) 

Warmup complete CPU 0 instructions: 50000003 cycles: 18504731 (Simulation time: 0 hr 42 min 8 sec) 

Heartbeat CPU 0 instructions: 52000002 cycles: 19970903 heartbeat IPC: 1.3641 cumulative IPC: 1.3641 (Simulation time: 0 hr 44 min 12 sec) 

Region of Interest Statistics
cpu0_DTLB TOTAL     ACCESS:     473555  HIT:     400325  MISS:      73230
cpu0_DTLB LOAD      ACCESS:     407811  HIT:     343135  MISS:      64676
cpu0_DTLB RFO       ACCESS:      65744  HIT:      57190  MISS:       8554
cpu0_DTLB PREFETCH  ACCESS:          0  HIT:          0  MISS:          0
cpu0_DTLB WRITEBACK ACCESS:          0  HIT:          0  MISS:          0
cpu0_ITLB TOTAL     ACCESS:      49898  HIT:      49850  MISS:         48
cpu0_ITLB LOAD      ACCESS:      49898  HIT:      49850  MISS:         48
cpu0_ITLB RFO       ACCESS:          0  HIT:          0  MISS:          0
cpu0_ITLB PREFETCH  ACCESS:          0  HIT:          0  MISS:          0
cpu0_ITLB WRITEBACK ACCESS:          0  HIT:          0  MISS:          0
cpu0_L1I TOTAL     ACCESS:     195629  HIT:     178327  MISS:      17302
cpu0_L1I LOAD      ACCESS:     195629  HIT:     178327  MISS:      17302
cpu0_L1I RFO       ACCESS:          0  HIT:          0  MISS:          0
cpu0_L1I PREFETCH  ACCESS:          0  HIT:          0  MISS:          0
cpu0_L1I WRITEBACK ACCESS:          0  HIT:          0  MISS:          0
cpu0_STLB TOTAL     ACCESS:      73278  HIT:      72834  MISS:        444
cpu0_STLB LOAD      ACCESS:      64724  HIT:      64308  MISS:        416
cpu0_STLB RFO       ACCESS:       8554  HIT:       8526  MISS:         28
cpu0_STLB PREFETCH  ACCESS:          0  HIT:          0  MISS:          0
cpu0_STLB WRITEBACK ACCESS:          0  HIT:          0  MISS:          0
cpu0_L1D TOTAL     ACCESS:     722380  HIT:     584288  MISS:     138092
cpu0_L1D LOAD      ACCESS:     561959  HIT:     435556  MISS:     126403
cpu0_L1D RFO       ACCESS:     160105  HIT:     148539  MISS:      11566
cpu0_L1D PREFETCH  ACCESS:          0  HIT:          0  MISS:          0
cpu0_L1D WRITEBACK ACCESS:          0  HIT:          0  MISS:          0
cpu0_L2C TOTAL     ACCESS:     167696  HIT:     143741  MISS:      23955
cpu0_L2C LOAD      ACCESS:     143694  HIT:     123065  MISS:      20629
cpu0_L2C RFO       ACCESS:      11534  HIT:       8348  MISS:       3186
cpu0_L2C PREFETCH  ACCESS:          0  HIT:          0  MISS:          0
cpu0_L2C WRITEBACK ACCESS:      12345  HIT:      12306  MISS:         39
LLC TOTAL     ACCESS:      26061  HIT:      19547  MISS:       6514
LLC LOAD      ACCESS:      20629  HIT:      15257  MISS:       5372
LLC RFO       ACCESS:       1996  HIT:        888  MISS:       1108
LLC PREFETCH  ACCESS:          0  HIT:          0  MISS:          0
LLC WRITEBACK ACCESS:       3335  HIT:       3335  MISS:          0
Heartbeat CPU 0 instructions: 54000000 cycles: 21954625 heartbeat IPC: 1.0082 cumulative IPC: 1.15946 (Simulation time: 0 hr 46 min 38 sec) 

Region of Interest Statistics
cpu0_DTLB TOTAL     ACCESS:     834759  HIT:     610803  MISS:     223956
cpu0_DTLB LOAD      ACCESS:     666480  HIT:     453659  MISS:     212821
cpu0_DTLB RFO       ACCESS:     168279  HIT:     157144  MISS:      11135
cpu0_DTLB PREFETCH  ACCESS:          0  HIT:          0  MISS:          0
cpu0_DTLB WRITEBACK ACCESS:          0  HIT:          0  MISS:          0
cpu0_ITLB TOTAL     ACCESS:      88002  HIT:      87952  MISS:         50
cpu0_ITLB LOAD      ACCESS:      88002  HIT:      87952  MISS:         50
cpu0_ITLB RFO       ACCESS:          0  HIT:          0  MISS:          0
cpu0_ITLB PREFETCH  ACCESS:          0  HIT:          0  MISS:          0
cpu0_ITLB WRITEBACK ACCESS:          0  HIT:          0  MISS:          0
cpu0_L1I TOTAL     ACCESS:     396737  HIT:     379367  MISS:      17370
cpu0_L1I LOAD      ACCESS:     396737  HIT:     379367  MISS:      17370
cpu0_L1I RFO       ACCESS:          0  HIT:          0  MISS:          0
cpu0_L1I PREFETCH  ACCESS:          0  HIT:          0  MISS:          0
cpu0_L1I WRITEBACK ACCESS:          0  HIT:          0  MISS:          0
cpu0_STLB TOTAL     ACCESS:     224007  HIT:     223336  MISS:        671
cpu0_STLB LOAD      ACCESS:     212872  HIT:     212229  MISS:        643
cpu0_STLB RFO       ACCESS:      11135  HIT:      11107  MISS:         28
cpu0_STLB PREFETCH  ACCESS:          0  HIT:          0  MISS:          0
cpu0_STLB WRITEBACK ACCESS:          0  HIT:          0  MISS:          0
cpu0_L1D TOTAL     ACCESS:    1281780  HIT:     915200  MISS:     366580
cpu0_L1D LOAD      ACCESS:     899016  HIT:     551403  MISS:     347613
cpu0_L1D RFO       ACCESS:     382221  HIT:     363574  MISS:      18647
cpu0_L1D PREFETCH  ACCESS:          0  HIT:          0  MISS:          0
cpu0_L1D WRITEBACK ACCESS:          0  HIT:          0  MISS:          0
cpu0_L2C TOTAL     ACCESS:     409092  HIT:     316174  MISS:      92918
cpu0_L2C LOAD      ACCESS:     364955  HIT:     277371  MISS:      87584
cpu0_L2C RFO       ACCESS:      18596  HIT:      13515  MISS:       5081
cpu0_L2C PREFETCH  ACCESS:          0  HIT:          0  MISS:          0
cpu0_L2C WRITEBACK ACCESS:      25221  HIT:      25173  MISS:         48
LLC TOTAL     ACCESS:     101690  HIT:      76858  MISS:      24832
LLC LOAD      ACCESS:      87271  HIT:      63581  MISS:      23690
LLC RFO       ACCESS:       3872  HIT:       2764  MISS:       1108
LLC PREFETCH  ACCESS:          0  HIT:          0  MISS:          0
LLC WRITEBACK ACCESS:      10342  HIT:      10342  MISS:          0
Heartbeat CPU 0 instructions: 56000003 cycles: 23876800 heartbeat IPC: 1.04049 cumulative IPC: 1.11689 (Simulation time: 0 hr 49 min 4 sec) 

Region of Interest Statistics
cpu0_DTLB TOTAL     ACCESS:    1194237  HIT:     819457  MISS:     374780
cpu0_DTLB LOAD      ACCESS:     923468  HIT:     562519  MISS:     360949
cpu0_DTLB RFO       ACCESS:     270769  HIT:     256938  MISS:      13831
cpu0_DTLB PREFETCH  ACCESS:          0  HIT:          0  MISS:          0
cpu0_DTLB WRITEBACK ACCESS:          0  HIT:          0  MISS:          0
cpu0_ITLB TOTAL     ACCESS:     126084  HIT:     126034  MISS:         50
cpu0_ITLB LOAD      ACCESS:     126084  HIT:     126034  MISS:         50
cpu0_ITLB RFO       ACCESS:          0  HIT:          0  MISS:          0
cpu0_ITLB PREFETCH  ACCESS:          0  HIT:          0  MISS:          0
cpu0_ITLB WRITEBACK ACCESS:          0  HIT:          0  MISS:          0
cpu0_L1I TOTAL     ACCESS:     597514  HIT:     580144  MISS:      17370
cpu0_L1I LOAD      ACCESS:     597514  HIT:     580144  MISS:      17370
cpu0_L1I RFO       ACCESS:          0  HIT:          0  MISS:          0
cpu0_L1I PREFETCH  ACCESS:          0  HIT:          0  MISS:          0
cpu0_L1I WRITEBACK ACCESS:          0  HIT:          0  MISS:          0
cpu0_STLB TOTAL     ACCESS:     374830  HIT:     373909  MISS:        921
cpu0_STLB LOAD      ACCESS:     360999  HIT:     360106  MISS:        893
cpu0_STLB RFO       ACCESS:      13831  HIT:      13803  MISS:         28
cpu0_STLB PREFETCH  ACCESS:          0  HIT:          0  MISS:          0
cpu0_STLB WRITEBACK ACCESS:          0  HIT:          0  MISS:          0
cpu0_L1D TOTAL     ACCESS:    1841021  HIT:    1245877  MISS:     595144
cpu0_L1D LOAD      ACCESS:    1235967  HIT:     666840  MISS:     569127
cpu0_L1D RFO       ACCESS:     604261  HIT:     578789  MISS:      25472
cpu0_L1D PREFETCH  ACCESS:          0  HIT:          0  MISS:          0
cpu0_L1D WRITEBACK ACCESS:          0  HIT:          0  MISS:          0
cpu0_L2C TOTAL     ACCESS:     650645  HIT:     494032  MISS:     156613
cpu0_L2C LOAD      ACCESS:     586445  HIT:     437365  MISS:     149080
cpu0_L2C RFO       ACCESS:      25386  HIT:      18253  MISS:       7133
cpu0_L2C PREFETCH  ACCESS:          0  HIT:          0  MISS:          0
cpu0_L2C WRITEBACK ACCESS:      38269  HIT:      38211  MISS:         58
LLC TOTAL     ACCESS:     172175  HIT:     132039  MISS:      40136
LLC LOAD      ACCESS:     148497  HIT:     109503  MISS:      38994
LLC RFO       ACCESS:       5887  HIT:       4779  MISS:       1108
LLC PREFETCH  ACCESS:          0  HIT:          0  MISS:          0
LLC WRITEBACK ACCESS:      17449  HIT:      17449  MISS:          0
Heartbeat CPU 0 instructions: 58000001 cycles: 25788809 heartbeat IPC: 1.04602 cumulative IPC: 1.09829 (Simulation time: 0 hr 51 min 31 sec) 

Region of Interest Statistics
cpu0_DTLB TOTAL     ACCESS:    1553996  HIT:    1028447  MISS:     525549
cpu0_DTLB LOAD      ACCESS:    1179904  HIT:     670945  MISS:     508959
cpu0_DTLB RFO       ACCESS:     374092  HIT:     357502  MISS:      16590
cpu0_DTLB PREFETCH  ACCESS:          0  HIT:          0  MISS:          0
cpu0_DTLB WRITEBACK ACCESS:          0  HIT:          0  MISS:          0
cpu0_ITLB TOTAL     ACCESS:     164215  HIT:     164165  MISS:         50
cpu0_ITLB LOAD      ACCESS:     164215  HIT:     164165  MISS:         50
cpu0_ITLB RFO       ACCESS:          0  HIT:          0  MISS:          0
cpu0_ITLB PREFETCH  ACCESS:          0  HIT:          0  MISS:          0
cpu0_ITLB WRITEBACK ACCESS:          0  HIT:          0  MISS:          0
cpu0_L1I TOTAL     ACCESS:     798228  HIT:     780858  MISS:      17370
cpu0_L1I LOAD      ACCESS:     798228  HIT:     780858  MISS:      17370
cpu0_L1I RFO       ACCESS:          0  HIT:          0  MISS:          0
cpu0_L1I PREFETCH  ACCESS:          0  HIT:          0  MISS:          0
cpu0_L1I WRITEBACK ACCESS:          0  HIT:          0  MISS:          0
cpu0_STLB TOTAL     ACCESS:     525599  HIT:     524453  MISS:       1146
cpu0_STLB LOAD      ACCESS:     509009  HIT:     507891  MISS:       1118
cpu0_STLB RFO       ACCESS:      16590  HIT:      16562  MISS:         28
cpu0_STLB PREFETCH  ACCESS:          0  HIT:          0  MISS:          0
cpu0_STLB WRITEBACK ACCESS:          0  HIT:          0  MISS:          0
cpu0_L1D TOTAL     ACCESS:    2399334  HIT:    1576384  MISS:     822950
cpu0_L1D LOAD      ACCESS:    1572416  HIT:     782117  MISS:     790299
cpu0_L1D RFO       ACCESS:     825900  HIT:     793999  MISS:      31901
cpu0_L1D PREFETCH  ACCESS:          0  HIT:          0  MISS:          0
cpu0_L1D WRITEBACK ACCESS:          0  HIT:          0  MISS:          0
cpu0_L2C TOTAL     ACCESS:     890592  HIT:     661851  MISS:     228741
cpu0_L2C LOAD      ACCESS:     807592  HIT:     588960  MISS:     218632
cpu0_L2C RFO       ACCESS:      31770  HIT:      22196  MISS:       9574
cpu0_L2C PREFETCH  ACCESS:          0  HIT:          0  MISS:          0
cpu0_L2C WRITEBACK ACCESS:      50480  HIT:      50411  MISS:         69
LLC TOTAL     ACCESS:     251111  HIT:     195711  MISS:      55400
LLC LOAD      ACCESS:     217838  HIT:     163582  MISS:      54256
LLC RFO       ACCESS:       8325  HIT:       7217  MISS:       1108
LLC PREFETCH  ACCESS:          0  HIT:          0  MISS:          0
LLC WRITEBACK ACCESS:      24482  HIT:      24480  MISS:          2
Heartbeat CPU 0 instructions: 60000003 cycles: 27693260 heartbeat IPC: 1.05017 cumulative IPC: 1.08831 (Simulation time: 0 hr 54 min 0 sec) 

Region of Interest Statistics
cpu0_DTLB TOTAL     ACCESS:    1913592  HIT:    1237071  MISS:     676521
cpu0_DTLB LOAD      ACCESS:    1436789  HIT:     779969  MISS:     656820
cpu0_DTLB RFO       ACCESS:     476803  HIT:     457102  MISS:      19701
cpu0_DTLB PREFETCH  ACCESS:          0  HIT:          0  MISS:          0
cpu0_DTLB WRITEBACK ACCESS:          0  HIT:          0  MISS:          0
cpu0_ITLB TOTAL     ACCESS:     202333  HIT:     202283  MISS:         50
cpu0_ITLB LOAD      ACCESS:     202333  HIT:     202283  MISS:         50
cpu0_ITLB RFO       ACCESS:          0  HIT:          0  MISS:          0
cpu0_ITLB PREFETCH  ACCESS:          0  HIT:          0  MISS:          0
cpu0_ITLB WRITEBACK ACCESS:          0  HIT:          0  MISS:          0
cpu0_L1I TOTAL     ACCESS:     999335  HIT:     981965  MISS:      17370
cpu0_L1I LOAD      ACCESS:     999335  HIT:     981965  MISS:      17370
cpu0_L1I RFO       ACCESS:          0  HIT:          0  MISS:          0
cpu0_L1I PREFETCH  ACCESS:          0  HIT:          0  MISS:          0
cpu0_L1I WRITEBACK ACCESS:          0  HIT:          0  MISS:          0
cpu0_STLB TOTAL     ACCESS:     676571  HIT:     675175  MISS:       1396
cpu0_STLB LOAD      ACCESS:     656870  HIT:     655502  MISS:       1368
cpu0_STLB RFO       ACCESS:      19701  HIT:      19673  MISS:         28
cpu0_STLB PREFETCH  ACCESS:          0  HIT:          0  MISS:          0
cpu0_STLB WRITEBACK ACCESS:          0  HIT:          0  MISS:          0
cpu0_L1D TOTAL     ACCESS:    2957473  HIT:    1906229  MISS:    1051244
cpu0_L1D LOAD      ACCESS:    1908683  HIT:     897301  MISS:    1011382
cpu0_L1D RFO       ACCESS:    1047522  HIT:    1008642  MISS:      38880
cpu0_L1D PREFETCH  ACCESS:          0  HIT:          0  MISS:          0
cpu0_L1D WRITEBACK ACCESS:          0  HIT:          0  MISS:          0
cpu0_L2C TOTAL     ACCESS:    1131148  HIT:     835628  MISS:     295520
cpu0_L2C LOAD      ACCESS:    1028649  HIT:     745872  MISS:     282777
cpu0_L2C RFO       ACCESS:      38717  HIT:      26667  MISS:      12050
cpu0_L2C PREFETCH  ACCESS:          0  HIT:          0  MISS:          0
cpu0_L2C WRITEBACK ACCESS:      62800  HIT:      62725  MISS:         75
LLC TOTAL     ACCESS:     324069  HIT:     253410  MISS:      70659
LLC LOAD      ACCESS:     281773  HIT:     212258  MISS:      69515
LLC RFO       ACCESS:      10764  HIT:       9656  MISS:       1108
LLC PREFETCH  ACCESS:          0  HIT:          0  MISS:          0
LLC WRITEBACK ACCESS:      30914  HIT:      30912  MISS:          2
Heartbeat CPU 0 instructions: 62000002 cycles: 29601715 heartbeat IPC: 1.04797 cumulative IPC: 1.08137 (Simulation time: 0 hr 56 min 27 sec) 

Region of Interest Statistics
cpu0_DTLB TOTAL     ACCESS:    2272630  HIT:    1445321  MISS:     827309
cpu0_DTLB LOAD      ACCESS:    1693254  HIT:     888664  MISS:     804590
cpu0_DTLB RFO       ACCESS:     579376  HIT:     556657  MISS:      22719
cpu0_DTLB PREFETCH  ACCESS:          0  HIT:          0  MISS:          0
cpu0_DTLB WRITEBACK ACCESS:          0  HIT:          0  MISS:          0
cpu0_ITLB TOTAL     ACCESS:     240506  HIT:     240456  MISS:         50
cpu0_ITLB LOAD      ACCESS:     240506  HIT:     240456  MISS:         50
cpu0_ITLB RFO       ACCESS:          0  HIT:          0  MISS:          0
cpu0_ITLB PREFETCH  ACCESS:          0  HIT:          0  MISS:          0
cpu0_ITLB WRITEBACK ACCESS:          0  HIT:          0  MISS:          0
cpu0_L1I TOTAL     ACCESS:    1200401  HIT:    1183031  MISS:      17370
cpu0_L1I LOAD      ACCESS:    1200401  HIT:    1183031  MISS:      17370
cpu0_L1I RFO       ACCESS:          0  HIT:          0  MISS:          0
cpu0_L1I PREFETCH  ACCESS:          0  HIT:          0  MISS:          0
cpu0_L1I WRITEBACK ACCESS:          0  HIT:          0  MISS:          0
cpu0_STLB TOTAL     ACCESS:     827359  HIT:     825738  MISS:       1621
cpu0_STLB LOAD      ACCESS:     804640  HIT:     803047  MISS:       1593
cpu0_STLB RFO       ACCESS:      22719  HIT:      22691  MISS:         28
cpu0_STLB PREFETCH  ACCESS:          0  HIT:          0  MISS:          0
cpu0_STLB WRITEBACK ACCESS:          0  HIT:          0  MISS:          0
cpu0_L1D TOTAL     ACCESS:    3515547  HIT:    2236271  MISS:    1279276
cpu0_L1D LOAD      ACCESS:    2244759  HIT:    1012334  MISS:    1232425
cpu0_L1D RFO       ACCESS:    1269295  HIT:    1223633  MISS:      45662
cpu0_L1D PREFETCH  ACCESS:          0  HIT:          0  MISS:          0
cpu0_L1D WRITEBACK ACCESS:          0  HIT:          0  MISS:          0
cpu0_L2C TOTAL     ACCESS:    1371453  HIT:    1009241  MISS:     362212
cpu0_L2C LOAD      ACCESS:    1249671  HIT:     902743  MISS:     346928
cpu0_L2C RFO       ACCESS:      45472  HIT:      31017  MISS:      14455
cpu0_L2C PREFETCH  ACCESS:          0  HIT:          0  MISS:          0
cpu0_L2C WRITEBACK ACCESS:      75121  HIT:      75042  MISS:         79
LLC TOTAL     ACCESS:     396533  HIT:     310674  MISS:      85859
LLC LOAD      ACCESS:     345649  HIT:     260934  MISS:      84715
LLC RFO       ACCESS:      13128  HIT:      12020  MISS:       1108
LLC PREFETCH  ACCESS:          0  HIT:          0  MISS:          0
LLC WRITEBACK ACCESS:      37006  HIT:      37004  MISS:          2
Heartbeat CPU 0 instructions: 64000001 cycles: 31527279 heartbeat IPC: 1.03866 cumulative IPC: 1.07506 (Simulation time: 0 hr 58 min 49 sec) 

Region of Interest Statistics
cpu0_DTLB TOTAL     ACCESS:    2634165  HIT:    1656106  MISS:     978059
cpu0_DTLB LOAD      ACCESS:    1950237  HIT:     998151  MISS:     952086
cpu0_DTLB RFO       ACCESS:     683928  HIT:     657955  MISS:      25973
cpu0_DTLB PREFETCH  ACCESS:          0  HIT:          0  MISS:          0
cpu0_DTLB WRITEBACK ACCESS:          0  HIT:          0  MISS:          0
cpu0_ITLB TOTAL     ACCESS:     278623  HIT:     278573  MISS:         50
cpu0_ITLB LOAD      ACCESS:     278623  HIT:     278573  MISS:         50
cpu0_ITLB RFO       ACCESS:          0  HIT:          0  MISS:          0
cpu0_ITLB PREFETCH  ACCESS:          0  HIT:          0  MISS:          0
cpu0_ITLB WRITEBACK ACCESS:          0  HIT:          0  MISS:          0
cpu0_L1I TOTAL     ACCESS:    1401483  HIT:    1384113  MISS:      17370
cpu0_L1I LOAD      ACCESS:    1401483  HIT:    1384113  MISS:      17370
cpu0_L1I RFO       ACCESS:          0  HIT:          0  MISS:          0
cpu0_L1I PREFETCH  ACCESS:          0  HIT:          0  MISS:          0
cpu0_L1I WRITEBACK ACCESS:          0  HIT:          0  MISS:          0
cpu0_STLB TOTAL     ACCESS:     978109  HIT:     976238  MISS:       1871
cpu0_STLB LOAD      ACCESS:     952136  HIT:     950293  MISS:       1843
cpu0_STLB RFO       ACCESS:      25973  HIT:      25945  MISS:         28
cpu0_STLB PREFETCH  ACCESS:          0  HIT:          0  MISS:          0
cpu0_STLB WRITEBACK ACCESS:          0  HIT:          0  MISS:          0
cpu0_L1D TOTAL     ACCESS:    4074201  HIT:    2566583  MISS:    1507618
cpu0_L1D LOAD      ACCESS:    2580916  HIT:    1127489  MISS:    1453427
cpu0_L1D RFO       ACCESS:    1491542  HIT:    1438763  MISS:      52779
cpu0_L1D PREFETCH  ACCESS:          0  HIT:          0  MISS:          0
cpu0_L1D WRITEBACK ACCESS:          0  HIT:          0  MISS:          0
cpu0_L2C TOTAL     ACCESS:    1612218  HIT:    1175901  MISS:     436317
cpu0_L2C LOAD      ACCESS:    1470649  HIT:    1051736  MISS:     418913
cpu0_L2C RFO       ACCESS:      52553  HIT:      36100  MISS:      16453
cpu0_L2C PREFETCH  ACCESS:          0  HIT:          0  MISS:          0
cpu0_L2C WRITEBACK ACCESS:      87604  HIT:      87520  MISS:         84
LLC TOTAL     ACCESS:     475873  HIT:     374614  MISS:     101259
LLC LOAD      ACCESS:     417356  HIT:     317241  MISS:     100115
LLC RFO       ACCESS:      15111  HIT:      14003  MISS:       1108
LLC PREFETCH  ACCESS:          0  HIT:          0  MISS:          0
LLC WRITEBACK ACCESS:      42539  HIT:      42537  MISS:          2
Heartbeat CPU 0 instructions: 66000004 cycles: 33437253 heartbeat IPC: 1.04714 cumulative IPC: 1.07149 (Simulation time: 1 hr 1 min 10 sec) 

Region of Interest Statistics
cpu0_DTLB TOTAL     ACCESS:    2995854  HIT:    1867012  MISS:    1128842
cpu0_DTLB LOAD      ACCESS:    2207400  HIT:    1107802  MISS:    1099598
cpu0_DTLB RFO       ACCESS:     788454  HIT:     759210  MISS:      29244
cpu0_DTLB PREFETCH  ACCESS:          0  HIT:          0  MISS:          0
cpu0_DTLB WRITEBACK ACCESS:          0  HIT:          0  MISS:          0
cpu0_ITLB TOTAL     ACCESS:     316695  HIT:     316645  MISS:         50
cpu0_ITLB LOAD      ACCESS:     316695  HIT:     316645  MISS:         50
cpu0_ITLB RFO       ACCESS:          0  HIT:          0  MISS:          0
cpu0_ITLB PREFETCH  ACCESS:          0  HIT:          0  MISS:          0
cpu0_ITLB WRITEBACK ACCESS:          0  HIT:          0  MISS:          0
cpu0_L1I TOTAL     ACCESS:    1602696  HIT:    1585326  MISS:      17370
cpu0_L1I LOAD      ACCESS:    1602696  HIT:    1585326  MISS:      17370
cpu0_L1I RFO       ACCESS:          0  HIT:          0  MISS:          0
cpu0_L1I PREFETCH  ACCESS:          0  HIT:          0  MISS:          0
cpu0_L1I WRITEBACK ACCESS:          0  HIT:          0  MISS:          0
cpu0_STLB TOTAL     ACCESS:    1128892  HIT:    1126771  MISS:       2121
cpu0_STLB LOAD      ACCESS:    1099648  HIT:    1097555  MISS:       2093
cpu0_STLB RFO       ACCESS:      29244  HIT:      29216  MISS:         28
cpu0_STLB PREFETCH  ACCESS:          0  HIT:          0  MISS:          0
cpu0_STLB WRITEBACK ACCESS:          0  HIT:          0  MISS:          0
cpu0_L1D TOTAL     ACCESS:    4632386  HIT:    2896367  MISS:    1736019
cpu0_L1D LOAD      ACCESS:    2916646  HIT:    1242167  MISS:    1674479
cpu0_L1D RFO       ACCESS:    1713747  HIT:    1653844  MISS:      59903
cpu0_L1D PREFETCH  ACCESS:          0  HIT:          0  MISS:          0
cpu0_L1D WRITEBACK ACCESS:          0  HIT:          0  MISS:          0
cpu0_L2C TOTAL     ACCESS:    1853199  HIT:    1341416  MISS:     511783
cpu0_L2C LOAD      ACCESS:    1691679  HIT:    1199587  MISS:     492092
cpu0_L2C RFO       ACCESS:      59658  HIT:      41075  MISS:      18583
cpu0_L2C PREFETCH  ACCESS:          0  HIT:          0  MISS:          0
cpu0_L2C WRITEBACK ACCESS:     100225  HIT:     100116  MISS:        109
LLC TOTAL     ACCESS:     557343  HIT:     440884  MISS:     116459
LLC LOAD      ACCESS:     490277  HIT:     374962  MISS:     115315
LLC RFO       ACCESS:      17231  HIT:      16123  MISS:       1108
LLC PREFETCH  ACCESS:          0  HIT:          0  MISS:          0
LLC WRITEBACK ACCESS:      48836  HIT:      48834  MISS:          2
Heartbeat CPU 0 instructions: 68000004 cycles: 35368689 heartbeat IPC: 1.0355 cumulative IPC: 1.06737 (Simulation time: 1 hr 3 min 41 sec) 

Region of Interest Statistics
cpu0_DTLB TOTAL     ACCESS:    3357676  HIT:    2078122  MISS:    1279554
cpu0_DTLB LOAD      ACCESS:    2465034  HIT:    1217823  MISS:    1247211
cpu0_DTLB RFO       ACCESS:     892642  HIT:     860299  MISS:      32343
cpu0_DTLB PREFETCH  ACCESS:          0  HIT:          0  MISS:          0
cpu0_DTLB WRITEBACK ACCESS:          0  HIT:          0  MISS:          0
cpu0_ITLB TOTAL     ACCESS:     354757  HIT:     354707  MISS:         50
cpu0_ITLB LOAD      ACCESS:     354757  HIT:     354707  MISS:         50
cpu0_ITLB RFO       ACCESS:          0  HIT:          0  MISS:          0
cpu0_ITLB PREFETCH  ACCESS:          0  HIT:          0  MISS:          0
cpu0_ITLB WRITEBACK ACCESS:          0  HIT:          0  MISS:          0
cpu0_L1I TOTAL     ACCESS:    1803739  HIT:    1786369  MISS:      17370
cpu0_L1I LOAD      ACCESS:    1803739  HIT:    1786369  MISS:      17370
cpu0_L1I RFO       ACCESS:          0  HIT:          0  MISS:          0
cpu0_L1I PREFETCH  ACCESS:          0  HIT:          0  MISS:          0
cpu0_L1I WRITEBACK ACCESS:          0  HIT:          0  MISS:          0
cpu0_STLB TOTAL     ACCESS:    1279604  HIT:    1277258  MISS:       2346
cpu0_STLB LOAD      ACCESS:    1247261  HIT:    1244943  MISS:       2318
cpu0_STLB RFO       ACCESS:      32343  HIT:      32315  MISS:         28
cpu0_STLB PREFETCH  ACCESS:          0  HIT:          0  MISS:          0
cpu0_STLB WRITEBACK ACCESS:          0  HIT:          0  MISS:          0
cpu0_L1D TOTAL     ACCESS:    5191176  HIT:    3226237  MISS:    1964939
cpu0_L1D LOAD      ACCESS:    3252756  HIT:    1357382  MISS:    1895374
cpu0_L1D RFO       ACCESS:    1936202  HIT:    1868479  MISS:      67723
cpu0_L1D PREFETCH  ACCESS:          0  HIT:          0  MISS:          0
cpu0_L1D WRITEBACK ACCESS:          0  HIT:          0  MISS:          0
cpu0_L2C TOTAL     ACCESS:    2094960  HIT:    1507444  MISS:     587516
cpu0_L2C LOAD      ACCESS:    1912550  HIT:    1347355  MISS:     565195
cpu0_L2C RFO       ACCESS:      67444  HIT:      46479  MISS:      20965
cpu0_L2C PREFETCH  ACCESS:          0  HIT:          0  MISS:          0
cpu0_L2C WRITEBACK ACCESS:     113124  HIT:     112893  MISS:        231
LLC TOTAL     ACCESS:     639625  HIT:     507789  MISS:     131836
LLC LOAD      ACCESS:     563295  HIT:     432605  MISS:     130690
LLC RFO       ACCESS:      19587  HIT:      18479  MISS:       1108
LLC PREFETCH  ACCESS:          0  HIT:          0  MISS:          0
LLC WRITEBACK ACCESS:      55618  HIT:      55614  MISS:          4
Heartbeat CPU 0 instructions: 70000000 cycles: 37305067 heartbeat IPC: 1.03285 cumulative IPC: 1.06381 (Simulation time: 1 hr 6 min 8 sec) 

Region of Interest Statistics
cpu0_DTLB TOTAL     ACCESS:    3720181  HIT:    2289694  MISS:    1430487
cpu0_DTLB LOAD      ACCESS:    2722155  HIT:    1327424  MISS:    1394731
cpu0_DTLB RFO       ACCESS:     998026  HIT:     962270  MISS:      35756
cpu0_DTLB PREFETCH  ACCESS:          0  HIT:          0  MISS:          0
cpu0_DTLB WRITEBACK ACCESS:          0  HIT:          0  MISS:          0
cpu0_ITLB TOTAL     ACCESS:     392823  HIT:     392773  MISS:         50
cpu0_ITLB LOAD      ACCESS:     392823  HIT:     392773  MISS:         50
cpu0_ITLB RFO       ACCESS:          0  HIT:          0  MISS:          0
cpu0_ITLB PREFETCH  ACCESS:          0  HIT:          0  MISS:          0
cpu0_ITLB WRITEBACK ACCESS:          0  HIT:          0  MISS:          0
cpu0_L1I TOTAL     ACCESS:    2004825  HIT:    1987455  MISS:      17370
cpu0_L1I LOAD      ACCESS:    2004825  HIT:    1987455  MISS:      17370
cpu0_L1I RFO       ACCESS:          0  HIT:          0  MISS:          0
cpu0_L1I PREFETCH  ACCESS:          0  HIT:          0  MISS:          0
cpu0_L1I WRITEBACK ACCESS:          0  HIT:          0  MISS:          0
cpu0_STLB TOTAL     ACCESS:    1430537  HIT:    1427940  MISS:       2597
cpu0_STLB LOAD      ACCESS:    1394781  HIT:    1392212  MISS:       2569
cpu0_STLB RFO       ACCESS:      35756  HIT:      35728  MISS:         28
cpu0_STLB PREFETCH  ACCESS:          0  HIT:          0  MISS:          0
cpu0_STLB WRITEBACK ACCESS:          0  HIT:          0  MISS:          0
cpu0_L1D TOTAL     ACCESS:    5749358  HIT:    3555938  MISS:    2193420
cpu0_L1D LOAD      ACCESS:    3588249  HIT:    1472350  MISS:    2115899
cpu0_L1D RFO       ACCESS:    2158640  HIT:    2083194  MISS:      75446
cpu0_L1D PREFETCH  ACCESS:          0  HIT:          0  MISS:          0
cpu0_L1D WRITEBACK ACCESS:          0  HIT:          0  MISS:          0
cpu0_L2C TOTAL     ACCESS:    2335841  HIT:    1667036  MISS:     668805
cpu0_L2C LOAD      ACCESS:    2133066  HIT:    1489012  MISS:     644054
cpu0_L2C RFO       ACCESS:      75145  HIT:      51991  MISS:      23154
cpu0_L2C PREFETCH  ACCESS:          0  HIT:          0  MISS:          0
cpu0_L2C WRITEBACK ACCESS:     125555  HIT:     125233  MISS:        322
LLC TOTAL     ACCESS:     725830  HIT:     578593  MISS:     147237
LLC LOAD      ACCESS:     642150  HIT:     496060  MISS:     146090
LLC RFO       ACCESS:      21762  HIT:      20654  MISS:       1108
LLC PREFETCH  ACCESS:          0  HIT:          0  MISS:          0
LLC WRITEBACK ACCESS:      60643  HIT:      60639  MISS:          4
Heartbeat CPU 0 instructions: 72000004 cycles: 39225891 heartbeat IPC: 1.04122 cumulative IPC: 1.06172 (Simulation time: 1 hr 8 min 31 sec) 

Region of Interest Statistics
cpu0_DTLB TOTAL     ACCESS:    4079389  HIT:    2498087  MISS:    1581302
cpu0_DTLB LOAD      ACCESS:    2977959  HIT:    1435419  MISS:    1542540
cpu0_DTLB RFO       ACCESS:    1101430  HIT:    1062668  MISS:      38762
cpu0_DTLB PREFETCH  ACCESS:          0  HIT:          0  MISS:          0
cpu0_DTLB WRITEBACK ACCESS:          0  HIT:          0  MISS:          0
cpu0_ITLB TOTAL     ACCESS:     430855  HIT:     430805  MISS:         50
cpu0_ITLB LOAD      ACCESS:     430855  HIT:     430805  MISS:         50
cpu0_ITLB RFO       ACCESS:          0  HIT:          0  MISS:          0
cpu0_ITLB PREFETCH  ACCESS:          0  HIT:          0  MISS:          0
cpu0_ITLB WRITEBACK ACCESS:          0  HIT:          0  MISS:          0
cpu0_L1I TOTAL     ACCESS:    2205613  HIT:    2188243  MISS:      17370
cpu0_L1I LOAD      ACCESS:    2205613  HIT:    2188243  MISS:      17370
cpu0_L1I RFO       ACCESS:          0  HIT:          0  MISS:          0
cpu0_L1I PREFETCH  ACCESS:          0  HIT:          0  MISS:          0
cpu0_L1I WRITEBACK ACCESS:          0  HIT:          0  MISS:          0
cpu0_STLB TOTAL     ACCESS:    1581352  HIT:    1578530  MISS:       2822
cpu0_STLB LOAD      ACCESS:    1542590  HIT:    1539796  MISS:       2794
cpu0_STLB RFO       ACCESS:      38762  HIT:      38734  MISS:         28
cpu0_STLB PREFETCH  ACCESS:          0  HIT:          0  MISS:          0
cpu0_STLB WRITEBACK ACCESS:          0  HIT:          0  MISS:          0
cpu0_L1D TOTAL     ACCESS:    6307238  HIT:    3885752  MISS:    2421486
cpu0_L1D LOAD      ACCESS:    3924064  HIT:    1587226  MISS:    2336838
cpu0_L1D RFO       ACCESS:    2380480  HIT:    2298113  MISS:      82367
cpu0_L1D PREFETCH  ACCESS:          0  HIT:          0  MISS:          0
cpu0_L1D WRITEBACK ACCESS:          0  HIT:          0  MISS:          0
cpu0_L2C TOTAL     ACCESS:    2576105  HIT:    1834930  MISS:     741175
cpu0_L2C LOAD      ACCESS:    2353997  HIT:    1640242  MISS:     713755
cpu0_L2C RFO       ACCESS:      82031  HIT:      56361  MISS:      25670
cpu0_L2C PREFETCH  ACCESS:          0  HIT:          0  MISS:          0
cpu0_L2C WRITEBACK ACCESS:     137796  HIT:     137455  MISS:        341
LLC TOTAL     ACCESS:     804901  HIT:     642463  MISS:     162438
LLC LOAD      ACCESS:     711789  HIT:     550499  MISS:     161290
LLC RFO       ACCESS:      24263  HIT:      23155  MISS:       1108
LLC PREFETCH  ACCESS:          0  HIT:          0  MISS:          0
LLC WRITEBACK ACCESS:      67440  HIT:      67435  MISS:          5
Heartbeat CPU 0 instructions: 74000000 cycles: 41140088 heartbeat IPC: 1.04482 cumulative IPC: 1.06029 (Simulation time: 1 hr 10 min 47 sec) 

Region of Interest Statistics
cpu0_DTLB TOTAL     ACCESS:    4439586  HIT:    2707507  MISS:    1732079
cpu0_DTLB LOAD      ACCESS:    3234328  HIT:    1544190  MISS:    1690138
cpu0_DTLB RFO       ACCESS:    1205258  HIT:    1163317  MISS:      41941
cpu0_DTLB PREFETCH  ACCESS:          0  HIT:          0  MISS:          0
cpu0_DTLB WRITEBACK ACCESS:          0  HIT:          0  MISS:          0
cpu0_ITLB TOTAL     ACCESS:     468913  HIT:     468863  MISS:         50
cpu0_ITLB LOAD      ACCESS:     468913  HIT:     468863  MISS:         50
cpu0_ITLB RFO       ACCESS:          0  HIT:          0  MISS:          0
cpu0_ITLB PREFETCH  ACCESS:          0  HIT:          0  MISS:          0
cpu0_ITLB WRITEBACK ACCESS:          0  HIT:          0  MISS:          0
cpu0_L1I TOTAL     ACCESS:    2406384  HIT:    2389014  MISS:      17370
cpu0_L1I LOAD      ACCESS:    2406384  HIT:    2389014  MISS:      17370
cpu0_L1I RFO       ACCESS:          0  HIT:          0  MISS:          0
cpu0_L1I PREFETCH  ACCESS:          0  HIT:          0  MISS:          0
cpu0_L1I WRITEBACK ACCESS:          0  HIT:          0  MISS:          0
cpu0_STLB TOTAL     ACCESS:    1732129  HIT:    1729057  MISS:       3072
cpu0_STLB LOAD      ACCESS:    1690188  HIT:    1687144  MISS:       3044
cpu0_STLB RFO       ACCESS:      41941  HIT:      41913  MISS:         28
cpu0_STLB PREFETCH  ACCESS:          0  HIT:          0  MISS:          0
cpu0_STLB WRITEBACK ACCESS:          0  HIT:          0  MISS:          0
cpu0_L1D TOTAL     ACCESS:    6865268  HIT:    4215410  MISS:    2649858
cpu0_L1D LOAD      ACCESS:    4259797  HIT:    1702043  MISS:    2557754
cpu0_L1D RFO       ACCESS:    2602527  HIT:    2512927  MISS:      89600
cpu0_L1D PREFETCH  ACCESS:          0  HIT:          0  MISS:          0
cpu0_L1D WRITEBACK ACCESS:          0  HIT:          0  MISS:          0
cpu0_L2C TOTAL     ACCESS:    2816909  HIT:    1999850  MISS:     817059
cpu0_L2C LOAD      ACCESS:    2574889  HIT:    1787876  MISS:     787013
cpu0_L2C RFO       ACCESS:      89224  HIT:      61095  MISS:      28129
cpu0_L2C PREFETCH  ACCESS:          0  HIT:          0  MISS:          0
cpu0_L2C WRITEBACK ACCESS:     150292  HIT:     149916  MISS:        376
LLC TOTAL     ACCESS:     887288  HIT:     709493  MISS:     177795
LLC LOAD      ACCESS:     784848  HIT:     608204  MISS:     176644
LLC RFO       ACCESS:      26683  HIT:      25575  MISS:       1108
LLC PREFETCH  ACCESS:          0  HIT:          0  MISS:          0
LLC WRITEBACK ACCESS:      74216  HIT:      74208  MISS:          8
Heartbeat CPU 0 instructions: 76000000 cycles: 43053546 heartbeat IPC: 1.04523 cumulative IPC: 1.05911 (Simulation time: 1 hr 13 min 7 sec) 

Region of Interest Statistics
cpu0_DTLB TOTAL     ACCESS:    4799542  HIT:    2916725  MISS:    1882817
cpu0_DTLB LOAD      ACCESS:    3489630  HIT:    1651739  MISS:    1837891
cpu0_DTLB RFO       ACCESS:    1309912  HIT:    1264986  MISS:      44926
cpu0_DTLB PREFETCH  ACCESS:          0  HIT:          0  MISS:          0
cpu0_DTLB WRITEBACK ACCESS:          0  HIT:          0  MISS:          0
cpu0_ITLB TOTAL     ACCESS:     506989  HIT:     506939  MISS:         50
cpu0_ITLB LOAD      ACCESS:     506989  HIT:     506939  MISS:         50
cpu0_ITLB RFO       ACCESS:          0  HIT:          0  MISS:          0
cpu0_ITLB PREFETCH  ACCESS:          0  HIT:          0  MISS:          0
cpu0_ITLB WRITEBACK ACCESS:          0  HIT:          0  MISS:          0
cpu0_L1I TOTAL     ACCESS:    2607124  HIT:    2589754  MISS:      17370
cpu0_L1I LOAD      ACCESS:    2607124  HIT:    2589754  MISS:      17370
cpu0_L1I RFO       ACCESS:          0  HIT:          0  MISS:          0
cpu0_L1I PREFETCH  ACCESS:          0  HIT:          0  MISS:          0
cpu0_L1I WRITEBACK ACCESS:          0  HIT:          0  MISS:          0
cpu0_STLB TOTAL     ACCESS:    1882867  HIT:    1879545  MISS:       3322
cpu0_STLB LOAD      ACCESS:    1837941  HIT:    1834647  MISS:       3294
cpu0_STLB RFO       ACCESS:      44926  HIT:      44898  MISS:         28
cpu0_STLB PREFETCH  ACCESS:          0  HIT:          0  MISS:          0
cpu0_STLB WRITEBACK ACCESS:          0  HIT:          0  MISS:          0
cpu0_L1D TOTAL     ACCESS:    7422764  HIT:    4544610  MISS:    2878154
cpu0_L1D LOAD      ACCESS:    4595310  HIT:    1816263  MISS:    2779047
cpu0_L1D RFO       ACCESS:    2824260  HIT:    2727882  MISS:      96378
cpu0_L1D PREFETCH  ACCESS:          0  HIT:          0  MISS:          0
cpu0_L1D WRITEBACK ACCESS:          0  HIT:          0  MISS:          0
cpu0_L2C TOTAL     ACCESS:    3057741  HIT:    2161232  MISS:     896509
cpu0_L2C LOAD      ACCESS:    2796152  HIT:    1931795  MISS:     864357
cpu0_L2C RFO       ACCESS:      95963  HIT:      65862  MISS:      30101
cpu0_L2C PREFETCH  ACCESS:          0  HIT:          0  MISS:          0
cpu0_L2C WRITEBACK ACCESS:     162897  HIT:     162503  MISS:        394
LLC TOTAL     ACCESS:     972157  HIT:     779116  MISS:     193041
LLC LOAD      ACCESS:     862079  HIT:     670189  MISS:     191890
LLC RFO       ACCESS:      28625  HIT:      27517  MISS:       1108
LLC PREFETCH  ACCESS:          0  HIT:          0  MISS:          0
LLC WRITEBACK ACCESS:      79796  HIT:      79788  MISS:          8
Heartbeat CPU 0 instructions: 78000003 cycles: 44966802 heartbeat IPC: 1.04534 cumulative IPC: 1.05812 (Simulation time: 1 hr 15 min 31 sec) 

Region of Interest Statistics
cpu0_DTLB TOTAL     ACCESS:    5159387  HIT:    3125831  MISS:    2033556
cpu0_DTLB LOAD      ACCESS:    3744548  HIT:    1759054  MISS:    1985494
cpu0_DTLB RFO       ACCESS:    1414839  HIT:    1366777  MISS:      48062
cpu0_DTLB PREFETCH  ACCESS:          0  HIT:          0  MISS:          0
cpu0_DTLB WRITEBACK ACCESS:          0  HIT:          0  MISS:          0
cpu0_ITLB TOTAL     ACCESS:     545104  HIT:     545054  MISS:         50
cpu0_ITLB LOAD      ACCESS:     545104  HIT:     545054  MISS:         50
cpu0_ITLB RFO       ACCESS:          0  HIT:          0  MISS:          0
cpu0_ITLB PREFETCH  ACCESS:          0  HIT:          0  MISS:          0
cpu0_ITLB WRITEBACK ACCESS:          0  HIT:          0  MISS:          0
cpu0_L1I TOTAL     ACCESS:    2807991  HIT:    2790621  MISS:      17370
cpu0_L1I LOAD      ACCESS:    2807991  HIT:    2790621  MISS:      17370
cpu0_L1I RFO       ACCESS:          0  HIT:          0  MISS:          0
cpu0_L1I PREFETCH  ACCESS:          0  HIT:          0  MISS:          0
cpu0_L1I WRITEBACK ACCESS:          0  HIT:          0  MISS:          0
cpu0_STLB TOTAL     ACCESS:    2033606  HIT:    2030059  MISS:       3547
cpu0_STLB LOAD      ACCESS:    1985544  HIT:    1982025  MISS:       3519
cpu0_STLB RFO       ACCESS:      48062  HIT:      48034  MISS:         28
cpu0_STLB PREFETCH  ACCESS:          0  HIT:          0  MISS:          0
cpu0_STLB WRITEBACK ACCESS:          0  HIT:          0  MISS:          0
cpu0_L1D TOTAL     ACCESS:    7981106  HIT:    4874550  MISS:    3106556
cpu0_L1D LOAD      ACCESS:    4931639  HIT:    1931840  MISS:    2999799
cpu0_L1D RFO       ACCESS:    3046048  HIT:    2942225  MISS:     103823
cpu0_L1D PREFETCH  ACCESS:          0  HIT:          0  MISS:          0
cpu0_L1D WRITEBACK ACCESS:          0  HIT:          0  MISS:          0
cpu0_L2C TOTAL     ACCESS:    3298640  HIT:    2326760  MISS:     971880
cpu0_L2C LOAD      ACCESS:    3016877  HIT:    2079543  MISS:     937334
cpu0_L2C RFO       ACCESS:     103364  HIT:      71052  MISS:      32312
cpu0_L2C PREFETCH  ACCESS:          0  HIT:          0  MISS:          0
cpu0_L2C WRITEBACK ACCESS:     175465  HIT:     175006  MISS:        459
LLC TOTAL     ACCESS:    1052914  HIT:     844648  MISS:     208266
LLC LOAD      ACCESS:     934923  HIT:     727808  MISS:     207115
LLC RFO       ACCESS:      30826  HIT:      29718  MISS:       1108
LLC PREFETCH  ACCESS:          0  HIT:          0  MISS:          0
LLC WRITEBACK ACCESS:      85390  HIT:      85382  MISS:          8
Heartbeat CPU 0 instructions: 80000002 cycles: 46879413 heartbeat IPC: 1.04569 cumulative IPC: 1.05728 (Simulation time: 1 hr 17 min 56 sec) 

Region of Interest Statistics
cpu0_DTLB TOTAL     ACCESS:    5521205  HIT:    3336662  MISS:    2184543
cpu0_DTLB LOAD      ACCESS:    4001360  HIT:    1868110  MISS:    2133250
cpu0_DTLB RFO       ACCESS:    1519845  HIT:    1468552  MISS:      51293
cpu0_DTLB PREFETCH  ACCESS:          0  HIT:          0  MISS:          0
cpu0_DTLB WRITEBACK ACCESS:          0  HIT:          0  MISS:          0
cpu0_ITLB TOTAL     ACCESS:     583207  HIT:     583157  MISS:         50
cpu0_ITLB LOAD      ACCESS:     583207  HIT:     583157  MISS:         50
cpu0_ITLB RFO       ACCESS:          0  HIT:          0  MISS:          0
cpu0_ITLB PREFETCH  ACCESS:          0  HIT:          0  MISS:          0
cpu0_ITLB WRITEBACK ACCESS:          0  HIT:          0  MISS:          0
cpu0_L1I TOTAL     ACCESS:    3009318  HIT:    2991948  MISS:      17370
cpu0_L1I LOAD      ACCESS:    3009318  HIT:    2991948  MISS:      17370
cpu0_L1I RFO       ACCESS:          0  HIT:          0  MISS:          0
cpu0_L1I PREFETCH  ACCESS:          0  HIT:          0  MISS:          0
cpu0_L1I WRITEBACK ACCESS:          0  HIT:          0  MISS:          0
cpu0_STLB TOTAL     ACCESS:    2184593  HIT:    2180796  MISS:       3797
cpu0_STLB LOAD      ACCESS:    2133300  HIT:    2129531  MISS:       3769
cpu0_STLB RFO       ACCESS:      51293  HIT:      51265  MISS:         28
cpu0_STLB PREFETCH  ACCESS:          0  HIT:          0  MISS:          0
cpu0_STLB WRITEBACK ACCESS:          0  HIT:          0  MISS:          0
cpu0_L1D TOTAL     ACCESS:    8539467  HIT:    5204358  MISS:    3335109
cpu0_L1D LOAD      ACCESS:    5268160  HIT:    2047083  MISS:    3221077
cpu0_L1D RFO       ACCESS:    3267638  HIT:    3156772  MISS:     110866
cpu0_L1D PREFETCH  ACCESS:          0  HIT:          0  MISS:          0
cpu0_L1D WRITEBACK ACCESS:          0  HIT:          0  MISS:          0
cpu0_L2C TOTAL     ACCESS:    3539825  HIT:    2485718  MISS:    1054107
cpu0_L2C LOAD      ACCESS:    3238136  HIT:    2220856  MISS:    1017280
cpu0_L2C RFO       ACCESS:     110393  HIT:      75986  MISS:      34407
cpu0_L2C PREFETCH  ACCESS:          0  HIT:          0  MISS:          0
cpu0_L2C WRITEBACK ACCESS:     188130  HIT:     187631  MISS:        499
LLC TOTAL     ACCESS:    1141534  HIT:     918068  MISS:     223466
LLC LOAD      ACCESS:    1014728  HIT:     792413  MISS:     222315
LLC RFO       ACCESS:      32896  HIT:      31788  MISS:       1108
LLC PREFETCH  ACCESS:          0  HIT:          0  MISS:          0
LLC WRITEBACK ACCESS:      91989  HIT:      91981  MISS:          8
Heartbeat CPU 0 instructions: 82000004 cycles: 48811752 heartbeat IPC: 1.03502 cumulative IPC: 1.05586 (Simulation time: 1 hr 20 min 21 sec) 

Region of Interest Statistics
cpu0_DTLB TOTAL     ACCESS:    5882219  HIT:    3546904  MISS:    2335315
cpu0_DTLB LOAD      ACCESS:    4258163  HIT:    1976992  MISS:    2281171
cpu0_DTLB RFO       ACCESS:    1624056  HIT:    1569912  MISS:      54144
cpu0_DTLB PREFETCH  ACCESS:          0  HIT:          0  MISS:          0
cpu0_DTLB WRITEBACK ACCESS:          0  HIT:          0  MISS:          0
cpu0_ITLB TOTAL     ACCESS:     621295  HIT:     621245  MISS:         50
cpu0_ITLB LOAD      ACCESS:     621295  HIT:     621245  MISS:         50
cpu0_ITLB RFO       ACCESS:          0  HIT:          0  MISS:          0
cpu0_ITLB PREFETCH  ACCESS:          0  HIT:          0  MISS:          0
cpu0_ITLB WRITEBACK ACCESS:          0  HIT:          0  MISS:          0
cpu0_L1I TOTAL     ACCESS:    3210708  HIT:    3193338  MISS:      17370
cpu0_L1I LOAD      ACCESS:    3210708  HIT:    3193338  MISS:      17370
cpu0_L1I RFO       ACCESS:          0  HIT:          0  MISS:          0
cpu0_L1I PREFETCH  ACCESS:          0  HIT:          0  MISS:          0
cpu0_L1I WRITEBACK ACCESS:          0  HIT:          0  MISS:          0
cpu0_STLB TOTAL     ACCESS:    2335365  HIT:    2331343  MISS:       4022
cpu0_STLB LOAD      ACCESS:    2281221  HIT:    2277227  MISS:       3994
cpu0_STLB RFO       ACCESS:      54144  HIT:      54116  MISS:         28
cpu0_STLB PREFETCH  ACCESS:          0  HIT:          0  MISS:          0
cpu0_STLB WRITEBACK ACCESS:          0  HIT:          0  MISS:          0
cpu0_L1D TOTAL     ACCESS:    9098575  HIT:    5534527  MISS:    3564048
cpu0_L1D LOAD      ACCESS:    5604801  HIT:    2162459  MISS:    3442342
cpu0_L1D RFO       ACCESS:    3489880  HIT:    3371548  MISS:     118332
cpu0_L1D PREFETCH  ACCESS:          0  HIT:          0  MISS:          0
cpu0_L1D WRITEBACK ACCESS:          0  HIT:          0  MISS:          0
cpu0_L2C TOTAL     ACCESS:    3781508  HIT:    2640517  MISS:    1140991
cpu0_L2C LOAD      ACCESS:    3459385  HIT:    2357359  MISS:    1102026
cpu0_L2C RFO       ACCESS:     117819  HIT:      81406  MISS:      36413
cpu0_L2C PREFETCH  ACCESS:          0  HIT:          0  MISS:          0
cpu0_L2C WRITEBACK ACCESS:     200930  HIT:     200415  MISS:        515
LLC TOTAL     ACCESS:    1234117  HIT:     995251  MISS:     238866
LLC LOAD      ACCESS:    1099232  HIT:     861517  MISS:     237715
LLC RFO       ACCESS:      34879  HIT:      33771  MISS:       1108
LLC PREFETCH  ACCESS:          0  HIT:          0  MISS:          0
LLC WRITEBACK ACCESS:      97969  HIT:      97961  MISS:          8
Heartbeat CPU 0 instructions: 84000001 cycles: 50733675 heartbeat IPC: 1.04062 cumulative IPC: 1.05495 (Simulation time: 1 hr 22 min 54 sec) 

Region of Interest Statistics
cpu0_DTLB TOTAL     ACCESS:    6241505  HIT:    3755436  MISS:    2486069
cpu0_DTLB LOAD      ACCESS:    4513592  HIT:    2084893  MISS:    2428699
cpu0_DTLB RFO       ACCESS:    1727913  HIT:    1670543  MISS:      57370
cpu0_DTLB PREFETCH  ACCESS:          0  HIT:          0  MISS:          0
cpu0_DTLB WRITEBACK ACCESS:          0  HIT:          0  MISS:          0
cpu0_ITLB TOTAL     ACCESS:     659416  HIT:     659366  MISS:         50
cpu0_ITLB LOAD      ACCESS:     659416  HIT:     659366  MISS:         50
cpu0_ITLB RFO       ACCESS:          0  HIT:          0  MISS:          0
cpu0_ITLB PREFETCH  ACCESS:          0  HIT:          0  MISS:          0
cpu0_ITLB WRITEBACK ACCESS:          0  HIT:          0  MISS:          0
cpu0_L1I TOTAL     ACCESS:    3412074  HIT:    3394704  MISS:      17370
cpu0_L1I LOAD      ACCESS:    3412074  HIT:    3394704  MISS:      17370
cpu0_L1I RFO       ACCESS:          0  HIT:          0  MISS:          0
cpu0_L1I PREFETCH  ACCESS:          0  HIT:          0  MISS:          0
cpu0_L1I WRITEBACK ACCESS:          0  HIT:          0  MISS:          0
cpu0_STLB TOTAL     ACCESS:    2486119  HIT:    2481847  MISS:       4272
cpu0_STLB LOAD      ACCESS:    2428749  HIT:    2424505  MISS:       4244
cpu0_STLB RFO       ACCESS:      57370  HIT:      57342  MISS:         28
cpu0_STLB PREFETCH  ACCESS:          0  HIT:          0  MISS:          0
cpu0_STLB WRITEBACK ACCESS:          0  HIT:          0  MISS:          0
cpu0_L1D TOTAL     ACCESS:    9656588  HIT:    5863831  MISS:    3792757
cpu0_L1D LOAD      ACCESS:    5940575  HIT:    2277167  MISS:    3663408
cpu0_L1D RFO       ACCESS:    3711869  HIT:    3586119  MISS:     125750
cpu0_L1D PREFETCH  ACCESS:          0  HIT:          0  MISS:          0
cpu0_L1D WRITEBACK ACCESS:          0  HIT:          0  MISS:          0
cpu0_L2C TOTAL     ACCESS:    4022720  HIT:    2803108  MISS:    1219612
cpu0_L2C LOAD      ACCESS:    3680434  HIT:    2501667  MISS:    1178767
cpu0_L2C RFO       ACCESS:     125202  HIT:      87056  MISS:      38146
cpu0_L2C PREFETCH  ACCESS:          0  HIT:          0  MISS:          0
cpu0_L2C WRITEBACK ACCESS:     213485  HIT:     212942  MISS:        543
LLC TOTAL     ACCESS:    1317962  HIT:    1063896  MISS:     254066
LLC LOAD      ACCESS:    1175829  HIT:     922914  MISS:     252915
LLC RFO       ACCESS:      36605  HIT:      35497  MISS:       1108
LLC PREFETCH  ACCESS:          0  HIT:          0  MISS:          0
LLC WRITEBACK ACCESS:     103372  HIT:     103364  MISS:          8
Heartbeat CPU 0 instructions: 86000001 cycles: 52647924 heartbeat IPC: 1.0448 cumulative IPC: 1.05438 (Simulation time: 1 hr 25 min 18 sec) 

Region of Interest Statistics
cpu0_DTLB TOTAL     ACCESS:    6602113  HIT:    3965310  MISS:    2636803
cpu0_DTLB LOAD      ACCESS:    4769971  HIT:    2193589  MISS:    2576382
cpu0_DTLB RFO       ACCESS:    1832142  HIT:    1771721  MISS:      60421
cpu0_DTLB PREFETCH  ACCESS:          0  HIT:          0  MISS:          0
cpu0_DTLB WRITEBACK ACCESS:          0  HIT:          0  MISS:          0
cpu0_ITLB TOTAL     ACCESS:     697366  HIT:     697316  MISS:         50
cpu0_ITLB LOAD      ACCESS:     697366  HIT:     697316  MISS:         50
cpu0_ITLB RFO       ACCESS:          0  HIT:          0  MISS:          0
cpu0_ITLB PREFETCH  ACCESS:          0  HIT:          0  MISS:          0
cpu0_ITLB WRITEBACK ACCESS:          0  HIT:          0  MISS:          0
cpu0_L1I TOTAL     ACCESS:    3612947  HIT:    3595577  MISS:      17370
cpu0_L1I LOAD      ACCESS:    3612947  HIT:    3595577  MISS:      17370
cpu0_L1I RFO       ACCESS:          0  HIT:          0  MISS:          0
cpu0_L1I PREFETCH  ACCESS:          0  HIT:          0  MISS:          0
cpu0_L1I WRITEBACK ACCESS:          0  HIT:          0  MISS:          0
cpu0_STLB TOTAL     ACCESS:    2636853  HIT:    2632331  MISS:       4522
cpu0_STLB LOAD      ACCESS:    2576432  HIT:    2571938  MISS:       4494
cpu0_STLB RFO       ACCESS:      60421  HIT:      60393  MISS:         28
cpu0_STLB PREFETCH  ACCESS:          0  HIT:          0  MISS:          0
cpu0_STLB WRITEBACK ACCESS:          0  HIT:          0  MISS:          0
cpu0_L1D TOTAL     ACCESS:   10215128  HIT:    6193948  MISS:    4021180
cpu0_L1D LOAD      ACCESS:    6276813  HIT:    2392260  MISS:    3884553
cpu0_L1D RFO       ACCESS:    3933921  HIT:    3801119  MISS:     132802
cpu0_L1D PREFETCH  ACCESS:          0  HIT:          0  MISS:          0
cpu0_L1D WRITEBACK ACCESS:          0  HIT:          0  MISS:          0
cpu0_L2C TOTAL     ACCESS:    4263811  HIT:    2966014  MISS:    1297797
cpu0_L2C LOAD      ACCESS:    3901565  HIT:    2646735  MISS:    1254830
cpu0_L2C RFO       ACCESS:     132221  HIT:      92091  MISS:      40130
cpu0_L2C PREFETCH  ACCESS:          0  HIT:          0  MISS:          0
cpu0_L2C WRITEBACK ACCESS:     226200  HIT:     225643  MISS:        557
LLC TOTAL     ACCESS:    1402202  HIT:    1132757  MISS:     269445
LLC LOAD      ACCESS:    1251703  HIT:     983413  MISS:     268290
LLC RFO       ACCESS:      38575  HIT:      37467  MISS:       1108
LLC PREFETCH  ACCESS:          0  HIT:          0  MISS:          0
LLC WRITEBACK ACCESS:     109644  HIT:     109632  MISS:         12
Heartbeat CPU 0 instructions: 88000002 cycles: 54569126 heartbeat IPC: 1.04102 cumulative IPC: 1.05367 (Simulation time: 1 hr 27 min 40 sec) 

Region of Interest Statistics
cpu0_DTLB TOTAL     ACCESS:    6963057  HIT:    4175458  MISS:    2787599
cpu0_DTLB LOAD      ACCESS:    5026305  HIT:    2302500  MISS:    2723805
cpu0_DTLB RFO       ACCESS:    1936752  HIT:    1872958  MISS:      63794
cpu0_DTLB PREFETCH  ACCESS:          0  HIT:          0  MISS:          0
cpu0_DTLB WRITEBACK ACCESS:          0  HIT:          0  MISS:          0
cpu0_ITLB TOTAL     ACCESS:     735416  HIT:     735366  MISS:         50
cpu0_ITLB LOAD      ACCESS:     735416  HIT:     735366  MISS:         50
cpu0_ITLB RFO       ACCESS:          0  HIT:          0  MISS:          0
cpu0_ITLB PREFETCH  ACCESS:          0  HIT:          0  MISS:          0
cpu0_ITLB WRITEBACK ACCESS:          0  HIT:          0  MISS:          0
cpu0_L1I TOTAL     ACCESS:    3814090  HIT:    3796720  MISS:      17370
cpu0_L1I LOAD      ACCESS:    3814090  HIT:    3796720  MISS:      17370
cpu0_L1I RFO       ACCESS:          0  HIT:          0  MISS:          0
cpu0_L1I PREFETCH  ACCESS:          0  HIT:          0  MISS:          0
cpu0_L1I WRITEBACK ACCESS:          0  HIT:          0  MISS:          0
cpu0_STLB TOTAL     ACCESS:    2787650  HIT:    2782903  MISS:       4747
cpu0_STLB LOAD      ACCESS:    2723856  HIT:    2719137  MISS:       4719
cpu0_STLB RFO       ACCESS:      63794  HIT:      63766  MISS:         28
cpu0_STLB PREFETCH  ACCESS:          0  HIT:          0  MISS:          0
cpu0_STLB WRITEBACK ACCESS:          0  HIT:          0  MISS:          0
cpu0_L1D TOTAL     ACCESS:   10773913  HIT:    6524278  MISS:    4249635
cpu0_L1D LOAD      ACCESS:    6612951  HIT:    2507487  MISS:    4105464
cpu0_L1D RFO       ACCESS:    4156343  HIT:    4016203  MISS:     140140
cpu0_L1D PREFETCH  ACCESS:          0  HIT:          0  MISS:          0
cpu0_L1D WRITEBACK ACCESS:          0  HIT:          0  MISS:          0
cpu0_L2C TOTAL     ACCESS:    4504800  HIT:    3131082  MISS:    1373718
cpu0_L2C LOAD      ACCESS:    4122457  HIT:    2793931  MISS:    1328526
cpu0_L2C RFO       ACCESS:     139508  HIT:      97302  MISS:      42206
cpu0_L2C PREFETCH  ACCESS:          0  HIT:          0  MISS:          0
cpu0_L2C WRITEBACK ACCESS:     238804  HIT:     238214  MISS:        590
LLC TOTAL     ACCESS:    1483633  HIT:    1198788  MISS:     284845
LLC LOAD      ACCESS:    1325340  HIT:    1041650  MISS:     283690
LLC RFO       ACCESS:      40621  HIT:      39513  MISS:       1108
LLC PREFETCH  ACCESS:          0  HIT:          0  MISS:          0
LLC WRITEBACK ACCESS:     115276  HIT:     115264  MISS:         12
Heartbeat CPU 0 instructions: 90000000 cycles: 56475762 heartbeat IPC: 1.04897 cumulative IPC: 1.05343 (Simulation time: 1 hr 30 min 7 sec) 

Region of Interest Statistics
cpu0_DTLB TOTAL     ACCESS:    7322750  HIT:    4384155  MISS:    2938595
cpu0_DTLB LOAD      ACCESS:    5282420  HIT:    2410985  MISS:    2871435
cpu0_DTLB RFO       ACCESS:    2040330  HIT:    1973170  MISS:      67160
cpu0_DTLB PREFETCH  ACCESS:          0  HIT:          0  MISS:          0
cpu0_DTLB WRITEBACK ACCESS:          0  HIT:          0  MISS:          0
cpu0_ITLB TOTAL     ACCESS:     773549  HIT:     773499  MISS:         50
cpu0_ITLB LOAD      ACCESS:     773549  HIT:     773499  MISS:         50
cpu0_ITLB RFO       ACCESS:          0  HIT:          0  MISS:          0
cpu0_ITLB PREFETCH  ACCESS:          0  HIT:          0  MISS:          0
cpu0_ITLB WRITEBACK ACCESS:          0  HIT:          0  MISS:          0
cpu0_L1I TOTAL     ACCESS:    4014902  HIT:    3997532  MISS:      17370
cpu0_L1I LOAD      ACCESS:    4014902  HIT:    3997532  MISS:      17370
cpu0_L1I RFO       ACCESS:          0  HIT:          0  MISS:          0
cpu0_L1I PREFETCH  ACCESS:          0  HIT:          0  MISS:          0
cpu0_L1I WRITEBACK ACCESS:          0  HIT:          0  MISS:          0
cpu0_STLB TOTAL     ACCESS:    2938646  HIT:    2933649  MISS:       4997
cpu0_STLB LOAD      ACCESS:    2871486  HIT:    2866517  MISS:       4969
cpu0_STLB RFO       ACCESS:      67160  HIT:      67132  MISS:         28
cpu0_STLB PREFETCH  ACCESS:          0  HIT:          0  MISS:          0
cpu0_STLB WRITEBACK ACCESS:          0  HIT:          0  MISS:          0
cpu0_L1D TOTAL     ACCESS:   11331720  HIT:    6853504  MISS:    4478216
cpu0_L1D LOAD      ACCESS:    6948419  HIT:    2621972  MISS:    4326447
cpu0_L1D RFO       ACCESS:    4378432  HIT:    4230927  MISS:     147505
cpu0_L1D PREFETCH  ACCESS:          0  HIT:          0  MISS:          0
cpu0_L1D WRITEBACK ACCESS:          0  HIT:          0  MISS:          0
cpu0_L2C TOTAL     ACCESS:    4745948  HIT:    3300264  MISS:    1445684
cpu0_L2C LOAD      ACCESS:    4343421  HIT:    2945259  MISS:    1398162
cpu0_L2C RFO       ACCESS:     146841  HIT:     102482  MISS:      44359
cpu0_L2C PREFETCH  ACCESS:          0  HIT:          0  MISS:          0
cpu0_L2C WRITEBACK ACCESS:     251422  HIT:     250814  MISS:        608
LLC TOTAL     ACCESS:    1561773  HIT:    1261728  MISS:     300045
LLC LOAD      ACCESS:    1394939  HIT:    1096049  MISS:     298890
LLC RFO       ACCESS:      42768  HIT:      41660  MISS:       1108
LLC PREFETCH  ACCESS:          0  HIT:          0  MISS:          0
LLC WRITEBACK ACCESS:     121511  HIT:     121499  MISS:         12
Heartbeat CPU 0 instructions: 92000003 cycles: 58387213 heartbeat IPC: 1.04633 cumulative IPC: 1.05309 (Simulation time: 1 hr 32 min 31 sec) 

Region of Interest Statistics
cpu0_DTLB TOTAL     ACCESS:    7682565  HIT:    4593234  MISS:    3089331
cpu0_DTLB LOAD      ACCESS:    5538774  HIT:    2519619  MISS:    3019155
cpu0_DTLB RFO       ACCESS:    2143791  HIT:    2073615  MISS:      70176
cpu0_DTLB PREFETCH  ACCESS:          0  HIT:          0  MISS:          0
cpu0_DTLB WRITEBACK ACCESS:          0  HIT:          0  MISS:          0
cpu0_ITLB TOTAL     ACCESS:     811658  HIT:     811608  MISS:         50
cpu0_ITLB LOAD      ACCESS:     811658  HIT:     811608  MISS:         50
cpu0_ITLB RFO       ACCESS:          0  HIT:          0  MISS:          0
cpu0_ITLB PREFETCH  ACCESS:          0  HIT:          0  MISS:          0
cpu0_ITLB WRITEBACK ACCESS:          0  HIT:          0  MISS:          0
cpu0_L1I TOTAL     ACCESS:    4215545  HIT:    4198175  MISS:      17370
cpu0_L1I LOAD      ACCESS:    4215545  HIT:    4198175  MISS:      17370
cpu0_L1I RFO       ACCESS:          0  HIT:          0  MISS:          0
cpu0_L1I PREFETCH  ACCESS:          0  HIT:          0  MISS:          0
cpu0_L1I WRITEBACK ACCESS:          0  HIT:          0  MISS:          0
cpu0_STLB TOTAL     ACCESS:    3089381  HIT:    3084159  MISS:       5222
cpu0_STLB LOAD      ACCESS:    3019205  HIT:    3014011  MISS:       5194
cpu0_STLB RFO       ACCESS:      70176  HIT:      70148  MISS:         28
cpu0_STLB PREFETCH  ACCESS:          0  HIT:          0  MISS:          0
cpu0_STLB WRITEBACK ACCESS:          0  HIT:          0  MISS:          0
cpu0_L1D TOTAL     ACCESS:   11890117  HIT:    7183519  MISS:    4706598
cpu0_L1D LOAD      ACCESS:    7284688  HIT:    2737243  MISS:    4547445
cpu0_L1D RFO       ACCESS:    4600335  HIT:    4445654  MISS:     154681
cpu0_L1D PREFETCH  ACCESS:          0  HIT:          0  MISS:          0
cpu0_L1D WRITEBACK ACCESS:          0  HIT:          0  MISS:          0
cpu0_L2C TOTAL     ACCESS:    4986953  HIT:    3470503  MISS:    1516450
cpu0_L2C LOAD      ACCESS:    4564395  HIT:    3097708  MISS:    1466687
cpu0_L2C RFO       ACCESS:     153975  HIT:     107513  MISS:      46462
cpu0_L2C PREFETCH  ACCESS:          0  HIT:          0  MISS:          0
cpu0_L2C WRITEBACK ACCESS:     264111  HIT:     263499  MISS:        612
LLC TOTAL     ACCESS:    1638565  HIT:    1323120  MISS:     315445
LLC LOAD      ACCESS:    1463367  HIT:    1149077  MISS:     314290
LLC RFO       ACCESS:      44840  HIT:      43732  MISS:       1108
LLC PREFETCH  ACCESS:          0  HIT:          0  MISS:          0
LLC WRITEBACK ACCESS:     127669  HIT:     127657  MISS:         12
Heartbeat CPU 0 instructions: 94000004 cycles: 60295457 heartbeat IPC: 1.04808 cumulative IPC: 1.05287 (Simulation time: 1 hr 34 min 57 sec) 

Region of Interest Statistics
cpu0_DTLB TOTAL     ACCESS:    8043342  HIT:    4803306  MISS:    3240036
cpu0_DTLB LOAD      ACCESS:    5794424  HIT:    2627720  MISS:    3166704
cpu0_DTLB RFO       ACCESS:    2248918  HIT:    2175586  MISS:      73332
cpu0_DTLB PREFETCH  ACCESS:          0  HIT:          0  MISS:          0
cpu0_DTLB WRITEBACK ACCESS:          0  HIT:          0  MISS:          0
cpu0_ITLB TOTAL     ACCESS:     849771  HIT:     849721  MISS:         50
cpu0_ITLB LOAD      ACCESS:     849771  HIT:     849721  MISS:         50
cpu0_ITLB RFO       ACCESS:          0  HIT:          0  MISS:          0
cpu0_ITLB PREFETCH  ACCESS:          0  HIT:          0  MISS:          0
cpu0_ITLB WRITEBACK ACCESS:          0  HIT:          0  MISS:          0
cpu0_L1I TOTAL     ACCESS:    4416929  HIT:    4399559  MISS:      17370
cpu0_L1I LOAD      ACCESS:    4416929  HIT:    4399559  MISS:      17370
cpu0_L1I RFO       ACCESS:          0  HIT:          0  MISS:          0
cpu0_L1I PREFETCH  ACCESS:          0  HIT:          0  MISS:          0
cpu0_L1I WRITEBACK ACCESS:          0  HIT:          0  MISS:          0
cpu0_STLB TOTAL     ACCESS:    3240086  HIT:    3234614  MISS:       5472
cpu0_STLB LOAD      ACCESS:    3166754  HIT:    3161310  MISS:       5444
cpu0_STLB RFO       ACCESS:      73332  HIT:      73304  MISS:         28
cpu0_STLB PREFETCH  ACCESS:          0  HIT:          0  MISS:          0
cpu0_STLB WRITEBACK ACCESS:          0  HIT:          0  MISS:          0
cpu0_L1D TOTAL     ACCESS:   12448426  HIT:    7513554  MISS:    4934872
cpu0_L1D LOAD      ACCESS:    7620564  HIT:    2852309  MISS:    4768255
cpu0_L1D RFO       ACCESS:    4822518  HIT:    4660598  MISS:     161920
cpu0_L1D PREFETCH  ACCESS:          0  HIT:          0  MISS:          0
cpu0_L1D WRITEBACK ACCESS:          0  HIT:          0  MISS:          0
cpu0_L2C TOTAL     ACCESS:    5227677  HIT:    3633889  MISS:    1593788
cpu0_L2C LOAD      ACCESS:    4785194  HIT:    3243658  MISS:    1541536
cpu0_L2C RFO       ACCESS:     161199  HIT:     112376  MISS:      48823
cpu0_L2C PREFETCH  ACCESS:          0  HIT:          0  MISS:          0
cpu0_L2C WRITEBACK ACCESS:     276587  HIT:     275969  MISS:        618
LLC TOTAL     ACCESS:    1722572  HIT:    1391927  MISS:     330645
LLC LOAD      ACCESS:    1537986  HIT:    1208496  MISS:     329490
LLC RFO       ACCESS:      47185  HIT:      46077  MISS:       1108
LLC PREFETCH  ACCESS:          0  HIT:          0  MISS:          0
LLC WRITEBACK ACCESS:     134590  HIT:     134578  MISS:         12
Heartbeat CPU 0 instructions: 96000003 cycles: 62209266 heartbeat IPC: 1.04504 cumulative IPC: 1.05252 (Simulation time: 1 hr 37 min 20 sec) 

Region of Interest Statistics
cpu0_DTLB TOTAL     ACCESS:    8404667  HIT:    5013884  MISS:    3390783
cpu0_DTLB LOAD      ACCESS:    6050633  HIT:    2736225  MISS:    3314408
cpu0_DTLB RFO       ACCESS:    2354034  HIT:    2277659  MISS:      76375
cpu0_DTLB PREFETCH  ACCESS:          0  HIT:          0  MISS:          0
cpu0_DTLB WRITEBACK ACCESS:          0  HIT:          0  MISS:          0
cpu0_ITLB TOTAL     ACCESS:     887845  HIT:     887795  MISS:         50
cpu0_ITLB LOAD      ACCESS:     887845  HIT:     887795  MISS:         50
cpu0_ITLB RFO       ACCESS:          0  HIT:          0  MISS:          0
cpu0_ITLB PREFETCH  ACCESS:          0  HIT:          0  MISS:          0
cpu0_ITLB WRITEBACK ACCESS:          0  HIT:          0  MISS:          0
cpu0_L1I TOTAL     ACCESS:    4618263  HIT:    4600893  MISS:      17370
cpu0_L1I LOAD      ACCESS:    4618263  HIT:    4600893  MISS:      17370
cpu0_L1I RFO       ACCESS:          0  HIT:          0  MISS:          0
cpu0_L1I PREFETCH  ACCESS:          0  HIT:          0  MISS:          0
cpu0_L1I WRITEBACK ACCESS:          0  HIT:          0  MISS:          0
cpu0_STLB TOTAL     ACCESS:    3390833  HIT:    3385136  MISS:       5697
cpu0_STLB LOAD      ACCESS:    3314458  HIT:    3308789  MISS:       5669
cpu0_STLB RFO       ACCESS:      76375  HIT:      76347  MISS:         28
cpu0_STLB PREFETCH  ACCESS:          0  HIT:          0  MISS:          0
cpu0_STLB WRITEBACK ACCESS:          0  HIT:          0  MISS:          0
cpu0_L1D TOTAL     ACCESS:   13007303  HIT:    7843909  MISS:    5163394
cpu0_L1D LOAD      ACCESS:    7956906  HIT:    2967425  MISS:    4989481
cpu0_L1D RFO       ACCESS:    5044828  HIT:    4875819  MISS:     169009
cpu0_L1D PREFETCH  ACCESS:          0  HIT:          0  MISS:          0
cpu0_L1D WRITEBACK ACCESS:          0  HIT:          0  MISS:          0
cpu0_L2C TOTAL     ACCESS:    5468985  HIT:    3800524  MISS:    1668461
cpu0_L2C LOAD      ACCESS:    5006400  HIT:    3392415  MISS:    1613985
cpu0_L2C RFO       ACCESS:     168233  HIT:     117316  MISS:      50917
cpu0_L2C PREFETCH  ACCESS:          0  HIT:          0  MISS:          0
cpu0_L2C WRITEBACK ACCESS:     289448  HIT:     288824  MISS:        624
LLC TOTAL     ACCESS:    1803446  HIT:    1457573  MISS:     345873
LLC LOAD      ACCESS:    1610136  HIT:    1265421  MISS:     344715
LLC RFO       ACCESS:      49245  HIT:      48137  MISS:       1108
LLC PREFETCH  ACCESS:          0  HIT:          0  MISS:          0
LLC WRITEBACK ACCESS:     141130  HIT:     141115  MISS:         15
Heartbeat CPU 0 instructions: 98000003 cycles: 64127454 heartbeat IPC: 1.04265 cumulative IPC: 1.05211 (Simulation time: 1 hr 39 min 48 sec) 

Region of Interest Statistics
cpu0_DTLB TOTAL     ACCESS:    8765717  HIT:    5224076  MISS:    3541641
cpu0_DTLB LOAD      ACCESS:    6307246  HIT:    2845382  MISS:    3461864
cpu0_DTLB RFO       ACCESS:    2458471  HIT:    2378694  MISS:      79777
cpu0_DTLB PREFETCH  ACCESS:          0  HIT:          0  MISS:          0
cpu0_DTLB WRITEBACK ACCESS:          0  HIT:          0  MISS:          0
cpu0_ITLB TOTAL     ACCESS:     925879  HIT:     925829  MISS:         50
cpu0_ITLB LOAD      ACCESS:     925879  HIT:     925829  MISS:         50
cpu0_ITLB RFO       ACCESS:          0  HIT:          0  MISS:          0
cpu0_ITLB PREFETCH  ACCESS:          0  HIT:          0  MISS:          0
cpu0_ITLB WRITEBACK ACCESS:          0  HIT:          0  MISS:          0
cpu0_L1I TOTAL     ACCESS:    4819364  HIT:    4801994  MISS:      17370
cpu0_L1I LOAD      ACCESS:    4819364  HIT:    4801994  MISS:      17370
cpu0_L1I RFO       ACCESS:          0  HIT:          0  MISS:          0
cpu0_L1I PREFETCH  ACCESS:          0  HIT:          0  MISS:          0
cpu0_L1I WRITEBACK ACCESS:          0  HIT:          0  MISS:          0
cpu0_STLB TOTAL     ACCESS:    3541692  HIT:    3535745  MISS:       5947
cpu0_STLB LOAD      ACCESS:    3461915  HIT:    3455996  MISS:       5919
cpu0_STLB RFO       ACCESS:      79777  HIT:      79749  MISS:         28
cpu0_STLB PREFETCH  ACCESS:          0  HIT:          0  MISS:          0
cpu0_STLB WRITEBACK ACCESS:          0  HIT:          0  MISS:          0
cpu0_L1D TOTAL     ACCESS:   13565458  HIT:    8173658  MISS:    5391800
cpu0_L1D LOAD      ACCESS:    8292891  HIT:    3082181  MISS:    5210710
cpu0_L1D RFO       ACCESS:    5266748  HIT:    5090787  MISS:     175961
cpu0_L1D PREFETCH  ACCESS:          0  HIT:          0  MISS:          0
cpu0_L1D WRITEBACK ACCESS:          0  HIT:          0  MISS:          0
cpu0_L2C TOTAL     ACCESS:    5709929  HIT:    3963161  MISS:    1746768
cpu0_L2C LOAD      ACCESS:    5227606  HIT:    3537741  MISS:    1689865
cpu0_L2C RFO       ACCESS:     175141  HIT:     122013  MISS:      53128
cpu0_L2C PREFETCH  ACCESS:          0  HIT:          0  MISS:          0
cpu0_L2C WRITEBACK ACCESS:     302053  HIT:     301342  MISS:        711
LLC TOTAL     ACCESS:    1887336  HIT:    1526262  MISS:     361074
LLC LOAD      ACCESS:    1685560  HIT:    1325645  MISS:     359915
LLC RFO       ACCESS:      51389  HIT:      50281  MISS:       1108
LLC PREFETCH  ACCESS:          0  HIT:          0  MISS:          0
LLC WRITEBACK ACCESS:     147323  HIT:     147307  MISS:         16
Heartbeat CPU 0 instructions: 100000003 cycles: 66052132 heartbeat IPC: 1.03913 cumulative IPC: 1.05158 (Simulation time: 1 hr 42 min 14 sec) 

Region of Interest Statistics
cpu0_DTLB TOTAL     ACCESS:    9129473  HIT:    5436862  MISS:    3692611
cpu0_DTLB LOAD      ACCESS:    6564813  HIT:    2955133  MISS:    3609680
cpu0_DTLB RFO       ACCESS:    2564660  HIT:    2481729  MISS:      82931
cpu0_DTLB PREFETCH  ACCESS:          0  HIT:          0  MISS:          0
cpu0_DTLB WRITEBACK ACCESS:          0  HIT:          0  MISS:          0
cpu0_ITLB TOTAL     ACCESS:     963994  HIT:     963944  MISS:         50
cpu0_ITLB LOAD      ACCESS:     963994  HIT:     963944  MISS:         50
cpu0_ITLB RFO       ACCESS:          0  HIT:          0  MISS:          0
cpu0_ITLB PREFETCH  ACCESS:          0  HIT:          0  MISS:          0
cpu0_ITLB WRITEBACK ACCESS:          0  HIT:          0  MISS:          0
cpu0_L1I TOTAL     ACCESS:    5020332  HIT:    5002962  MISS:      17370
cpu0_L1I LOAD      ACCESS:    5020332  HIT:    5002962  MISS:      17370
cpu0_L1I RFO       ACCESS:          0  HIT:          0  MISS:          0
cpu0_L1I PREFETCH  ACCESS:          0  HIT:          0  MISS:          0
cpu0_L1I WRITEBACK ACCESS:          0  HIT:          0  MISS:          0
cpu0_STLB TOTAL     ACCESS:    3692661  HIT:    3686464  MISS:       6197
cpu0_STLB LOAD      ACCESS:    3609730  HIT:    3603561  MISS:       6169
cpu0_STLB RFO       ACCESS:      82931  HIT:      82903  MISS:         28
cpu0_STLB PREFETCH  ACCESS:          0  HIT:          0  MISS:          0
cpu0_STLB WRITEBACK ACCESS:          0  HIT:          0  MISS:          0
cpu0_L1D TOTAL     ACCESS:   14123136  HIT:    8503072  MISS:    5620064
cpu0_L1D LOAD      ACCESS:    8628866  HIT:    3197100  MISS:    5431766
cpu0_L1D RFO       ACCESS:    5488201  HIT:    5305265  MISS:     182936
cpu0_L1D PREFETCH  ACCESS:          0  HIT:          0  MISS:          0
cpu0_L1D WRITEBACK ACCESS:          0  HIT:          0  MISS:          0
cpu0_L2C TOTAL     ACCESS:    5950382  HIT:    4120970  MISS:    1829412
cpu0_L2C LOAD      ACCESS:    5448638  HIT:    3678648  MISS:    1769990
cpu0_L2C RFO       ACCESS:     182084  HIT:     126712  MISS:      55372
cpu0_L2C PREFETCH  ACCESS:          0  HIT:          0  MISS:          0
cpu0_L2C WRITEBACK ACCESS:     314298  HIT:     313483  MISS:        815
LLC TOTAL     ACCESS:    1975704  HIT:    1599229  MISS:     376475
LLC LOAD      ACCESS:    1765479  HIT:    1390164  MISS:     375315
LLC RFO       ACCESS:      53597  HIT:      52489  MISS:       1108
LLC PREFETCH  ACCESS:          0  HIT:          0  MISS:          0
LLC WRITEBACK ACCESS:     153393  HIT:     153376  MISS:         17
Heartbeat CPU 0 instructions: 102000002 cycles: 67964182 heartbeat IPC: 1.046 cumulative IPC: 1.05137 (Simulation time: 1 hr 44 min 42 sec) 

Region of Interest Statistics
cpu0_DTLB TOTAL     ACCESS:    9489734  HIT:    5646417  MISS:    3843317
cpu0_DTLB LOAD      ACCESS:    6822076  HIT:    3064739  MISS:    3757337
cpu0_DTLB RFO       ACCESS:    2667658  HIT:    2581678  MISS:      85980
cpu0_DTLB PREFETCH  ACCESS:          0  HIT:          0  MISS:          0
cpu0_DTLB WRITEBACK ACCESS:          0  HIT:          0  MISS:          0
cpu0_ITLB TOTAL     ACCESS:    1002143  HIT:    1002093  MISS:         50
cpu0_ITLB LOAD      ACCESS:    1002143  HIT:    1002093  MISS:         50
cpu0_ITLB RFO       ACCESS:          0  HIT:          0  MISS:          0
cpu0_ITLB PREFETCH  ACCESS:          0  HIT:          0  MISS:          0
cpu0_ITLB WRITEBACK ACCESS:          0  HIT:          0  MISS:          0
cpu0_L1I TOTAL     ACCESS:    5220971  HIT:    5203601  MISS:      17370
cpu0_L1I LOAD      ACCESS:    5220971  HIT:    5203601  MISS:      17370
cpu0_L1I RFO       ACCESS:          0  HIT:          0  MISS:          0
cpu0_L1I PREFETCH  ACCESS:          0  HIT:          0  MISS:          0
cpu0_L1I WRITEBACK ACCESS:          0  HIT:          0  MISS:          0
cpu0_STLB TOTAL     ACCESS:    3843367  HIT:    3836970  MISS:       6397
cpu0_STLB LOAD      ACCESS:    3757387  HIT:    3751018  MISS:       6369
cpu0_STLB RFO       ACCESS:      85980  HIT:      85952  MISS:         28
cpu0_STLB PREFETCH  ACCESS:          0  HIT:          0  MISS:          0
cpu0_STLB WRITEBACK ACCESS:          0  HIT:          0  MISS:          0
cpu0_L1D TOTAL     ACCESS:   14682142  HIT:    8834013  MISS:    5848129
cpu0_L1D LOAD      ACCESS:    8965444  HIT:    3312778  MISS:    5652666
cpu0_L1D RFO       ACCESS:    5710429  HIT:    5520511  MISS:     189918
cpu0_L1D PREFETCH  ACCESS:          0  HIT:          0  MISS:          0
cpu0_L1D WRITEBACK ACCESS:          0  HIT:          0  MISS:          0
cpu0_L2C TOTAL     ACCESS:    6191100  HIT:    4296047  MISS:    1895053
cpu0_L2C LOAD      ACCESS:    5669528  HIT:    3836349  MISS:    1833179
cpu0_L2C RFO       ACCESS:     189020  HIT:     131354  MISS:      57666
cpu0_L2C PREFETCH  ACCESS:          0  HIT:          0  MISS:          0
cpu0_L2C WRITEBACK ACCESS:     327007  HIT:     326152  MISS:        855
LLC TOTAL     ACCESS:    2048778  HIT:    1657103  MISS:     391675
LLC LOAD      ACCESS:    1828461  HIT:    1437946  MISS:     390515
LLC RFO       ACCESS:      55863  HIT:      54755  MISS:       1108
LLC PREFETCH  ACCESS:          0  HIT:          0  MISS:          0
LLC WRITEBACK ACCESS:     161101  HIT:     161084  MISS:         17
Heartbeat CPU 0 instructions: 104000001 cycles: 69893822 heartbeat IPC: 1.03646 cumulative IPC: 1.05081 (Simulation time: 1 hr 47 min 8 sec) 

Region of Interest Statistics
cpu0_DTLB TOTAL     ACCESS:    9850758  HIT:    5856646  MISS:    3994112
cpu0_DTLB LOAD      ACCESS:    7078860  HIT:    3173694  MISS:    3905166
cpu0_DTLB RFO       ACCESS:    2771898  HIT:    2682952  MISS:      88946
cpu0_DTLB PREFETCH  ACCESS:          0  HIT:          0  MISS:          0
cpu0_DTLB WRITEBACK ACCESS:          0  HIT:          0  MISS:          0
cpu0_ITLB TOTAL     ACCESS:    1040153  HIT:    1040103  MISS:         50
cpu0_ITLB LOAD      ACCESS:    1040153  HIT:    1040103  MISS:         50
cpu0_ITLB RFO       ACCESS:          0  HIT:          0  MISS:          0
cpu0_ITLB PREFETCH  ACCESS:          0  HIT:          0  MISS:          0
cpu0_ITLB WRITEBACK ACCESS:          0  HIT:          0  MISS:          0
cpu0_L1I TOTAL     ACCESS:    5422149  HIT:    5404779  MISS:      17370
cpu0_L1I LOAD      ACCESS:    5422149  HIT:    5404779  MISS:      17370
cpu0_L1I RFO       ACCESS:          0  HIT:          0  MISS:          0
cpu0_L1I PREFETCH  ACCESS:          0  HIT:          0  MISS:          0
cpu0_L1I WRITEBACK ACCESS:          0  HIT:          0  MISS:          0
cpu0_STLB TOTAL     ACCESS:    3994163  HIT:    3987516  MISS:       6647
cpu0_STLB LOAD      ACCESS:    3905217  HIT:    3898598  MISS:       6619
cpu0_STLB RFO       ACCESS:      88946  HIT:      88918  MISS:         28
cpu0_STLB PREFETCH  ACCESS:          0  HIT:          0  MISS:          0
cpu0_STLB WRITEBACK ACCESS:          0  HIT:          0  MISS:          0
cpu0_L1D TOTAL     ACCESS:   15241081  HIT:    9164370  MISS:    6076711
cpu0_L1D LOAD      ACCESS:    9301941  HIT:    3428213  MISS:    5873728
cpu0_L1D RFO       ACCESS:    5932621  HIT:    5735413  MISS:     197208
cpu0_L1D PREFETCH  ACCESS:          0  HIT:          0  MISS:          0
cpu0_L1D WRITEBACK ACCESS:          0  HIT:          0  MISS:          0
cpu0_L2C TOTAL     ACCESS:    6432377  HIT:    4465566  MISS:    1966811
cpu0_L2C LOAD      ACCESS:    5890565  HIT:    3988108  MISS:    1902457
cpu0_L2C RFO       ACCESS:     196283  HIT:     136282  MISS:      60001
cpu0_L2C PREFETCH  ACCESS:          0  HIT:          0  MISS:          0
cpu0_L2C WRITEBACK ACCESS:     339754  HIT:     338893  MISS:        861
LLC TOTAL     ACCESS:    2126535  HIT:    1719480  MISS:     407055
LLC LOAD      ACCESS:    1897448  HIT:    1491553  MISS:     405895
LLC RFO       ACCESS:      58167  HIT:      57059  MISS:       1108
LLC PREFETCH  ACCESS:          0  HIT:          0  MISS:          0
LLC WRITEBACK ACCESS:     167428  HIT:     167411  MISS:         17
Heartbeat CPU 0 instructions: 106000000 cycles: 71815105 heartbeat IPC: 1.04097 cumulative IPC: 1.05045 (Simulation time: 1 hr 49 min 33 sec) 

Region of Interest Statistics
cpu0_DTLB TOTAL     ACCESS:   10211873  HIT:    6067005  MISS:    4144868
cpu0_DTLB LOAD      ACCESS:    7335370  HIT:    3282332  MISS:    4053038
cpu0_DTLB RFO       ACCESS:    2876503  HIT:    2784673  MISS:      91830
cpu0_DTLB PREFETCH  ACCESS:          0  HIT:          0  MISS:          0
cpu0_DTLB WRITEBACK ACCESS:          0  HIT:          0  MISS:          0
cpu0_ITLB TOTAL     ACCESS:    1078242  HIT:    1078192  MISS:         50
cpu0_ITLB LOAD      ACCESS:    1078242  HIT:    1078192  MISS:         50
cpu0_ITLB RFO       ACCESS:          0  HIT:          0  MISS:          0
cpu0_ITLB PREFETCH  ACCESS:          0  HIT:          0  MISS:          0
cpu0_ITLB WRITEBACK ACCESS:          0  HIT:          0  MISS:          0
cpu0_L1I TOTAL     ACCESS:    5623626  HIT:    5606256  MISS:      17370
cpu0_L1I LOAD      ACCESS:    5623626  HIT:    5606256  MISS:      17370
cpu0_L1I RFO       ACCESS:          0  HIT:          0  MISS:          0
cpu0_L1I PREFETCH  ACCESS:          0  HIT:          0  MISS:          0
cpu0_L1I WRITEBACK ACCESS:          0  HIT:          0  MISS:          0
cpu0_STLB TOTAL     ACCESS:    4144918  HIT:    4138021  MISS:       6897
cpu0_STLB LOAD      ACCESS:    4053088  HIT:    4046219  MISS:       6869
cpu0_STLB RFO       ACCESS:      91830  HIT:      91802  MISS:         28
cpu0_STLB PREFETCH  ACCESS:          0  HIT:          0  MISS:          0
cpu0_STLB WRITEBACK ACCESS:          0  HIT:          0  MISS:          0
cpu0_L1D TOTAL     ACCESS:   15799837  HIT:    9494961  MISS:    6304876
cpu0_L1D LOAD      ACCESS:    9638452  HIT:    3543513  MISS:    6094939
cpu0_L1D RFO       ACCESS:    6154616  HIT:    5950681  MISS:     203935
cpu0_L1D PREFETCH  ACCESS:          0  HIT:          0  MISS:          0
cpu0_L1D WRITEBACK ACCESS:          0  HIT:          0  MISS:          0
cpu0_L2C TOTAL     ACCESS:    6673071  HIT:    4622227  MISS:    2050844
cpu0_L2C LOAD      ACCESS:    6111757  HIT:    4127703  MISS:    1984054
cpu0_L2C RFO       ACCESS:     202984  HIT:     140658  MISS:      62326
cpu0_L2C PREFETCH  ACCESS:          0  HIT:          0  MISS:          0
cpu0_L2C WRITEBACK ACCESS:     352328  HIT:     351461  MISS:        867
[...]
cpu0_DTLB LOAD      ACCESS:  192336521  HIT:   81799437  MISS:  110537084
cpu0_DTLB RFO       ACCESS:   78084242  HIT:   75752738  MISS:    2331504
cpu0_DTLB PREFETCH  ACCESS:          0  HIT:          0  MISS:          0
cpu0_DTLB WRITEBACK ACCESS:          0  HIT:          0  MISS:          0
cpu0_ITLB TOTAL     ACCESS:   28525296  HIT:   28525246  MISS:         50
cpu0_ITLB LOAD      ACCESS:   28525296  HIT:   28525246  MISS:         50
cpu0_ITLB RFO       ACCESS:          0  HIT:          0  MISS:          0
cpu0_ITLB PREFETCH  ACCESS:          0  HIT:          0  MISS:          0
cpu0_ITLB WRITEBACK ACCESS:          0  HIT:          0  MISS:          0
cpu0_L1I TOTAL     ACCESS:  150552336  HIT:  150534966  MISS:      17370
cpu0_L1I LOAD      ACCESS:  150552336  HIT:  150534966  MISS:      17370
cpu0_L1I RFO       ACCESS:          0  HIT:          0  MISS:          0
cpu0_L1I PREFETCH  ACCESS:          0  HIT:          0  MISS:          0
cpu0_L1I WRITEBACK ACCESS:          0  HIT:          0  MISS:          0
cpu0_STLB TOTAL     ACCESS:  112868639  HIT:  112685822  MISS:     182817
cpu0_STLB LOAD      ACCESS:  110537135  HIT:  110354355  MISS:     182780
cpu0_STLB RFO       ACCESS:    2331504  HIT:    2331467  MISS:         37
cpu0_STLB PREFETCH  ACCESS:          0  HIT:          0  MISS:          0
cpu0_STLB WRITEBACK ACCESS:          0  HIT:          0  MISS:          0
cpu0_L1D TOTAL     ACCESS:  418388472  HIT:  247423097  MISS:  170965375
cpu0_L1D LOAD      ACCESS:  251941351  HIT:   86522432  MISS:  165418919
cpu0_L1D RFO       ACCESS:  166266448  HIT:  160882216  MISS:    5384232
cpu0_L1D PREFETCH  ACCESS:          0  HIT:          0  MISS:          0
cpu0_L1D WRITEBACK ACCESS:          0  HIT:          0  MISS:          0
cpu0_L2C TOTAL     ACCESS:  180333548  HIT:  123602677  MISS:   56730871
cpu0_L2C LOAD      ACCESS:  165422491  HIT:  110505466  MISS:   54917025
cpu0_L2C RFO       ACCESS:    5359020  HIT:    3672012  MISS:    1687008
cpu0_L2C PREFETCH  ACCESS:          0  HIT:          0  MISS:          0
cpu0_L2C WRITEBACK ACCESS:    9389813  HIT:    9361336  MISS:      28477
LLC TOTAL     ACCESS:   61397049  HIT:   49898774  MISS:   11498275
LLC LOAD      ACCESS:   54787384  HIT:   43290869  MISS:   11496515
LLC RFO       ACCESS:    1662985  HIT:    1661876  MISS:       1109
LLC PREFETCH  ACCESS:          0  HIT:          0  MISS:          0
LLC WRITEBACK ACCESS:    4848319  HIT:    4847733  MISS:        586
Heartbeat CPU 0 instructions: 1550000004 cycles: 1456005831 heartbeat IPC: 1.03984 cumulative IPC: 1.04348 (Simulation time: 20 hr 44 min 1 sec) 

Region of Interest Statistics
cpu0_DTLB TOTAL     ACCESS:  270778761  HIT:  157759385  MISS:  113019376
cpu0_DTLB LOAD      ACCESS:  192591443  HIT:   81906628  MISS:  110684815
cpu0_DTLB RFO       ACCESS:   78187318  HIT:   75852757  MISS:    2334561
cpu0_DTLB PREFETCH  ACCESS:          0  HIT:          0  MISS:          0
cpu0_DTLB WRITEBACK ACCESS:          0  HIT:          0  MISS:          0
cpu0_ITLB TOTAL     ACCESS:   28563382  HIT:   28563332  MISS:         50
cpu0_ITLB LOAD      ACCESS:   28563382  HIT:   28563332  MISS:         50
cpu0_ITLB RFO       ACCESS:          0  HIT:          0  MISS:          0
cpu0_ITLB PREFETCH  ACCESS:          0  HIT:          0  MISS:          0
cpu0_ITLB WRITEBACK ACCESS:          0  HIT:          0  MISS:          0
cpu0_L1I TOTAL     ACCESS:  150753490  HIT:  150736120  MISS:      17370
cpu0_L1I LOAD      ACCESS:  150753490  HIT:  150736120  MISS:      17370
cpu0_L1I RFO       ACCESS:          0  HIT:          0  MISS:          0
cpu0_L1I PREFETCH  ACCESS:          0  HIT:          0  MISS:          0
cpu0_L1I WRITEBACK ACCESS:          0  HIT:          0  MISS:          0
cpu0_STLB TOTAL     ACCESS:  113019426  HIT:  112836384  MISS:     183042
cpu0_STLB LOAD      ACCESS:  110684865  HIT:  110501860  MISS:     183005
cpu0_STLB RFO       ACCESS:    2334561  HIT:    2334524  MISS:         37
cpu0_STLB PREFETCH  ACCESS:          0  HIT:          0  MISS:          0
cpu0_STLB WRITEBACK ACCESS:          0  HIT:          0  MISS:          0
cpu0_L1D TOTAL     ACCESS:  418946539  HIT:  247752846  MISS:  171193693
cpu0_L1D LOAD      ACCESS:  252277143  HIT:   86637177  MISS:  165639966
cpu0_L1D RFO       ACCESS:  166488498  HIT:  161097201  MISS:    5391297
cpu0_L1D PREFETCH  ACCESS:          0  HIT:          0  MISS:          0
cpu0_L1D WRITEBACK ACCESS:          0  HIT:          0  MISS:          0
cpu0_L2C TOTAL     ACCESS:  180574283  HIT:  123775713  MISS:   56798570
cpu0_L2C LOAD      ACCESS:  165643526  HIT:  110661119  MISS:   54982407
cpu0_L2C RFO       ACCESS:    5366068  HIT:    3676876  MISS:    1689192
cpu0_L2C PREFETCH  ACCESS:          0  HIT:          0  MISS:          0
cpu0_L2C WRITEBACK ACCESS:    9402259  HIT:    9373778  MISS:      28481
LLC TOTAL     ACCESS:   61470668  HIT:   49956993  MISS:   11513675
LLC LOAD      ACCESS:   54852731  HIT:   43340816  MISS:   11511915
LLC RFO       ACCESS:    1665154  HIT:    1664045  MISS:       1109
LLC PREFETCH  ACCESS:          0  HIT:          0  MISS:          0
LLC WRITEBACK ACCESS:    4854293  HIT:    4853707  MISS:        586
Finished CPU 0 instructions: 1500000001 cycles: 1437501100 cumulative IPC: 1.04348 (Simulation time: 20 hr 44 min 1 sec) 

ChampSim completed all CPUs

Region of Interest Statistics

CPU 0 cumulative IPC: 1.04348 instructions: 1500000001 cycles: 1437501100
cpu0_DTLB TOTAL     ACCESS:  270778761  HIT:  157759385  MISS:  113019376
cpu0_DTLB LOAD      ACCESS:  192591443  HIT:   81906628  MISS:  110684815
cpu0_DTLB RFO       ACCESS:   78187318  HIT:   75852757  MISS:    2334561
cpu0_DTLB PREFETCH  ACCESS:          0  HIT:          0  MISS:          0
cpu0_DTLB WRITEBACK ACCESS:          0  HIT:          0  MISS:          0
cpu0_DTLB TRANSLATION ACCESS:          0  HIT:          0  MISS:          0
cpu0_DTLB PREFETCH  REQUESTED:          0  ISSUED:          0  USEFUL:          0  USELESS:          0
cpu0_DTLB AVERAGE MISS LATENCY: 9.91123 cycles
cpu0_ITLB TOTAL     ACCESS:   28563382  HIT:   28563332  MISS:         50
cpu0_ITLB LOAD      ACCESS:   28563382  HIT:   28563332  MISS:         50
cpu0_ITLB RFO       ACCESS:          0  HIT:          0  MISS:          0
cpu0_ITLB PREFETCH  ACCESS:          0  HIT:          0  MISS:          0
cpu0_ITLB WRITEBACK ACCESS:          0  HIT:          0  MISS:          0
cpu0_ITLB TRANSLATION ACCESS:          0  HIT:          0  MISS:          0
cpu0_ITLB PREFETCH  REQUESTED:          0  ISSUED:          0  USEFUL:          0  USELESS:          0
cpu0_ITLB AVERAGE MISS LATENCY: 228.48 cycles
cpu0_L1I TOTAL     ACCESS:  150753490  HIT:  150736120  MISS:      17370
cpu0_L1I LOAD      ACCESS:  150753490  HIT:  150736120  MISS:      17370
cpu0_L1I RFO       ACCESS:          0  HIT:          0  MISS:          0
cpu0_L1I PREFETCH  ACCESS:          0  HIT:          0  MISS:          0
cpu0_L1I WRITEBACK ACCESS:          0  HIT:          0  MISS:          0
cpu0_L1I TRANSLATION ACCESS:          0  HIT:          0  MISS:          0
cpu0_L1I PREFETCH  REQUESTED:          0  ISSUED:          0  USEFUL:          0  USELESS:          0
cpu0_L1I AVERAGE MISS LATENCY: 24.8841 cycles
cpu0_STLB TOTAL     ACCESS:  113019426  HIT:  112836384  MISS:     183042
cpu0_STLB LOAD      ACCESS:  110684865  HIT:  110501860  MISS:     183005
cpu0_STLB RFO       ACCESS:    2334561  HIT:    2334524  MISS:         37
cpu0_STLB PREFETCH  ACCESS:          0  HIT:          0  MISS:          0
cpu0_STLB WRITEBACK ACCESS:          0  HIT:          0  MISS:          0
cpu0_STLB TRANSLATION ACCESS:          0  HIT:          0  MISS:          0
cpu0_STLB PREFETCH  REQUESTED:          0  ISSUED:          0  USEFUL:          0  USELESS:          0
cpu0_STLB AVERAGE MISS LATENCY: 259.664 cycles
cpu0_L1D TOTAL     ACCESS:  418946539  HIT:  247752846  MISS:  171193693
cpu0_L1D LOAD      ACCESS:  252277143  HIT:   86637177  MISS:  165639966
cpu0_L1D RFO       ACCESS:  166488498  HIT:  161097201  MISS:    5391297
cpu0_L1D PREFETCH  ACCESS:          0  HIT:          0  MISS:          0
cpu0_L1D WRITEBACK ACCESS:          0  HIT:          0  MISS:          0
cpu0_L1D TRANSLATION ACCESS:     180898  HIT:      18468  MISS:     162430
cpu0_L1D PREFETCH  REQUESTED:          0  ISSUED:          0  USEFUL:          0  USELESS:          0
cpu0_L1D AVERAGE MISS LATENCY: 84.2451 cycles
cpu0_L2C TOTAL     ACCESS:  180574283  HIT:  123775713  MISS:   56798570
cpu0_L2C LOAD      ACCESS:  165643526  HIT:  110661119  MISS:   54982407
cpu0_L2C RFO       ACCESS:    5366068  HIT:    3676876  MISS:    1689192
cpu0_L2C PREFETCH  ACCESS:          0  HIT:          0  MISS:          0
cpu0_L2C WRITEBACK ACCESS:    9402259  HIT:    9373778  MISS:      28481
cpu0_L2C TRANSLATION ACCESS:     162430  HIT:      63940  MISS:      98490
cpu0_L2C PREFETCH  REQUESTED:          0  ISSUED:          0  USEFUL:          0  USELESS:          0
cpu0_L2C AVERAGE MISS LATENCY: 216.992 cycles
LLC TOTAL     ACCESS:   61470668  HIT:   49956993  MISS:   11513675
LLC LOAD      ACCESS:   54852731  HIT:   43340816  MISS:   11511915
LLC RFO       ACCESS:    1665154  HIT:    1664045  MISS:       1109
LLC PREFETCH  ACCESS:          0  HIT:          0  MISS:          0
LLC WRITEBACK ACCESS:    4854293  HIT:    4853707  MISS:        586
LLC TRANSLATION ACCESS:      98490  HIT:      98425  MISS:         65
LLC PREFETCH  REQUESTED:          0  ISSUED:          0  USEFUL:          0  USELESS:          0
LLC AVERAGE MISS LATENCY: 967.16 cycles
~~~~~~~~~~Reuse Distance Profiler output~~~~~~~~~~
0	0	0
1	0	0
2	0	0
3	0	0
4	0	0
5	0	0
6	0	0
7	0	0
8	0	0
9	0	0
10	0	0
11	0	0
12	0	0
13	0	0
14	0	0
15	0	0
16	0	0
17	0	0
18	0	0
19	0	0
20	0	0
21	0	0
22	0	0
23	0	0
24	0	0
25	0	0
26	0	0
27	0	0
28	0	0
29	0	0
30	0	0
31	0	0
32	0	0
33	0	0
34	0	0
35	0	0
36	0	0
37	0	0
38	0	0
39	0	0
40	0	0
41	0	0
42	0	0
43	0	0
44	0	0
45	0	0
46	0	0
47	0	0
48	0	0
49	0	0
50	0	0
51	0	0
52	0	0
53	0	0
54	0	0
55	0	0
56	0	0
57	0	0
58	0	0
59	0	0
60	0	0
61	0	0
62	0	0
63	0	0
64	0	0
66	0	0
68	0	0
70	0	0
72	0	0
74	0	0
76	0	0
78	0	0
80	0	0
82	0	0
84	0	0
86	0	0
88	0	0
90	0	0
92	0	0
94	0	0
96	0	0
98	0	0
100	0	0
102	0	0
104	0	0
106	0	0
108	0	0
110	0	0
112	0	0
114	0	0
116	0	0
118	0	0
120	0	0
122	0	0
124	0	0
126	0	0
128	0	0
132	0	0
136	0	0
140	0	0
144	0	0
148	0	0
152	0	0
156	0	0
160	0	0
164	0	0
168	0	0
172	0	0
176	0	0
180	0	0
184	0	0
188	0	0
192	0	0
196	0	0
200	0	0
204	0	0
208	0	0
212	0	0
216	0	0
220	0	0
224	0	0
228	0	0
232	0	0
236	0	0
240	0	0
244	0	0
248	0	0
252	0	0
256	0	0
264	0	0
272	0	0
280	0	0
288	0	0
296	0	0
304	0	0
312	0	0
320	0	0
328	0	0
336	0	0
344	0	0
352	0	0
360	0	0
368	0	0
376	0	0
384	0	0
392	0	0
400	0	0
408	0	0
416	0	0
424	0	0
432	0	0
440	0	0
448	0	0
456	0	0
464	0	0
472	0	0
480	0	0
488	0	0
496	0	0
504	0	0
512	0	0
528	0	0
544	0	0
560	0	0
576	0	0
592	0	0
608	0	0
624	0	0
640	0	0
656	0	0
672	0	0
688	0	0
704	0	0
720	0	0
736	0	0
752	0	0
768	0	0
784	0	0
800	0	0
816	0	0
832	0	0
848	0	0
864	0	0
880	0	0
896	0	0
912	0	0
928	0	0
944	0	0
960	0	0
976	0	0
992	0	0
1008	0	0
1024	0	0
1056	0	0
1088	0	0
1120	0	0
1152	0	0
1184	0	0
1216	0	0
1248	0	0
1280	0	0
1312	0	0
1344	0	0
1376	0	0
1408	0	0
1440	0	0
1472	0	0
1504	0	0
1536	0	0
1568	0	0
1600	0	0
1632	0	0
1664	0	0
1696	0	0
1728	0	0
1760	0	0
1792	0	0
1824	0	0
1856	0	0
1888	0	0
1920	0	0
1952	0	0
1984	0	0
2016	0	0
2048	0	0
2112	0	0
2176	0	0
2240	0	0
2304	0	0
2368	0	0
2432	0	0
2496	0	0
2560	0	0
2624	0	0
2688	0	0
2752	0	0
2816	0	0
2880	0	0
2944	0	0
3008	0	0
3072	0	0
3136	0	0
3200	0	0
3264	0	0
3328	0	0
3392	0	0
3456	0	0
3520	0	0
3584	0	0
3648	0	0
3712	0	0
3776	0	0
3840	0	0
3904	0	0
3968	0	0
4032	0	0
4096	0	0
4224	0	0
4352	0	0
4480	0	0
4608	0	0
4736	0	0
4864	0	0
4992	0	0
5120	0	0
5248	0	0
5376	0	0
5504	0	0
5632	0	0
5760	0	0
5888	0	0
6016	0	0
6144	0	0
6272	0	0
6400	0	0
6528	0	0
6656	0	0
6784	0	0
6912	0	0
7040	0	0
7168	0	0
7296	0	0
7424	0	0
7552	0	0
7680	0	0
7808	0	0
7936	0	0
8064	0	0
8192	0	0
8448	0	0
8704	0	0
8960	0	0
9216	0	0
9472	0	0
9728	0	0
9984	0	0
10240	0	0
10496	0	0
10752	0	0
11008	0	0
11264	0	0
11520	0	0
11776	0	0
12032	0	0
12288	0	0
12544	0	0
12800	0	0
13056	0	0
13312	0	0
13568	0	0
13824	0	0
14080	0	0
14336	0	0
14592	0	0
14848	0	0
15104	0	0
15360	0	0
15616	0	0
15872	0	0
16128	0	0
16384	0	0
16896	0	0
17408	0	0
17920	0	0
18432	0	0
18944	0	0
19456	0	0
19968	0	0
20480	0	0
20992	0	0
21504	0	0
22016	0	0
22528	0	0
23040	0	0
23552	0	0
24064	0	0
24576	0	0
25088	0	0
25600	0	0
26112	0	0
26624	0	0
27136	0	0
27648	0	0
28160	0	0
28672	0	0
29184	0	0
29696	0	0
30208	0	0
30720	0	0
31232	0	0
31744	0	0
32256	0	0
32768	0	0
33792	0	0
34816	0	0
35840	0	0
36864	0	0
37888	0	0
38912	0	0
39936	0	0
40960	0	0
41984	0	0
43008	0	0
44032	0	0
45056	0	0
46080	0	0
47104	0	0
48128	0	0
49152	0	0
50176	0	0
51200	0	0
52224	0	0
53248	0	0
54272	0	0
55296	0	0
56320	0	0
57344	0	0
58368	0	0
59392	0	0
60416	0	0
61440	0	0
62464	0	0
63488	0	0
64512	0	0
65536	0	0
67584	0	0
69632	0	0
71680	0	0
73728	0	0
75776	0	0
77824	0	0
79872	0	0
81920	0	0
83968	0	0
86016	0	0
88064	0	0
90112	0	0
92160	0	0
94208	0	0
96256	0	0
98304	0	0
100352	0	0
102400	0	0
104448	0	0
106496	0	0
108544	0	0
110592	0	0
112640	0	0
114688	0	0
116736	0	0
118784	0	0
120832	0	0
122880	0	0
124928	0	0
126976	0	0
129024	0	0
131072	0	0
135168	0	0
139264	0	0
143360	0	0
147456	0	0
151552	0	0
155648	0	0
159744	0	0
163840	0	0
167936	0	0
172032	0	0
176128	0	0
180224	0	0
184320	0	0
188416	0	0
192512	0	0
196608	0	0
200704	0	0
204800	0	0
208896	0	0
212992	0	0
217088	0	0
221184	0	0
225280	0	0
229376	0	0
233472	0	0
237568	0	0
241664	0	0
245760	0	0
249856	0	0
253952	0	0
258048	0	0
262144	0	0
270336	0	0
278528	0	0
286720	0	0
294912	0	0
303104	0	0
311296	0	0
319488	0	0
327680	0	0
335872	0	0
344064	0	0
352256	0	0
360448	0	0
368640	0	0
376832	0	0
385024	0	0
393216	0	0
401408	0	0
409600	0	0
417792	0	0
425984	0	0
434176	0	0
442368	0	0
450560	0	0
458752	0	0
466944	0	0
475136	0	0
483328	0	0
491520	0	0
499712	0	0
507904	0	0
516096	0	0
524288	0	0
540672	0	0
557056	0	0
573440	0	0
589824	0	0
606208	0	0
622592	0	0
638976	0	0
655360	0	0
671744	0	0
688128	0	0
704512	0	0
720896	0	0
737280	0	0
753664	0	0
770048	0	0
786432	0	0
802816	0	0
819200	0	0
835584	0	0
851968	0	0
868352	0	0
884736	0	0
901120	0	0
917504	0	0
933888	0	0
950272	0	0
966656	0	0
983040	0	0
999424	0	0
1015808	0	0
1032192	0	0
1048576	0	0
1081344	0	0
1114112	0	0
1146880	0	0
1179648	0	0
1212416	0	0
1245184	0	0
1277952	0	0
1310720	0	0
1343488	0	0
1376256	0	0
1409024	0	0
1441792	0	0
1474560	0	0
1507328	0	0
1540096	0	0
1572864	0	0
1605632	0	0
1638400	0	0
1671168	0	0
1703936	0	0
1736704	0	0
1769472	0	0
1802240	0	0
1835008	0	0
1867776	0	0
1900544	0	0
1933312	0	0
1966080	0	0
1998848	0	0
2031616	0	0
2064384	0	0
2097152	0	0
2162688	0	0
2228224	0	0
2293760	0	0
2359296	0	0
2424832	0	0
2490368	0	0
2555904	0	0
2621440	0	0
2686976	0	0
2752512	0	0
2818048	0	0
2883584	0	0
2949120	0	0
3014656	0	0
3080192	0	0
3145728	0	0
3211264	0	0
3276800	0	0
3342336	0	0
3407872	0	0
3473408	0	0
3538944	0	0
3604480	0	0
3670016	0	0
3735552	0	0
3801088	0	0
3866624	0	0
3932160	0	0
3997696	0	0
4063232	0	0
4128768	0	0
4194304	0	0
4325376	0	0
4456448	0	0
4587520	0	0
4718592	0	0
4849664	0	0
4980736	0	0
5111808	0	0
5242880	0	0
5373952	0	0
5505024	0	0
5636096	0	0
5767168	0	0
5898240	0	0
6029312	0	0
6160384	0	0
6291456	0	0
6422528	0	0
6553600	0	0
6684672	0	0
6815744	0	0
6946816	0	0
7077888	0	0
7208960	0	0
7340032	0	0
7471104	0	0
7602176	0	0
7733248	0	0
7864320	0	0
7995392	0	0
8126464	0	0
8257536	0	0
8388608	0	0
8650752	0	0
8912896	0	0
9175040	0	0
9437184	0	0
9699328	0	0
9961472	0	0
10223616	0	0
10485760	0	0
10747904	0	0
11010048	0	0
11272192	0	0
11534336	0	0
11796480	0	0
12058624	0	0
12320768	0	0
12582912	0	0
12845056	0	0
13107200	0	0
13369344	0	0
13631488	0	0
13893632	0	0
14155776	0	0
14417920	0	0
14680064	0	0
14942208	0	0
15204352	0	0
15466496	0	0
15728640	0	0
15990784	0	0
16252928	0	0
16515072	0	0
16777216	0	0
17301504	0	0
17825792	0	0
18350080	0	0
18874368	0	0
19398656	0	0
19922944	0	0
20447232	0	0
20971520	0	0
21495808	0	0
22020096	0	0
22544384	0	0
23068672	0	0
23592960	0	0
24117248	0	0
24641536	0	0
25165824	0	0
25690112	0	0
26214400	0	0
26738688	0	0
27262976	0	0
27787264	0	0
28311552	0	0
28835840	0	0
29360128	0	0
29884416	0	0
30408704	0	0
30932992	0	0
31457280	0	0
31981568	0	0
32505856	0	0
33030144	0	0
33554432	0	0
34603008	0	0
35651584	0	0
36700160	0	0
37748736	0	0
38797312	0	0
39845888	0	0
40894464	0	0
41943040	0	0
42991616	0	0
44040192	0	0
45088768	0	0
46137344	0	0
47185920	0	0
48234496	0	0
49283072	0	0
50331648	0	0
51380224	0	0
52428800	0	0
53477376	0	0
54525952	0	0
55574528	0	0
56623104	0	0
57671680	0	0
58720256	0	0
59768832	0	0
60817408	0	0
61865984	0	0
62914560	0	0
63963136	0	0
65011712	0	0
66060288	0	0
67108864	0	0
69206016	0	0
71303168	0	0
73400320	0	0
75497472	0	0
77594624	0	0
79691776	0	0
81788928	0	0
83886080	0	0
85983232	0	0
88080384	0	0
90177536	0	0
92274688	0	0
94371840	0	0
96468992	0	0
98566144	0	0
100663296	0	0
102760448	0	0
104857600	0	0
106954752	0	0
109051904	0	0
111149056	0	0
113246208	0	0
115343360	0	0
117440512	0	0
119537664	0	0
121634816	0	0
123731968	0	0
125829120	0	0
127926272	0	0
130023424	0	0
132120576	0	0
134217728	0	0
138412032	0	0
142606336	0	0
146800640	0	0
150994944	0	0
155189248	0	0
159383552	0	0
163577856	0	0
167772160	0	0
171966464	0	0
176160768	0	0
180355072	0	0
184549376	0	0
188743680	0	0
192937984	0	0
197132288	0	0
201326592	0	0
205520896	0	0
209715200	0	0
213909504	0	0
218103808	0	0
222298112	0	0
226492416	0	0
230686720	0	0
234881024	0	0
239075328	0	0
243269632	0	0
247463936	0	0
251658240	0	0
255852544	0	0
260046848	0	0
264241152	0	0
268435456	0	0
276824064	0	0
285212672	0	0
293601280	0	0
301989888	0	0
310378496	0	0
318767104	0	0
327155712	0	0
335544320	0	0
343932928	0	0
352321536	0	0
360710144	0	0
369098752	0	0
377487360	0	0
385875968	0	0
394264576	0	0
402653184	0	0
411041792	0	0
419430400	0	0
427819008	0	0
436207616	0	0
444596224	0	0
452984832	0	0
461373440	0	0
469762048	0	0
478150656	0	0
486539264	0	0
494927872	0	0
503316480	0	0
511705088	0	0
520093696	0	0
528482304	0	0
536870912	0	0
553648128	0	0
570425344	0	0
587202560	0	0
603979776	0	0
620756992	0	0
637534208	0	0
654311424	0	0
671088640	0	0
687865856	0	0
704643072	0	0
721420288	0	0
738197504	0	0
754974720	0	0
771751936	0	0
788529152	0	0
805306368	0	0
822083584	0	0
838860800	0	0
855638016	0	0
872415232	0	0
889192448	0	0
905969664	0	0
922746880	0	0
939524096	0	0
956301312	0	0
973078528	0	0
989855744	0	0
1006632960	0	0
1023410176	0	0
1040187392	0	0
1056964608	0	0
1073741824	0	0
1107296256	0	0
1140850688	0	0
1174405120	0	0
1207959552	0	0
1241513984	0	0
1275068416	0	0
1308622848	0	0
1342177280	0	0
1375731712	0	0
1409286144	0	0
1442840576	0	0
1476395008	0	0
1509949440	0	0
1543503872	0	0
1577058304	0	0
1610612736	0	0
1644167168	0	0
1677721600	0	0
1711276032	0	0
1744830464	0	0
1778384896	0	0
1811939328	0	0
1845493760	0	0
1879048192	0	0
1912602624	0	0
1946157056	0	0
1979711488	0	0
2013265920	0	0
2046820352	0	0
2080374784	0	0
2113929216	0	0
2147483648	0	0
2214592512	0	0
2281701376	0	0
2348810240	0	0
2415919104	0	0
2483027968	0	0
2550136832	0	0
2617245696	0	0
2684354560	0	0
2751463424	0	0
2818572288	0	0
2885681152	0	0
2952790016	0	0
3019898880	0	0
3087007744	0	0
3154116608	0	0
3221225472	0	0
3288334336	0	0
3355443200	0	0
3422552064	0	0
3489660928	0	0
3556769792	0	0
3623878656	0	0
3690987520	0	0
3758096384	0	0
3825205248	0	0
3892314112	0	0
3959422976	0	0
4026531840	0	0
4093640704	0	0
4160749568	0	0
4227858432	0	0
~~~~~~~~~~Reuse Distance Profiler output end~~~~~~~~~~

Sampler size:0

DRAM Statistics
 CHANNEL 0
 RQ ROW_BUFFER_HIT:        362  ROW_BUFFER_MISS:   11512725
 DBUS AVG_CONGESTED_CYCLE:    3.99993
 WQ ROW_BUFFER_HIT:       2149  ROW_BUFFER_MISS:    1437329  FULL:          0


CPU 0 Branch Prediction Accuracy: 99.5642% MPKI: 0.005288 Average ROB Occupancy at Mispredict: 244.645
Branch type MPKI
BRANCH_DIRECT_JUMP: 2e-05
BRANCH_INDIRECT: 5.66667e-05
BRANCH_CONDITIONAL: 0.004488
BRANCH_DIRECT_CALL: 0.000413333
BRANCH_INDIRECT_CALL: 2e-06
BRANCH_RETURN: 0.000308

