
*** ChampSim Multicore Out-of-Order Simulator ***

Warmup Instructions: 50000000
Simulation Instructions: 1500000000
Number of CPUs: 1
Off-chip DRAM Size: 4 GiB Channels: 1 Width: 64-bit Data Rate: 3200 MT/s

VirtualMemory physical capacity: 8588881920 num_ppages: 2096895
VirtualMemory page size: 4096 log2_page_size: 12

CPU 0 runs /s/traces/champsim_traces/625.x264_s-20B.champsimtrace.xz
CPU 0 Bimodal branch predictor
Basic BTB sets: 1024 ways: 8 indirect buffer size: 4096 RAS size: 64
Initializing LRU.
Initializing LRU.
Initializing LRU.
Initializing LRU.
Initializing rdLRU.
Initializing LRU.
Initializing LRU.
Heartbeat CPU 0 instructions: 2000000 cycles: 680923 heartbeat IPC: 2.93719 cumulative IPC: 2.93719 (Simulation time: 0 hr 1 min 22 sec) 
Heartbeat CPU 0 instructions: 4000000 cycles: 1204092 heartbeat IPC: 3.82286 cumulative IPC: 3.32201 (Simulation time: 0 hr 2 min 13 sec) 
Heartbeat CPU 0 instructions: 6000000 cycles: 1704092 heartbeat IPC: 4 cumulative IPC: 3.52094 (Simulation time: 0 hr 3 min 5 sec) 
Heartbeat CPU 0 instructions: 8000000 cycles: 2204092 heartbeat IPC: 4 cumulative IPC: 3.62961 (Simulation time: 0 hr 3 min 56 sec) 
Heartbeat CPU 0 instructions: 10000002 cycles: 2712363 heartbeat IPC: 3.93491 cumulative IPC: 3.68682 (Simulation time: 0 hr 4 min 47 sec) 
Heartbeat CPU 0 instructions: 12000003 cycles: 3222880 heartbeat IPC: 3.9176 cumulative IPC: 3.72338 (Simulation time: 0 hr 5 min 39 sec) 
Heartbeat CPU 0 instructions: 14000000 cycles: 3734850 heartbeat IPC: 3.90647 cumulative IPC: 3.74848 (Simulation time: 0 hr 6 min 37 sec) 
Heartbeat CPU 0 instructions: 16000000 cycles: 4246721 heartbeat IPC: 3.90723 cumulative IPC: 3.76761 (Simulation time: 0 hr 7 min 33 sec) 
Heartbeat CPU 0 instructions: 18000001 cycles: 4757959 heartbeat IPC: 3.91207 cumulative IPC: 3.78313 (Simulation time: 0 hr 8 min 34 sec) 
Heartbeat CPU 0 instructions: 20000001 cycles: 5269675 heartbeat IPC: 3.90842 cumulative IPC: 3.7953 (Simulation time: 0 hr 9 min 34 sec) 
Heartbeat CPU 0 instructions: 22000001 cycles: 5781499 heartbeat IPC: 3.90759 cumulative IPC: 3.80524 (Simulation time: 0 hr 10 min 36 sec) 
Heartbeat CPU 0 instructions: 24000000 cycles: 6293175 heartbeat IPC: 3.90872 cumulative IPC: 3.81366 (Simulation time: 0 hr 11 min 37 sec) 
Heartbeat CPU 0 instructions: 26000000 cycles: 6804497 heartbeat IPC: 3.91143 cumulative IPC: 3.821 (Simulation time: 0 hr 12 min 43 sec) 
Heartbeat CPU 0 instructions: 28000000 cycles: 7316054 heartbeat IPC: 3.90963 cumulative IPC: 3.8272 (Simulation time: 0 hr 13 min 46 sec) 
Heartbeat CPU 0 instructions: 30000000 cycles: 7827916 heartbeat IPC: 3.9073 cumulative IPC: 3.83244 (Simulation time: 0 hr 14 min 49 sec) 
Heartbeat CPU 0 instructions: 32000003 cycles: 8340056 heartbeat IPC: 3.90519 cumulative IPC: 3.83691 (Simulation time: 0 hr 15 min 54 sec) 
Heartbeat CPU 0 instructions: 34000000 cycles: 8852542 heartbeat IPC: 3.90254 cumulative IPC: 3.8407 (Simulation time: 0 hr 16 min 57 sec) 
Heartbeat CPU 0 instructions: 36000004 cycles: 9364333 heartbeat IPC: 3.90785 cumulative IPC: 3.84437 (Simulation time: 0 hr 17 min 58 sec) 
Heartbeat CPU 0 instructions: 38000001 cycles: 9876067 heartbeat IPC: 3.90827 cumulative IPC: 3.84769 (Simulation time: 0 hr 18 min 58 sec) 
Heartbeat CPU 0 instructions: 40000002 cycles: 10387543 heartbeat IPC: 3.91025 cumulative IPC: 3.85077 (Simulation time: 0 hr 19 min 58 sec) 
Heartbeat CPU 0 instructions: 42000002 cycles: 10899237 heartbeat IPC: 3.90859 cumulative IPC: 3.85348 (Simulation time: 0 hr 20 min 58 sec) 
Heartbeat CPU 0 instructions: 44000000 cycles: 11410953 heartbeat IPC: 3.90841 cumulative IPC: 3.85594 (Simulation time: 0 hr 21 min 57 sec) 
Heartbeat CPU 0 instructions: 46000001 cycles: 11922505 heartbeat IPC: 3.90967 cumulative IPC: 3.85825 (Simulation time: 0 hr 22 min 56 sec) 
Heartbeat CPU 0 instructions: 48000001 cycles: 12433844 heartbeat IPC: 3.9113 cumulative IPC: 3.86043 (Simulation time: 0 hr 23 min 55 sec) 
Heartbeat CPU 0 instructions: 50000004 cycles: 12945335 heartbeat IPC: 3.91014 cumulative IPC: 3.8624 (Simulation time: 0 hr 24 min 55 sec) 

Warmup complete CPU 0 instructions: 50000004 cycles: 12945335 (Simulation time: 0 hr 24 min 55 sec) 

Heartbeat CPU 0 instructions: 52000002 cycles: 13791419 heartbeat IPC: 2.36383 cumulative IPC: 2.36383 (Simulation time: 0 hr 26 min 3 sec) 

Region of Interest Statistics
cpu0_DTLB TOTAL     ACCESS:     263504  HIT:     255772  MISS:       7732
cpu0_DTLB LOAD      ACCESS:     167371  HIT:     161917  MISS:       5454
cpu0_DTLB RFO       ACCESS:      96133  HIT:      93855  MISS:       2278
cpu0_DTLB PREFETCH  ACCESS:          0  HIT:          0  MISS:          0
cpu0_DTLB WRITEBACK ACCESS:          0  HIT:          0  MISS:          0
cpu0_ITLB TOTAL     ACCESS:     108172  HIT:     108172  MISS:          0
cpu0_ITLB LOAD      ACCESS:     108172  HIT:     108172  MISS:          0
cpu0_ITLB RFO       ACCESS:          0  HIT:          0  MISS:          0
cpu0_ITLB PREFETCH  ACCESS:          0  HIT:          0  MISS:          0
cpu0_ITLB WRITEBACK ACCESS:          0  HIT:          0  MISS:          0
cpu0_L1I TOTAL     ACCESS:     107084  HIT:     103344  MISS:       3740
cpu0_L1I LOAD      ACCESS:     107084  HIT:     103344  MISS:       3740
cpu0_L1I RFO       ACCESS:          0  HIT:          0  MISS:          0
cpu0_L1I PREFETCH  ACCESS:          0  HIT:          0  MISS:          0
cpu0_L1I WRITEBACK ACCESS:          0  HIT:          0  MISS:          0
cpu0_STLB TOTAL     ACCESS:       7732  HIT:       7678  MISS:         54
cpu0_STLB LOAD      ACCESS:       5454  HIT:       5412  MISS:         42
cpu0_STLB RFO       ACCESS:       2278  HIT:       2266  MISS:         12
cpu0_STLB PREFETCH  ACCESS:          0  HIT:          0  MISS:          0
cpu0_STLB WRITEBACK ACCESS:          0  HIT:          0  MISS:          0
cpu0_L1D TOTAL     ACCESS:     364628  HIT:     357507  MISS:       7121
cpu0_L1D LOAD      ACCESS:     160179  HIT:     155025  MISS:       5154
cpu0_L1D RFO       ACCESS:     204400  HIT:     202443  MISS:       1957
cpu0_L1D PREFETCH  ACCESS:          0  HIT:          0  MISS:          0
cpu0_L1D WRITEBACK ACCESS:          0  HIT:          0  MISS:          0
cpu0_L2C TOTAL     ACCESS:      12842  HIT:       9564  MISS:       3278
cpu0_L2C LOAD      ACCESS:       8894  HIT:       6578  MISS:       2316
cpu0_L2C RFO       ACCESS:       1898  HIT:        958  MISS:        940
cpu0_L2C PREFETCH  ACCESS:          0  HIT:          0  MISS:          0
cpu0_L2C WRITEBACK ACCESS:       2040  HIT:       2020  MISS:         20
LLC TOTAL     ACCESS:       4201  HIT:       1426  MISS:       2775
LLC LOAD      ACCESS:       2316  HIT:        439  MISS:       1877
LLC RFO       ACCESS:        940  HIT:         49  MISS:        891
LLC PREFETCH  ACCESS:          0  HIT:          0  MISS:          0
LLC WRITEBACK ACCESS:        943  HIT:        936  MISS:          7
Heartbeat CPU 0 instructions: 54000000 cycles: 14639398 heartbeat IPC: 2.35855 cumulative IPC: 2.36118 (Simulation time: 0 hr 27 min 13 sec) 

Region of Interest Statistics
cpu0_DTLB TOTAL     ACCESS:     525113  HIT:     510049  MISS:      15064
cpu0_DTLB LOAD      ACCESS:     334596  HIT:     324154  MISS:      10442
cpu0_DTLB RFO       ACCESS:     190517  HIT:     185895  MISS:       4622
cpu0_DTLB PREFETCH  ACCESS:          0  HIT:          0  MISS:          0
cpu0_DTLB WRITEBACK ACCESS:          0  HIT:          0  MISS:          0
cpu0_ITLB TOTAL     ACCESS:     216555  HIT:     216555  MISS:          0
cpu0_ITLB LOAD      ACCESS:     216555  HIT:     216555  MISS:          0
cpu0_ITLB RFO       ACCESS:          0  HIT:          0  MISS:          0
cpu0_ITLB PREFETCH  ACCESS:          0  HIT:          0  MISS:          0
cpu0_ITLB WRITEBACK ACCESS:          0  HIT:          0  MISS:          0
cpu0_L1I TOTAL     ACCESS:     213742  HIT:     205618  MISS:       8124
cpu0_L1I LOAD      ACCESS:     213742  HIT:     205618  MISS:       8124
cpu0_L1I RFO       ACCESS:          0  HIT:          0  MISS:          0
cpu0_L1I PREFETCH  ACCESS:          0  HIT:          0  MISS:          0
cpu0_L1I WRITEBACK ACCESS:          0  HIT:          0  MISS:          0
cpu0_STLB TOTAL     ACCESS:      15064  HIT:      14931  MISS:        133
cpu0_STLB LOAD      ACCESS:      10442  HIT:      10331  MISS:        111
cpu0_STLB RFO       ACCESS:       4622  HIT:       4600  MISS:         22
cpu0_STLB PREFETCH  ACCESS:          0  HIT:          0  MISS:          0
cpu0_STLB WRITEBACK ACCESS:          0  HIT:          0  MISS:          0
cpu0_L1D TOTAL     ACCESS:     725448  HIT:     710475  MISS:      14973
cpu0_L1D LOAD      ACCESS:     319711  HIT:     308889  MISS:      10822
cpu0_L1D RFO       ACCESS:     405616  HIT:     401487  MISS:       4129
cpu0_L1D PREFETCH  ACCESS:          0  HIT:          0  MISS:          0
cpu0_L1D WRITEBACK ACCESS:          0  HIT:          0  MISS:          0
cpu0_L2C TOTAL     ACCESS:      27282  HIT:      20588  MISS:       6694
cpu0_L2C LOAD      ACCESS:      18946  HIT:      14132  MISS:       4814
cpu0_L2C RFO       ACCESS:       4015  HIT:       2185  MISS:       1830
cpu0_L2C PREFETCH  ACCESS:          0  HIT:          0  MISS:          0
cpu0_L2C WRITEBACK ACCESS:       4299  HIT:       4258  MISS:         41
LLC TOTAL     ACCESS:       8572  HIT:       3118  MISS:       5454
LLC LOAD      ACCESS:       4814  HIT:       1115  MISS:       3699
LLC RFO       ACCESS:       1830  HIT:         84  MISS:       1746
LLC PREFETCH  ACCESS:          0  HIT:          0  MISS:          0
LLC WRITEBACK ACCESS:       1919  HIT:       1912  MISS:          7
Heartbeat CPU 0 instructions: 56000004 cycles: 15482042 heartbeat IPC: 2.37349 cumulative IPC: 2.36527 (Simulation time: 0 hr 28 min 22 sec) 

Region of Interest Statistics
cpu0_DTLB TOTAL     ACCESS:     789117  HIT:     767022  MISS:      22095
cpu0_DTLB LOAD      ACCESS:     503384  HIT:     488296  MISS:      15088
cpu0_DTLB RFO       ACCESS:     285733  HIT:     278726  MISS:       7007
cpu0_DTLB PREFETCH  ACCESS:          0  HIT:          0  MISS:          0
cpu0_DTLB WRITEBACK ACCESS:          0  HIT:          0  MISS:          0
cpu0_ITLB TOTAL     ACCESS:     324744  HIT:     324744  MISS:          0
cpu0_ITLB LOAD      ACCESS:     324744  HIT:     324744  MISS:          0
cpu0_ITLB RFO       ACCESS:          0  HIT:          0  MISS:          0
cpu0_ITLB PREFETCH  ACCESS:          0  HIT:          0  MISS:          0
cpu0_ITLB WRITEBACK ACCESS:          0  HIT:          0  MISS:          0
cpu0_L1I TOTAL     ACCESS:     320778  HIT:     308315  MISS:      12463
cpu0_L1I LOAD      ACCESS:     320778  HIT:     308315  MISS:      12463
cpu0_L1I RFO       ACCESS:          0  HIT:          0  MISS:          0
cpu0_L1I PREFETCH  ACCESS:          0  HIT:          0  MISS:          0
cpu0_L1I WRITEBACK ACCESS:          0  HIT:          0  MISS:          0
cpu0_STLB TOTAL     ACCESS:      22095  HIT:      21897  MISS:        198
cpu0_STLB LOAD      ACCESS:      15088  HIT:      14929  MISS:        159
cpu0_STLB RFO       ACCESS:       7007  HIT:       6968  MISS:         39
cpu0_STLB PREFETCH  ACCESS:          0  HIT:          0  MISS:          0
cpu0_STLB WRITEBACK ACCESS:          0  HIT:          0  MISS:          0
cpu0_L1D TOTAL     ACCESS:    1089804  HIT:    1068878  MISS:      20926
cpu0_L1D LOAD      ACCESS:     480949  HIT:     465901  MISS:      15048
cpu0_L1D RFO       ACCESS:     608675  HIT:     602834  MISS:       5841
cpu0_L1D PREFETCH  ACCESS:          0  HIT:          0  MISS:          0
cpu0_L1D WRITEBACK ACCESS:          0  HIT:          0  MISS:          0
cpu0_L2C TOTAL     ACCESS:      39305  HIT:      29734  MISS:       9571
cpu0_L2C LOAD      ACCESS:      27511  HIT:      20714  MISS:       6797
cpu0_L2C RFO       ACCESS:       5689  HIT:       2978  MISS:       2711
cpu0_L2C PREFETCH  ACCESS:          0  HIT:          0  MISS:          0
cpu0_L2C WRITEBACK ACCESS:       6068  HIT:       6016  MISS:         52
LLC TOTAL     ACCESS:      12316  HIT:       4157  MISS:       8159
LLC LOAD      ACCESS:       6797  HIT:       1267  MISS:       5530
LLC RFO       ACCESS:       2711  HIT:         93  MISS:       2618
LLC PREFETCH  ACCESS:          0  HIT:          0  MISS:          0
LLC WRITEBACK ACCESS:       2797  HIT:       2788  MISS:          9
Heartbeat CPU 0 instructions: 58000004 cycles: 16321869 heartbeat IPC: 2.38144 cumulative IPC: 2.36929 (Simulation time: 0 hr 29 min 32 sec) 

Region of Interest Statistics
cpu0_DTLB TOTAL     ACCESS:    1050479  HIT:    1020994  MISS:      29485
cpu0_DTLB LOAD      ACCESS:     670118  HIT:     649877  MISS:      20241
cpu0_DTLB RFO       ACCESS:     380361  HIT:     371117  MISS:       9244
cpu0_DTLB PREFETCH  ACCESS:          0  HIT:          0  MISS:          0
cpu0_DTLB WRITEBACK ACCESS:          0  HIT:          0  MISS:          0
cpu0_ITLB TOTAL     ACCESS:     433075  HIT:     433075  MISS:          0
cpu0_ITLB LOAD      ACCESS:     433075  HIT:     433075  MISS:          0
cpu0_ITLB RFO       ACCESS:          0  HIT:          0  MISS:          0
cpu0_ITLB PREFETCH  ACCESS:          0  HIT:          0  MISS:          0
cpu0_ITLB WRITEBACK ACCESS:          0  HIT:          0  MISS:          0
cpu0_L1I TOTAL     ACCESS:     427584  HIT:     410759  MISS:      16825
cpu0_L1I LOAD      ACCESS:     427584  HIT:     410759  MISS:      16825
cpu0_L1I RFO       ACCESS:          0  HIT:          0  MISS:          0
cpu0_L1I PREFETCH  ACCESS:          0  HIT:          0  MISS:          0
cpu0_L1I WRITEBACK ACCESS:          0  HIT:          0  MISS:          0
cpu0_STLB TOTAL     ACCESS:      29485  HIT:      29236  MISS:        249
cpu0_STLB LOAD      ACCESS:      20241  HIT:      20041  MISS:        200
cpu0_STLB RFO       ACCESS:       9244  HIT:       9195  MISS:         49
cpu0_STLB PREFETCH  ACCESS:          0  HIT:          0  MISS:          0
cpu0_STLB WRITEBACK ACCESS:          0  HIT:          0  MISS:          0
cpu0_L1D TOTAL     ACCESS:    1451786  HIT:    1424383  MISS:      27403
cpu0_L1D LOAD      ACCESS:     641208  HIT:     621510  MISS:      19698
cpu0_L1D RFO       ACCESS:     810351  HIT:     802693  MISS:       7658
cpu0_L1D PREFETCH  ACCESS:          0  HIT:          0  MISS:          0
cpu0_L1D WRITEBACK ACCESS:          0  HIT:          0  MISS:          0
cpu0_L2C TOTAL     ACCESS:      51938  HIT:      39276  MISS:      12662
cpu0_L2C LOAD      ACCESS:      36523  HIT:      27572  MISS:       8951
cpu0_L2C RFO       ACCESS:       7467  HIT:       3836  MISS:       3631
cpu0_L2C PREFETCH  ACCESS:          0  HIT:          0  MISS:          0
cpu0_L2C WRITEBACK ACCESS:       7901  HIT:       7833  MISS:         68
LLC TOTAL     ACCESS:      16366  HIT:       5554  MISS:      10812
LLC LOAD      ACCESS:       8951  HIT:       1642  MISS:       7309
LLC RFO       ACCESS:       3631  HIT:        143  MISS:       3488
LLC PREFETCH  ACCESS:          0  HIT:          0  MISS:          0
LLC WRITEBACK ACCESS:       3772  HIT:       3759  MISS:         13
Heartbeat CPU 0 instructions: 60000003 cycles: 17172022 heartbeat IPC: 2.35252 cumulative IPC: 2.36592 (Simulation time: 0 hr 30 min 41 sec) 

Region of Interest Statistics
cpu0_DTLB TOTAL     ACCESS:    1312670  HIT:    1275603  MISS:      37067
cpu0_DTLB LOAD      ACCESS:     837083  HIT:     811915  MISS:      25168
cpu0_DTLB RFO       ACCESS:     475587  HIT:     463688  MISS:      11899
cpu0_DTLB PREFETCH  ACCESS:          0  HIT:          0  MISS:          0
cpu0_DTLB WRITEBACK ACCESS:          0  HIT:          0  MISS:          0
cpu0_ITLB TOTAL     ACCESS:     541494  HIT:     541494  MISS:          0
cpu0_ITLB LOAD      ACCESS:     541494  HIT:     541494  MISS:          0
cpu0_ITLB RFO       ACCESS:          0  HIT:          0  MISS:          0
cpu0_ITLB PREFETCH  ACCESS:          0  HIT:          0  MISS:          0
cpu0_ITLB WRITEBACK ACCESS:          0  HIT:          0  MISS:          0
cpu0_L1I TOTAL     ACCESS:     534475  HIT:     513402  MISS:      21073
cpu0_L1I LOAD      ACCESS:     534475  HIT:     513402  MISS:      21073
cpu0_L1I RFO       ACCESS:          0  HIT:          0  MISS:          0
cpu0_L1I PREFETCH  ACCESS:          0  HIT:          0  MISS:          0
cpu0_L1I WRITEBACK ACCESS:          0  HIT:          0  MISS:          0
cpu0_STLB TOTAL     ACCESS:      37067  HIT:      36728  MISS:        339
cpu0_STLB LOAD      ACCESS:      25168  HIT:      24899  MISS:        269
cpu0_STLB RFO       ACCESS:      11899  HIT:      11829  MISS:         70
cpu0_STLB PREFETCH  ACCESS:          0  HIT:          0  MISS:          0
cpu0_STLB WRITEBACK ACCESS:          0  HIT:          0  MISS:          0
cpu0_L1D TOTAL     ACCESS:    1815161  HIT:    1780659  MISS:      34502
cpu0_L1D LOAD      ACCESS:     801678  HIT:     776886  MISS:      24792
cpu0_L1D RFO       ACCESS:    1013179  HIT:    1003533  MISS:       9646
cpu0_L1D PREFETCH  ACCESS:          0  HIT:          0  MISS:          0
cpu0_L1D WRITEBACK ACCESS:          0  HIT:          0  MISS:          0
cpu0_L2C TOTAL     ACCESS:      65326  HIT:      49456  MISS:      15870
cpu0_L2C LOAD      ACCESS:      45865  HIT:      34650  MISS:      11215
cpu0_L2C RFO       ACCESS:       9433  HIT:       4886  MISS:       4547
cpu0_L2C PREFETCH  ACCESS:          0  HIT:          0  MISS:          0
cpu0_L2C WRITEBACK ACCESS:       9964  HIT:       9874  MISS:         90
LLC TOTAL     ACCESS:      20365  HIT:       6772  MISS:      13593
LLC LOAD      ACCESS:      11215  HIT:       2017  MISS:       9198
LLC RFO       ACCESS:       4547  HIT:        172  MISS:       4375
LLC PREFETCH  ACCESS:          0  HIT:          0  MISS:          0
LLC WRITEBACK ACCESS:       4585  HIT:       4567  MISS:         18
Heartbeat CPU 0 instructions: 62000004 cycles: 18015143 heartbeat IPC: 2.37214 cumulative IPC: 2.36695 (Simulation time: 0 hr 31 min 50 sec) 

Region of Interest Statistics
cpu0_DTLB TOTAL     ACCESS:    1577709  HIT:    1532969  MISS:      44740
cpu0_DTLB LOAD      ACCESS:    1004863  HIT:     974715  MISS:      30148
cpu0_DTLB RFO       ACCESS:     572846  HIT:     558254  MISS:      14592
cpu0_DTLB PREFETCH  ACCESS:          0  HIT:          0  MISS:          0
cpu0_DTLB WRITEBACK ACCESS:          0  HIT:          0  MISS:          0
cpu0_ITLB TOTAL     ACCESS:     649469  HIT:     649469  MISS:          0
cpu0_ITLB LOAD      ACCESS:     649469  HIT:     649469  MISS:          0
cpu0_ITLB RFO       ACCESS:          0  HIT:          0  MISS:          0
cpu0_ITLB PREFETCH  ACCESS:          0  HIT:          0  MISS:          0
cpu0_ITLB WRITEBACK ACCESS:          0  HIT:          0  MISS:          0
cpu0_L1I TOTAL     ACCESS:     642356  HIT:     617951  MISS:      24405
cpu0_L1I LOAD      ACCESS:     642356  HIT:     617951  MISS:      24405
cpu0_L1I RFO       ACCESS:          0  HIT:          0  MISS:          0
cpu0_L1I PREFETCH  ACCESS:          0  HIT:          0  MISS:          0
cpu0_L1I WRITEBACK ACCESS:          0  HIT:          0  MISS:          0
cpu0_STLB TOTAL     ACCESS:      44740  HIT:      44361  MISS:        379
cpu0_STLB LOAD      ACCESS:      30148  HIT:      29853  MISS:        295
cpu0_STLB RFO       ACCESS:      14592  HIT:      14508  MISS:         84
cpu0_STLB PREFETCH  ACCESS:          0  HIT:          0  MISS:          0
cpu0_STLB WRITEBACK ACCESS:          0  HIT:          0  MISS:          0
cpu0_L1D TOTAL     ACCESS:    2182297  HIT:    2140618  MISS:      41679
cpu0_L1D LOAD      ACCESS:     962086  HIT:     932086  MISS:      30000
cpu0_L1D RFO       ACCESS:    1219872  HIT:    1208266  MISS:      11606
cpu0_L1D PREFETCH  ACCESS:          0  HIT:          0  MISS:          0
cpu0_L1D WRITEBACK ACCESS:          0  HIT:          0  MISS:          0
cpu0_L2C TOTAL     ACCESS:      77809  HIT:      59078  MISS:      18731
cpu0_L2C LOAD      ACCESS:      54405  HIT:      41283  MISS:      13122
cpu0_L2C RFO       ACCESS:      11352  HIT:       5875  MISS:       5477
cpu0_L2C PREFETCH  ACCESS:          0  HIT:          0  MISS:          0
cpu0_L2C WRITEBACK ACCESS:      11979  HIT:      11872  MISS:        107
LLC TOTAL     ACCESS:      24115  HIT:       7768  MISS:      16347
LLC LOAD      ACCESS:      13122  HIT:       2103  MISS:      11019
LLC RFO       ACCESS:       5477  HIT:        175  MISS:       5302
LLC PREFETCH  ACCESS:          0  HIT:          0  MISS:          0
LLC WRITEBACK ACCESS:       5491  HIT:       5467  MISS:         24
Heartbeat CPU 0 instructions: 64000001 cycles: 18859171 heartbeat IPC: 2.36959 cumulative IPC: 2.36733 (Simulation time: 0 hr 32 min 59 sec) 

Region of Interest Statistics
cpu0_DTLB TOTAL     ACCESS:    1840194  HIT:    1788425  MISS:      51769
cpu0_DTLB LOAD      ACCESS:    1171122  HIT:    1136355  MISS:      34767
cpu0_DTLB RFO       ACCESS:     669072  HIT:     652070  MISS:      17002
cpu0_DTLB PREFETCH  ACCESS:          0  HIT:          0  MISS:          0
cpu0_DTLB WRITEBACK ACCESS:          0  HIT:          0  MISS:          0
cpu0_ITLB TOTAL     ACCESS:     757593  HIT:     757593  MISS:          0
cpu0_ITLB LOAD      ACCESS:     757593  HIT:     757593  MISS:          0
cpu0_ITLB RFO       ACCESS:          0  HIT:          0  MISS:          0
cpu0_ITLB PREFETCH  ACCESS:          0  HIT:          0  MISS:          0
cpu0_ITLB WRITEBACK ACCESS:          0  HIT:          0  MISS:          0
cpu0_L1I TOTAL     ACCESS:     749938  HIT:     721823  MISS:      28115
cpu0_L1I LOAD      ACCESS:     749938  HIT:     721823  MISS:      28115
cpu0_L1I RFO       ACCESS:          0  HIT:          0  MISS:          0
cpu0_L1I PREFETCH  ACCESS:          0  HIT:          0  MISS:          0
cpu0_L1I WRITEBACK ACCESS:          0  HIT:          0  MISS:          0
cpu0_STLB TOTAL     ACCESS:      51769  HIT:      51335  MISS:        434
cpu0_STLB LOAD      ACCESS:      34767  HIT:      34427  MISS:        340
cpu0_STLB RFO       ACCESS:      17002  HIT:      16908  MISS:         94
cpu0_STLB PREFETCH  ACCESS:          0  HIT:          0  MISS:          0
cpu0_STLB WRITEBACK ACCESS:          0  HIT:          0  MISS:          0
cpu0_L1D TOTAL     ACCESS:    2549713  HIT:    2502131  MISS:      47582
cpu0_L1D LOAD      ACCESS:    1124306  HIT:    1090087  MISS:      34219
cpu0_L1D RFO       ACCESS:    1425017  HIT:    1411736  MISS:      13281
cpu0_L1D PREFETCH  ACCESS:          0  HIT:          0  MISS:          0
cpu0_L1D WRITEBACK ACCESS:          0  HIT:          0  MISS:          0
cpu0_L2C TOTAL     ACCESS:      89094  HIT:      66952  MISS:      22142
cpu0_L2C LOAD      ACCESS:      62332  HIT:      46768  MISS:      15564
cpu0_L2C RFO       ACCESS:      13005  HIT:       6570  MISS:       6435
cpu0_L2C PREFETCH  ACCESS:          0  HIT:          0  MISS:          0
cpu0_L2C WRITEBACK ACCESS:      13675  HIT:      13558  MISS:        117
LLC TOTAL     ACCESS:      28548  HIT:       9413  MISS:      19135
LLC LOAD      ACCESS:      15564  HIT:       2677  MISS:      12887
LLC RFO       ACCESS:       6435  HIT:        218  MISS:       6217
LLC PREFETCH  ACCESS:          0  HIT:          0  MISS:          0
LLC WRITEBACK ACCESS:       6523  HIT:       6494  MISS:         29
Heartbeat CPU 0 instructions: 66000002 cycles: 19701965 heartbeat IPC: 2.37306 cumulative IPC: 2.36804 (Simulation time: 0 hr 34 min 6 sec) 

Region of Interest Statistics
cpu0_DTLB TOTAL     ACCESS:    2103013  HIT:    2044087  MISS:      58926
cpu0_DTLB LOAD      ACCESS:    1339459  HIT:    1299897  MISS:      39562
cpu0_DTLB RFO       ACCESS:     763554  HIT:     744190  MISS:      19364
cpu0_DTLB PREFETCH  ACCESS:          0  HIT:          0  MISS:          0
cpu0_DTLB WRITEBACK ACCESS:          0  HIT:          0  MISS:          0
cpu0_ITLB TOTAL     ACCESS:     866496  HIT:     866496  MISS:          0
cpu0_ITLB LOAD      ACCESS:     866496  HIT:     866496  MISS:          0
cpu0_ITLB RFO       ACCESS:          0  HIT:          0  MISS:          0
cpu0_ITLB PREFETCH  ACCESS:          0  HIT:          0  MISS:          0
cpu0_ITLB WRITEBACK ACCESS:          0  HIT:          0  MISS:          0
cpu0_L1I TOTAL     ACCESS:     856099  HIT:     823717  MISS:      32382
cpu0_L1I LOAD      ACCESS:     856099  HIT:     823717  MISS:      32382
cpu0_L1I RFO       ACCESS:          0  HIT:          0  MISS:          0
cpu0_L1I PREFETCH  ACCESS:          0  HIT:          0  MISS:          0
cpu0_L1I WRITEBACK ACCESS:          0  HIT:          0  MISS:          0
cpu0_STLB TOTAL     ACCESS:      58926  HIT:      58453  MISS:        473
cpu0_STLB LOAD      ACCESS:      39562  HIT:      39197  MISS:        365
cpu0_STLB RFO       ACCESS:      19364  HIT:      19256  MISS:        108
cpu0_STLB PREFETCH  ACCESS:          0  HIT:          0  MISS:          0
cpu0_STLB WRITEBACK ACCESS:          0  HIT:          0  MISS:          0
cpu0_L1D TOTAL     ACCESS:    2912517  HIT:    2858339  MISS:      54178
cpu0_L1D LOAD      ACCESS:    1285229  HIT:    1246287  MISS:      38942
cpu0_L1D RFO       ACCESS:    1626864  HIT:    1611719  MISS:      15145
cpu0_L1D PREFETCH  ACCESS:          0  HIT:          0  MISS:          0
cpu0_L1D WRITEBACK ACCESS:          0  HIT:          0  MISS:          0
cpu0_L2C TOTAL     ACCESS:     101833  HIT:      76511  MISS:      25322
cpu0_L2C LOAD      ACCESS:      71322  HIT:      53476  MISS:      17846
cpu0_L2C RFO       ACCESS:      14816  HIT:       7508  MISS:       7308
cpu0_L2C PREFETCH  ACCESS:          0  HIT:          0  MISS:          0
cpu0_L2C WRITEBACK ACCESS:      15604  HIT:      15467  MISS:        137
LLC TOTAL     ACCESS:      32719  HIT:      10940  MISS:      21779
LLC LOAD      ACCESS:      17846  HIT:       3177  MISS:      14669
LLC RFO       ACCESS:       7308  HIT:        237  MISS:       7071
LLC PREFETCH  ACCESS:          0  HIT:          0  MISS:          0
LLC WRITEBACK ACCESS:       7534  HIT:       7497  MISS:         37
Heartbeat CPU 0 instructions: 68000002 cycles: 20541661 heartbeat IPC: 2.38181 cumulative IPC: 2.36957 (Simulation time: 0 hr 35 min 12 sec) 

Region of Interest Statistics
cpu0_DTLB TOTAL     ACCESS:    2366328  HIT:    2299637  MISS:      66691
cpu0_DTLB LOAD      ACCESS:    1506653  HIT:    1461727  MISS:      44926
cpu0_DTLB RFO       ACCESS:     859675  HIT:     837910  MISS:      21765
cpu0_DTLB PREFETCH  ACCESS:          0  HIT:          0  MISS:          0
cpu0_DTLB WRITEBACK ACCESS:          0  HIT:          0  MISS:          0
cpu0_ITLB TOTAL     ACCESS:     974551  HIT:     974551  MISS:          0
cpu0_ITLB LOAD      ACCESS:     974551  HIT:     974551  MISS:          0
cpu0_ITLB RFO       ACCESS:          0  HIT:          0  MISS:          0
cpu0_ITLB PREFETCH  ACCESS:          0  HIT:          0  MISS:          0
cpu0_ITLB WRITEBACK ACCESS:          0  HIT:          0  MISS:          0
cpu0_L1I TOTAL     ACCESS:     963638  HIT:     927732  MISS:      35906
cpu0_L1I LOAD      ACCESS:     963638  HIT:     927732  MISS:      35906
cpu0_L1I RFO       ACCESS:          0  HIT:          0  MISS:          0
cpu0_L1I PREFETCH  ACCESS:          0  HIT:          0  MISS:          0
cpu0_L1I WRITEBACK ACCESS:          0  HIT:          0  MISS:          0
cpu0_STLB TOTAL     ACCESS:      66691  HIT:      66157  MISS:        534
cpu0_STLB LOAD      ACCESS:      44926  HIT:      44512  MISS:        414
cpu0_STLB RFO       ACCESS:      21765  HIT:      21645  MISS:        120
cpu0_STLB PREFETCH  ACCESS:          0  HIT:          0  MISS:          0
cpu0_STLB WRITEBACK ACCESS:          0  HIT:          0  MISS:          0
cpu0_L1D TOTAL     ACCESS:    3277287  HIT:    3216018  MISS:      61269
cpu0_L1D LOAD      ACCESS:    1445289  HIT:    1401274  MISS:      44015
cpu0_L1D RFO       ACCESS:    1831521  HIT:    1814368  MISS:      17153
cpu0_L1D PREFETCH  ACCESS:          0  HIT:          0  MISS:          0
cpu0_L1D WRITEBACK ACCESS:          0  HIT:          0  MISS:          0
cpu0_L2C TOTAL     ACCESS:     114495  HIT:      86086  MISS:      28409
cpu0_L2C LOAD      ACCESS:      79919  HIT:      59949  MISS:      19970
cpu0_L2C RFO       ACCESS:      16792  HIT:       8538  MISS:       8254
cpu0_L2C PREFETCH  ACCESS:          0  HIT:          0  MISS:          0
cpu0_L2C WRITEBACK ACCESS:      17683  HIT:      17529  MISS:        154
LLC TOTAL     ACCESS:      36607  HIT:      12121  MISS:      24486
LLC LOAD      ACCESS:      19970  HIT:       3507  MISS:      16463
LLC RFO       ACCESS:       8254  HIT:        272  MISS:       7982
LLC PREFETCH  ACCESS:          0  HIT:          0  MISS:          0
LLC WRITEBACK ACCESS:       8352  HIT:       8313  MISS:         39
Heartbeat CPU 0 instructions: 70000000 cycles: 21387334 heartbeat IPC: 2.36498 cumulative IPC: 2.36911 (Simulation time: 0 hr 36 min 20 sec) 

Region of Interest Statistics
cpu0_DTLB TOTAL     ACCESS:    2629207  HIT:    2556663  MISS:      72544
cpu0_DTLB LOAD      ACCESS:    1674150  HIT:    1625597  MISS:      48553
cpu0_DTLB RFO       ACCESS:     955057  HIT:     931066  MISS:      23991
cpu0_DTLB PREFETCH  ACCESS:          0  HIT:          0  MISS:          0
cpu0_DTLB WRITEBACK ACCESS:          0  HIT:          0  MISS:          0
cpu0_ITLB TOTAL     ACCESS:    1082861  HIT:    1082861  MISS:          0
cpu0_ITLB LOAD      ACCESS:    1082861  HIT:    1082861  MISS:          0
cpu0_ITLB RFO       ACCESS:          0  HIT:          0  MISS:          0
cpu0_ITLB PREFETCH  ACCESS:          0  HIT:          0  MISS:          0
cpu0_ITLB WRITEBACK ACCESS:          0  HIT:          0  MISS:          0
cpu0_L1I TOTAL     ACCESS:    1070501  HIT:    1030030  MISS:      40471
cpu0_L1I LOAD      ACCESS:    1070501  HIT:    1030030  MISS:      40471
cpu0_L1I RFO       ACCESS:          0  HIT:          0  MISS:          0
cpu0_L1I PREFETCH  ACCESS:          0  HIT:          0  MISS:          0
cpu0_L1I WRITEBACK ACCESS:          0  HIT:          0  MISS:          0
cpu0_STLB TOTAL     ACCESS:      72544  HIT:      71956  MISS:        588
cpu0_STLB LOAD      ACCESS:      48553  HIT:      48097  MISS:        456
cpu0_STLB RFO       ACCESS:      23991  HIT:      23859  MISS:        132
cpu0_STLB PREFETCH  ACCESS:          0  HIT:          0  MISS:          0
cpu0_STLB WRITEBACK ACCESS:          0  HIT:          0  MISS:          0
cpu0_L1D TOTAL     ACCESS:    3640727  HIT:    3572917  MISS:      67810
cpu0_L1D LOAD      ACCESS:    1606270  HIT:    1557546  MISS:      48724
cpu0_L1D RFO       ACCESS:    2033932  HIT:    2014960  MISS:      18972
cpu0_L1D PREFETCH  ACCESS:          0  HIT:          0  MISS:          0
cpu0_L1D WRITEBACK ACCESS:          0  HIT:          0  MISS:          0
cpu0_L2C TOTAL     ACCESS:     127475  HIT:      95801  MISS:      31674
cpu0_L2C LOAD      ACCESS:      89191  HIT:      66840  MISS:      22351
cpu0_L2C RFO       ACCESS:      18587  HIT:       9469  MISS:       9118
cpu0_L2C PREFETCH  ACCESS:          0  HIT:          0  MISS:          0
cpu0_L2C WRITEBACK ACCESS:      19583  HIT:      19411  MISS:        172
LLC TOTAL     ACCESS:      40847  HIT:      13663  MISS:      27184
LLC LOAD      ACCESS:      22350  HIT:       4043  MISS:      18307
LLC RFO       ACCESS:       9118  HIT:        284  MISS:       8834
LLC PREFETCH  ACCESS:          0  HIT:          0  MISS:          0
LLC WRITEBACK ACCESS:       9346  HIT:       9305  MISS:         41
Heartbeat CPU 0 instructions: 72000001 cycles: 22231573 heartbeat IPC: 2.369 cumulative IPC: 2.3691 (Simulation time: 0 hr 37 min 30 sec) 

Region of Interest Statistics
cpu0_DTLB TOTAL     ACCESS:    2893840  HIT:    2813762  MISS:      80078
cpu0_DTLB LOAD      ACCESS:    1841414  HIT:    1787883  MISS:      53531
cpu0_DTLB RFO       ACCESS:    1052426  HIT:    1025879  MISS:      26547
cpu0_DTLB PREFETCH  ACCESS:          0  HIT:          0  MISS:          0
cpu0_DTLB WRITEBACK ACCESS:          0  HIT:          0  MISS:          0
cpu0_ITLB TOTAL     ACCESS:    1190957  HIT:    1190957  MISS:          0
cpu0_ITLB LOAD      ACCESS:    1190957  HIT:    1190957  MISS:          0
cpu0_ITLB RFO       ACCESS:          0  HIT:          0  MISS:          0
cpu0_ITLB PREFETCH  ACCESS:          0  HIT:          0  MISS:          0
cpu0_ITLB WRITEBACK ACCESS:          0  HIT:          0  MISS:          0
cpu0_L1I TOTAL     ACCESS:    1178468  HIT:    1134644  MISS:      43824
cpu0_L1I LOAD      ACCESS:    1178468  HIT:    1134644  MISS:      43824
cpu0_L1I RFO       ACCESS:          0  HIT:          0  MISS:          0
cpu0_L1I PREFETCH  ACCESS:          0  HIT:          0  MISS:          0
cpu0_L1I WRITEBACK ACCESS:          0  HIT:          0  MISS:          0
cpu0_STLB TOTAL     ACCESS:      80078  HIT:      79418  MISS:        660
cpu0_STLB LOAD      ACCESS:      53531  HIT:      53027  MISS:        504
cpu0_STLB RFO       ACCESS:      26547  HIT:      26391  MISS:        156
cpu0_STLB PREFETCH  ACCESS:          0  HIT:          0  MISS:          0
cpu0_STLB WRITEBACK ACCESS:          0  HIT:          0  MISS:          0
cpu0_L1D TOTAL     ACCESS:    4009139  HIT:    3934689  MISS:      74450
cpu0_L1D LOAD      ACCESS:    1767207  HIT:    1713704  MISS:      53503
cpu0_L1D RFO       ACCESS:    2241346  HIT:    2220528  MISS:      20818
cpu0_L1D PREFETCH  ACCESS:          0  HIT:          0  MISS:          0
cpu0_L1D WRITEBACK ACCESS:          0  HIT:          0  MISS:          0
cpu0_L2C TOTAL     ACCESS:     139287  HIT:     104707  MISS:      34580
cpu0_L2C LOAD      ACCESS:      97322  HIT:      73025  MISS:      24297
cpu0_L2C RFO       ACCESS:      20400  HIT:      10336  MISS:      10064
cpu0_L2C PREFETCH  ACCESS:          0  HIT:          0  MISS:          0
cpu0_L2C WRITEBACK ACCESS:      21436  HIT:      21252  MISS:        184
LLC TOTAL     ACCESS:      44591  HIT:      14609  MISS:      29982
LLC LOAD      ACCESS:      24296  HIT:       4133  MISS:      20163
LLC RFO       ACCESS:      10064  HIT:        290  MISS:       9774
LLC PREFETCH  ACCESS:          0  HIT:          0  MISS:          0
LLC WRITEBACK ACCESS:      10196  HIT:      10153  MISS:         43
Heartbeat CPU 0 instructions: 74000004 cycles: 23079792 heartbeat IPC: 2.35789 cumulative IPC: 2.36816 (Simulation time: 0 hr 38 min 40 sec) 

Region of Interest Statistics
cpu0_DTLB TOTAL     ACCESS:    3157050  HIT:    3069188  MISS:      87862
cpu0_DTLB LOAD      ACCESS:    2009712  HIT:    1950714  MISS:      58998
cpu0_DTLB RFO       ACCESS:    1147338  HIT:    1118474  MISS:      28864
cpu0_DTLB PREFETCH  ACCESS:          0  HIT:          0  MISS:          0
cpu0_DTLB WRITEBACK ACCESS:          0  HIT:          0  MISS:          0
cpu0_ITLB TOTAL     ACCESS:    1299534  HIT:    1299534  MISS:          0
cpu0_ITLB LOAD      ACCESS:    1299534  HIT:    1299534  MISS:          0
cpu0_ITLB RFO       ACCESS:          0  HIT:          0  MISS:          0
cpu0_ITLB PREFETCH  ACCESS:          0  HIT:          0  MISS:          0
cpu0_ITLB WRITEBACK ACCESS:          0  HIT:          0  MISS:          0
cpu0_L1I TOTAL     ACCESS:    1285216  HIT:    1237105  MISS:      48111
cpu0_L1I LOAD      ACCESS:    1285216  HIT:    1237105  MISS:      48111
cpu0_L1I RFO       ACCESS:          0  HIT:          0  MISS:          0
cpu0_L1I PREFETCH  ACCESS:          0  HIT:          0  MISS:          0
cpu0_L1I WRITEBACK ACCESS:          0  HIT:          0  MISS:          0
cpu0_STLB TOTAL     ACCESS:      87862  HIT:      87146  MISS:        716
cpu0_STLB LOAD      ACCESS:      58998  HIT:      58448  MISS:        550
cpu0_STLB RFO       ACCESS:      28864  HIT:      28698  MISS:        166
cpu0_STLB PREFETCH  ACCESS:          0  HIT:          0  MISS:          0
cpu0_STLB WRITEBACK ACCESS:          0  HIT:          0  MISS:          0
cpu0_L1D TOTAL     ACCESS:    4372401  HIT:    4291654  MISS:      80747
cpu0_L1D LOAD      ACCESS:    1928089  HIT:    1870087  MISS:      58002
cpu0_L1D RFO       ACCESS:    2443677  HIT:    2421071  MISS:      22606
cpu0_L1D PREFETCH  ACCESS:          0  HIT:          0  MISS:          0
cpu0_L1D WRITEBACK ACCESS:          0  HIT:          0  MISS:          0
cpu0_L2C TOTAL     ACCESS:     151715  HIT:     113542  MISS:      38173
cpu0_L2C LOAD      ACCESS:     106108  HIT:      79172  MISS:      26936
cpu0_L2C RFO       ACCESS:      22146  HIT:      11154  MISS:      10992
cpu0_L2C PREFETCH  ACCESS:          0  HIT:          0  MISS:          0
cpu0_L2C WRITEBACK ACCESS:      23322  HIT:      23117  MISS:        205
LLC TOTAL     ACCESS:      49200  HIT:      16502  MISS:      32698
LLC LOAD      ACCESS:      26935  HIT:       4933  MISS:      22002
LLC RFO       ACCESS:      10992  HIT:        345  MISS:      10647
LLC PREFETCH  ACCESS:          0  HIT:          0  MISS:          0
LLC WRITEBACK ACCESS:      11233  HIT:      11186  MISS:         47
Heartbeat CPU 0 instructions: 76000003 cycles: 23917359 heartbeat IPC: 2.38787 cumulative IPC: 2.36966 (Simulation time: 0 hr 39 min 50 sec) 

Region of Interest Statistics
cpu0_DTLB TOTAL     ACCESS:    3421245  HIT:    3326614  MISS:      94631
cpu0_DTLB LOAD      ACCESS:    2176605  HIT:    2113262  MISS:      63343
cpu0_DTLB RFO       ACCESS:    1244640  HIT:    1213352  MISS:      31288
cpu0_DTLB PREFETCH  ACCESS:          0  HIT:          0  MISS:          0
cpu0_DTLB WRITEBACK ACCESS:          0  HIT:          0  MISS:          0
cpu0_ITLB TOTAL     ACCESS:    1407491  HIT:    1407491  MISS:          0
cpu0_ITLB LOAD      ACCESS:    1407491  HIT:    1407491  MISS:          0
cpu0_ITLB RFO       ACCESS:          0  HIT:          0  MISS:          0
cpu0_ITLB PREFETCH  ACCESS:          0  HIT:          0  MISS:          0
cpu0_ITLB WRITEBACK ACCESS:          0  HIT:          0  MISS:          0
cpu0_L1I TOTAL     ACCESS:    1393310  HIT:    1341867  MISS:      51443
cpu0_L1I LOAD      ACCESS:    1393310  HIT:    1341867  MISS:      51443
cpu0_L1I RFO       ACCESS:          0  HIT:          0  MISS:          0
cpu0_L1I PREFETCH  ACCESS:          0  HIT:          0  MISS:          0
cpu0_L1I WRITEBACK ACCESS:          0  HIT:          0  MISS:          0
cpu0_STLB TOTAL     ACCESS:      94631  HIT:      93880  MISS:        751
cpu0_STLB LOAD      ACCESS:      63343  HIT:      62768  MISS:        575
cpu0_STLB RFO       ACCESS:      31288  HIT:      31112  MISS:        176
cpu0_STLB PREFETCH  ACCESS:          0  HIT:          0  MISS:          0
cpu0_STLB WRITEBACK ACCESS:          0  HIT:          0  MISS:          0
cpu0_L1D TOTAL     ACCESS:    4740275  HIT:    4652194  MISS:      88081
cpu0_L1D LOAD      ACCESS:    2089014  HIT:    2025753  MISS:      63261
cpu0_L1D RFO       ACCESS:    2650597  HIT:    2625925  MISS:      24672
cpu0_L1D PREFETCH  ACCESS:          0  HIT:          0  MISS:          0
cpu0_L1D WRITEBACK ACCESS:          0  HIT:          0  MISS:          0
cpu0_L2C TOTAL     ACCESS:     164466  HIT:     123474  MISS:      40992
cpu0_L2C LOAD      ACCESS:     114699  HIT:      85894  MISS:      28805
cpu0_L2C RFO       ACCESS:      24167  HIT:      12242  MISS:      11925
cpu0_L2C PREFETCH  ACCESS:          0  HIT:          0  MISS:          0
cpu0_L2C WRITEBACK ACCESS:      25452  HIT:      25232  MISS:        220
LLC TOTAL     ACCESS:      52830  HIT:      17417  MISS:      35413
LLC LOAD      ACCESS:      28804  HIT:       5022  MISS:      23782
LLC RFO       ACCESS:      11925  HIT:        347  MISS:      11578
LLC PREFETCH  ACCESS:          0  HIT:          0  MISS:          0
LLC WRITEBACK ACCESS:      12059  HIT:      12008  MISS:         51
Heartbeat CPU 0 instructions: 78000004 cycles: 24759739 heartbeat IPC: 2.37423 cumulative IPC: 2.36999 (Simulation time: 0 hr 40 min 57 sec) 

Region of Interest Statistics
cpu0_DTLB TOTAL     ACCESS:    3685947  HIT:    3583550  MISS:     102397
cpu0_DTLB LOAD      ACCESS:    2344105  HIT:    2275317  MISS:      68788
cpu0_DTLB RFO       ACCESS:    1341842  HIT:    1308233  MISS:      33609
cpu0_DTLB PREFETCH  ACCESS:          0  HIT:          0  MISS:          0
cpu0_DTLB WRITEBACK ACCESS:          0  HIT:          0  MISS:          0
cpu0_ITLB TOTAL     ACCESS:    1515346  HIT:    1515346  MISS:          0
cpu0_ITLB LOAD      ACCESS:    1515346  HIT:    1515346  MISS:          0
cpu0_ITLB RFO       ACCESS:          0  HIT:          0  MISS:          0
cpu0_ITLB PREFETCH  ACCESS:          0  HIT:          0  MISS:          0
cpu0_ITLB WRITEBACK ACCESS:          0  HIT:          0  MISS:          0
cpu0_L1I TOTAL     ACCESS:    1501308  HIT:    1446535  MISS:      54773
cpu0_L1I LOAD      ACCESS:    1501308  HIT:    1446535  MISS:      54773
cpu0_L1I RFO       ACCESS:          0  HIT:          0  MISS:          0
cpu0_L1I PREFETCH  ACCESS:          0  HIT:          0  MISS:          0
cpu0_L1I WRITEBACK ACCESS:          0  HIT:          0  MISS:          0
cpu0_STLB TOTAL     ACCESS:     102397  HIT:     101603  MISS:        794
cpu0_STLB LOAD      ACCESS:      68788  HIT:      68186  MISS:        602
cpu0_STLB RFO       ACCESS:      33609  HIT:      33417  MISS:        192
cpu0_STLB PREFETCH  ACCESS:          0  HIT:          0  MISS:          0
cpu0_STLB WRITEBACK ACCESS:          0  HIT:          0  MISS:          0
cpu0_L1D TOTAL     ACCESS:    5108581  HIT:    5013988  MISS:      94593
cpu0_L1D LOAD      ACCESS:    2250385  HIT:    2182474  MISS:      67911
cpu0_L1D RFO       ACCESS:    2857495  HIT:    2830974  MISS:      26521
cpu0_L1D PREFETCH  ACCESS:          0  HIT:          0  MISS:          0
cpu0_L1D WRITEBACK ACCESS:          0  HIT:          0  MISS:          0
cpu0_L2C TOTAL     ACCESS:     176148  HIT:     132318  MISS:      43830
cpu0_L2C LOAD      ACCESS:     122679  HIT:      91988  MISS:      30691
cpu0_L2C RFO       ACCESS:      25965  HIT:      13111  MISS:      12854
cpu0_L2C PREFETCH  ACCESS:          0  HIT:          0  MISS:          0
cpu0_L2C WRITEBACK ACCESS:      27343  HIT:      27107  MISS:        236
LLC TOTAL     ACCESS:      56563  HIT:      18406  MISS:      38157
LLC LOAD      ACCESS:      30690  HIT:       5094  MISS:      25596
LLC RFO       ACCESS:      12854  HIT:        348  MISS:      12506
LLC PREFETCH  ACCESS:          0  HIT:          0  MISS:          0
LLC WRITEBACK ACCESS:      12970  HIT:      12918  MISS:         52
Heartbeat CPU 0 instructions: 80000004 cycles: 25604437 heartbeat IPC: 2.36771 cumulative IPC: 2.36984 (Simulation time: 0 hr 42 min 4 sec) 

Region of Interest Statistics
cpu0_DTLB TOTAL     ACCESS:    3949079  HIT:    3838964  MISS:     110115
cpu0_DTLB LOAD      ACCESS:    2509928  HIT:    2435738  MISS:      74190
cpu0_DTLB RFO       ACCESS:    1439151  HIT:    1403226  MISS:      35925
cpu0_DTLB PREFETCH  ACCESS:          0  HIT:          0  MISS:          0
cpu0_DTLB WRITEBACK ACCESS:          0  HIT:          0  MISS:          0
cpu0_ITLB TOTAL     ACCESS:    1623301  HIT:    1623301  MISS:          0
cpu0_ITLB LOAD      ACCESS:    1623301  HIT:    1623301  MISS:          0
cpu0_ITLB RFO       ACCESS:          0  HIT:          0  MISS:          0
cpu0_ITLB PREFETCH  ACCESS:          0  HIT:          0  MISS:          0
cpu0_ITLB WRITEBACK ACCESS:          0  HIT:          0  MISS:          0
cpu0_L1I TOTAL     ACCESS:    1609238  HIT:    1551064  MISS:      58174
cpu0_L1I LOAD      ACCESS:    1609238  HIT:    1551064  MISS:      58174
cpu0_L1I RFO       ACCESS:          0  HIT:          0  MISS:          0
cpu0_L1I PREFETCH  ACCESS:          0  HIT:          0  MISS:          0
cpu0_L1I WRITEBACK ACCESS:          0  HIT:          0  MISS:          0
cpu0_STLB TOTAL     ACCESS:     110115  HIT:     109244  MISS:        871
cpu0_STLB LOAD      ACCESS:      74190  HIT:      73532  MISS:        658
cpu0_STLB RFO       ACCESS:      35925  HIT:      35712  MISS:        213
cpu0_STLB PREFETCH  ACCESS:          0  HIT:          0  MISS:          0
cpu0_STLB WRITEBACK ACCESS:          0  HIT:          0  MISS:          0
cpu0_L1D TOTAL     ACCESS:    5476240  HIT:    5375088  MISS:     101152
cpu0_L1D LOAD      ACCESS:    2411456  HIT:    2338854  MISS:      72602
cpu0_L1D RFO       ACCESS:    3064016  HIT:    3035643  MISS:      28373
cpu0_L1D PREFETCH  ACCESS:          0  HIT:          0  MISS:          0
cpu0_L1D WRITEBACK ACCESS:          0  HIT:          0  MISS:          0
cpu0_L2C TOTAL     ACCESS:     187921  HIT:     141112  MISS:      46809
cpu0_L2C LOAD      ACCESS:     130771  HIT:      98078  MISS:      32693
cpu0_L2C RFO       ACCESS:      27750  HIT:      13938  MISS:      13812
cpu0_L2C PREFETCH  ACCESS:          0  HIT:          0  MISS:          0
cpu0_L2C WRITEBACK ACCESS:      29223  HIT:      28971  MISS:        252
LLC TOTAL     ACCESS:      60446  HIT:      19501  MISS:      40945
LLC LOAD      ACCESS:      32692  HIT:       5253  MISS:      27439
LLC RFO       ACCESS:      13812  HIT:        366  MISS:      13446
LLC PREFETCH  ACCESS:          0  HIT:          0  MISS:          0
LLC WRITEBACK ACCESS:      13890  HIT:      13833  MISS:         57
Heartbeat CPU 0 instructions: 82000002 cycles: 26447611 heartbeat IPC: 2.37199 cumulative IPC: 2.36997 (Simulation time: 0 hr 43 min 10 sec) 

Region of Interest Statistics
cpu0_DTLB TOTAL     ACCESS:    4212483  HIT:    4095046  MISS:     117437
cpu0_DTLB LOAD      ACCESS:    2677116  HIT:    2598357  MISS:      78759
cpu0_DTLB RFO       ACCESS:    1535367  HIT:    1496689  MISS:      38678
cpu0_DTLB PREFETCH  ACCESS:          0  HIT:          0  MISS:          0
cpu0_DTLB WRITEBACK ACCESS:          0  HIT:          0  MISS:          0
cpu0_ITLB TOTAL     ACCESS:    1731482  HIT:    1731482  MISS:          0
cpu0_ITLB LOAD      ACCESS:    1731482  HIT:    1731482  MISS:          0
cpu0_ITLB RFO       ACCESS:          0  HIT:          0  MISS:          0
cpu0_ITLB PREFETCH  ACCESS:          0  HIT:          0  MISS:          0
cpu0_ITLB WRITEBACK ACCESS:          0  HIT:          0  MISS:          0
cpu0_L1I TOTAL     ACCESS:    1716724  HIT:    1654875  MISS:      61849
cpu0_L1I LOAD      ACCESS:    1716724  HIT:    1654875  MISS:      61849
cpu0_L1I RFO       ACCESS:          0  HIT:          0  MISS:          0
cpu0_L1I PREFETCH  ACCESS:          0  HIT:          0  MISS:          0
cpu0_L1I WRITEBACK ACCESS:          0  HIT:          0  MISS:          0
cpu0_STLB TOTAL     ACCESS:     117437  HIT:     116515  MISS:        922
cpu0_STLB LOAD      ACCESS:      78759  HIT:      78061  MISS:        698
cpu0_STLB RFO       ACCESS:      38678  HIT:      38454  MISS:        224
cpu0_STLB PREFETCH  ACCESS:          0  HIT:          0  MISS:          0
cpu0_STLB WRITEBACK ACCESS:          0  HIT:          0  MISS:          0
cpu0_L1D TOTAL     ACCESS:    5842915  HIT:    5735279  MISS:     107636
cpu0_L1D LOAD      ACCESS:    2572456  HIT:    2495233  MISS:      77223
cpu0_L1D RFO       ACCESS:    3269646  HIT:    3239421  MISS:      30225
cpu0_L1D PREFETCH  ACCESS:          0  HIT:          0  MISS:          0
cpu0_L1D WRITEBACK ACCESS:          0  HIT:          0  MISS:          0
cpu0_L2C TOTAL     ACCESS:     199920  HIT:     149853  MISS:      50067
cpu0_L2C LOAD      ACCESS:     139067  HIT:     104075  MISS:      34992
cpu0_L2C RFO       ACCESS:      29568  HIT:      14813  MISS:      14755
cpu0_L2C PREFETCH  ACCESS:          0  HIT:          0  MISS:          0
cpu0_L2C WRITEBACK ACCESS:      31097  HIT:      30831  MISS:        266
LLC TOTAL     ACCESS:      64737  HIT:      21088  MISS:      43649
LLC LOAD      ACCESS:      34991  HIT:       5762  MISS:      29229
LLC RFO       ACCESS:      14755  HIT:        398  MISS:      14357
LLC PREFETCH  ACCESS:          0  HIT:          0  MISS:          0
LLC WRITEBACK ACCESS:      14937  HIT:      14877  MISS:         60
Heartbeat CPU 0 instructions: 84000000 cycles: 27292176 heartbeat IPC: 2.36808 cumulative IPC: 2.36986 (Simulation time: 0 hr 44 min 19 sec) 

Region of Interest Statistics
cpu0_DTLB TOTAL     ACCESS:    4476362  HIT:    4351469  MISS:     124893
cpu0_DTLB LOAD      ACCESS:    2845227  HIT:    2761405  MISS:      83822
cpu0_DTLB RFO       ACCESS:    1631135  HIT:    1590064  MISS:      41071
cpu0_DTLB PREFETCH  ACCESS:          0  HIT:          0  MISS:          0
cpu0_DTLB WRITEBACK ACCESS:          0  HIT:          0  MISS:          0
cpu0_ITLB TOTAL     ACCESS:    1839725  HIT:    1839725  MISS:          0
cpu0_ITLB LOAD      ACCESS:    1839725  HIT:    1839725  MISS:          0
cpu0_ITLB RFO       ACCESS:          0  HIT:          0  MISS:          0
cpu0_ITLB PREFETCH  ACCESS:          0  HIT:          0  MISS:          0
cpu0_ITLB WRITEBACK ACCESS:          0  HIT:          0  MISS:          0
cpu0_L1I TOTAL     ACCESS:    1824179  HIT:    1758523  MISS:      65656
cpu0_L1I LOAD      ACCESS:    1824179  HIT:    1758523  MISS:      65656
cpu0_L1I RFO       ACCESS:          0  HIT:          0  MISS:          0
cpu0_L1I PREFETCH  ACCESS:          0  HIT:          0  MISS:          0
cpu0_L1I WRITEBACK ACCESS:          0  HIT:          0  MISS:          0
cpu0_STLB TOTAL     ACCESS:     124893  HIT:     123910  MISS:        983
cpu0_STLB LOAD      ACCESS:      83822  HIT:      83077  MISS:        745
cpu0_STLB RFO       ACCESS:      41071  HIT:      40833  MISS:        238
cpu0_STLB PREFETCH  ACCESS:          0  HIT:          0  MISS:          0
cpu0_STLB WRITEBACK ACCESS:          0  HIT:          0  MISS:          0
cpu0_L1D TOTAL     ACCESS:    6207795  HIT:    6092806  MISS:     114989
cpu0_L1D LOAD      ACCESS:    2732424  HIT:    2649937  MISS:      82487
cpu0_L1D RFO       ACCESS:    3474501  HIT:    3442201  MISS:      32300
cpu0_L1D PREFETCH  ACCESS:          0  HIT:          0  MISS:          0
cpu0_L1D WRITEBACK ACCESS:          0  HIT:          0  MISS:          0
cpu0_L2C TOTAL     ACCESS:     213232  HIT:     159784  MISS:      53448
cpu0_L2C LOAD      ACCESS:     148138  HIT:     110716  MISS:      37422
cpu0_L2C RFO       ACCESS:      31608  HIT:      15925  MISS:      15683
cpu0_L2C PREFETCH  ACCESS:          0  HIT:          0  MISS:          0
cpu0_L2C WRITEBACK ACCESS:      33284  HIT:      32996  MISS:        288
LLC TOTAL     ACCESS:      69054  HIT:      22664  MISS:      46390
LLC LOAD      ACCESS:      37421  HIT:       6349  MISS:      31072
LLC RFO       ACCESS:      15683  HIT:        435  MISS:      15248
LLC PREFETCH  ACCESS:          0  HIT:          0  MISS:          0
LLC WRITEBACK ACCESS:      15895  HIT:      15828  MISS:         67
Heartbeat CPU 0 instructions: 86000001 cycles: 28127448 heartbeat IPC: 2.39443 cumulative IPC: 2.37121 (Simulation time: 0 hr 45 min 28 sec) 

Region of Interest Statistics
cpu0_DTLB TOTAL     ACCESS:    4738985  HIT:    4607116  MISS:     131869
cpu0_DTLB LOAD      ACCESS:    3011160  HIT:    2922776  MISS:      88384
cpu0_DTLB RFO       ACCESS:    1727825  HIT:    1684340  MISS:      43485
cpu0_DTLB PREFETCH  ACCESS:          0  HIT:          0  MISS:          0
cpu0_DTLB WRITEBACK ACCESS:          0  HIT:          0  MISS:          0
cpu0_ITLB TOTAL     ACCESS:    1947558  HIT:    1947558  MISS:          0
cpu0_ITLB LOAD      ACCESS:    1947558  HIT:    1947558  MISS:          0
cpu0_ITLB RFO       ACCESS:          0  HIT:          0  MISS:          0
cpu0_ITLB PREFETCH  ACCESS:          0  HIT:          0  MISS:          0
cpu0_ITLB WRITEBACK ACCESS:          0  HIT:          0  MISS:          0
cpu0_L1I TOTAL     ACCESS:    1932410  HIT:    1863404  MISS:      69006
cpu0_L1I LOAD      ACCESS:    1932410  HIT:    1863404  MISS:      69006
cpu0_L1I RFO       ACCESS:          0  HIT:          0  MISS:          0
cpu0_L1I PREFETCH  ACCESS:          0  HIT:          0  MISS:          0
cpu0_L1I WRITEBACK ACCESS:          0  HIT:          0  MISS:          0
cpu0_STLB TOTAL     ACCESS:     131869  HIT:     130853  MISS:       1016
cpu0_STLB LOAD      ACCESS:      88384  HIT:      87618  MISS:        766
cpu0_STLB RFO       ACCESS:      43485  HIT:      43235  MISS:        250
cpu0_STLB PREFETCH  ACCESS:          0  HIT:          0  MISS:          0
cpu0_STLB WRITEBACK ACCESS:          0  HIT:          0  MISS:          0
cpu0_L1D TOTAL     ACCESS:    6575539  HIT:    6453650  MISS:     121889
cpu0_L1D LOAD      ACCESS:    2893352  HIT:    2805945  MISS:      87407
cpu0_L1D RFO       ACCESS:    3681291  HIT:    3647019  MISS:      34272
cpu0_L1D PREFETCH  ACCESS:          0  HIT:          0  MISS:          0
cpu0_L1D WRITEBACK ACCESS:          0  HIT:          0  MISS:          0
cpu0_L2C TOTAL     ACCESS:     225480  HIT:     169160  MISS:      56320
cpu0_L2C LOAD      ACCESS:     156407  HIT:     117075  MISS:      39332
cpu0_L2C RFO       ACCESS:      33553  HIT:      16932  MISS:      16621
cpu0_L2C PREFETCH  ACCESS:          0  HIT:          0  MISS:          0
cpu0_L2C WRITEBACK ACCESS:      35310  HIT:      35001  MISS:        309
LLC TOTAL     ACCESS:      72873  HIT:      23763  MISS:      49110
LLC LOAD      ACCESS:      39331  HIT:       6477  MISS:      32854
LLC RFO       ACCESS:      16621  HIT:        442  MISS:      16179
LLC PREFETCH  ACCESS:          0  HIT:          0  MISS:          0
LLC WRITEBACK ACCESS:      16863  HIT:      16789  MISS:         74
Heartbeat CPU 0 instructions: 88000002 cycles: 36170870 heartbeat IPC: 0.248651 cumulative IPC: 1.63613 (Simulation time: 0 hr 51 min 59 sec) 

Region of Interest Statistics
cpu0_DTLB TOTAL     ACCESS:    5251357  HIT:    5115707  MISS:     135650
cpu0_DTLB LOAD      ACCESS:    3310146  HIT:    3219243  MISS:      90903
cpu0_DTLB RFO       ACCESS:    1941211  HIT:    1896464  MISS:      44747
cpu0_DTLB PREFETCH  ACCESS:          0  HIT:          0  MISS:          0
cpu0_DTLB WRITEBACK ACCESS:          0  HIT:          0  MISS:          0
cpu0_ITLB TOTAL     ACCESS:    2036319  HIT:    2036286  MISS:         33
cpu0_ITLB LOAD      ACCESS:    2036319  HIT:    2036286  MISS:         33
cpu0_ITLB RFO       ACCESS:          0  HIT:          0  MISS:          0
cpu0_ITLB PREFETCH  ACCESS:          0  HIT:          0  MISS:          0
cpu0_ITLB WRITEBACK ACCESS:          0  HIT:          0  MISS:          0
cpu0_L1I TOTAL     ACCESS:    1971050  HIT:    1900640  MISS:      70410
cpu0_L1I LOAD      ACCESS:    1971050  HIT:    1900640  MISS:      70410
cpu0_L1I RFO       ACCESS:          0  HIT:          0  MISS:          0
cpu0_L1I PREFETCH  ACCESS:          0  HIT:          0  MISS:          0
cpu0_L1I WRITEBACK ACCESS:          0  HIT:          0  MISS:          0
cpu0_STLB TOTAL     ACCESS:     135683  HIT:     133794  MISS:       1889
cpu0_STLB LOAD      ACCESS:      90936  HIT:      89605  MISS:       1331
cpu0_STLB RFO       ACCESS:      44747  HIT:      44189  MISS:        558
cpu0_STLB PREFETCH  ACCESS:          0  HIT:          0  MISS:          0
cpu0_STLB WRITEBACK ACCESS:          0  HIT:          0  MISS:          0
cpu0_L1D TOTAL     ACCESS:    7118451  HIT:    6905540  MISS:     212911
cpu0_L1D LOAD      ACCESS:    3154300  HIT:    3003472  MISS:     150828
cpu0_L1D RFO       ACCESS:    3962383  HIT:    3900528  MISS:      61855
cpu0_L1D PREFETCH  ACCESS:          0  HIT:          0  MISS:          0
cpu0_L1D WRITEBACK ACCESS:          0  HIT:          0  MISS:          0
cpu0_L2C TOTAL     ACCESS:     362454  HIT:     215556  MISS:     146898
cpu0_L2C LOAD      ACCESS:     221232  HIT:     118777  MISS:     102455
cpu0_L2C RFO       ACCESS:      61130  HIT:      17135  MISS:      43995
cpu0_L2C PREFETCH  ACCESS:          0  HIT:          0  MISS:          0
cpu0_L2C WRITEBACK ACCESS:      79864  HIT:      79488  MISS:        376
LLC TOTAL     ACCESS:     207706  HIT:      74391  MISS:     133315
LLC LOAD      ACCESS:     102454  HIT:      12848  MISS:      89606
LLC RFO       ACCESS:      43995  HIT:        459  MISS:      43536
LLC PREFETCH  ACCESS:          0  HIT:          0  MISS:          0
LLC WRITEBACK ACCESS:      61185  HIT:      61020  MISS:        165
Heartbeat CPU 0 instructions: 90000001 cycles: 37224124 heartbeat IPC: 1.89888 cumulative IPC: 1.64753 (Simulation time: 0 hr 52 min 52 sec) 

Region of Interest Statistics
cpu0_DTLB TOTAL     ACCESS:    5411341  HIT:    5275571  MISS:     135770
cpu0_DTLB LOAD      ACCESS:    3468277  HIT:    3377254  MISS:      91023
cpu0_DTLB RFO       ACCESS:    1943064  HIT:    1898317  MISS:      44747
cpu0_DTLB PREFETCH  ACCESS:          0  HIT:          0  MISS:          0
cpu0_DTLB WRITEBACK ACCESS:          0  HIT:          0  MISS:          0
cpu0_ITLB TOTAL     ACCESS:    2157982  HIT:    2157949  MISS:         33
cpu0_ITLB LOAD      ACCESS:    2157982  HIT:    2157949  MISS:         33
cpu0_ITLB RFO       ACCESS:          0  HIT:          0  MISS:          0
cpu0_ITLB PREFETCH  ACCESS:          0  HIT:          0  MISS:          0
cpu0_ITLB WRITEBACK ACCESS:          0  HIT:          0  MISS:          0
cpu0_L1I TOTAL     ACCESS:    1971050  HIT:    1900640  MISS:      70410
cpu0_L1I LOAD      ACCESS:    1971050  HIT:    1900640  MISS:      70410
cpu0_L1I RFO       ACCESS:          0  HIT:          0  MISS:          0
cpu0_L1I PREFETCH  ACCESS:          0  HIT:          0  MISS:          0
cpu0_L1I WRITEBACK ACCESS:          0  HIT:          0  MISS:          0
cpu0_STLB TOTAL     ACCESS:     135803  HIT:     133914  MISS:       1889
cpu0_STLB LOAD      ACCESS:      91056  HIT:      89725  MISS:       1331
cpu0_STLB RFO       ACCESS:      44747  HIT:      44189  MISS:        558
cpu0_STLB PREFETCH  ACCESS:          0  HIT:          0  MISS:          0
cpu0_STLB WRITEBACK ACCESS:          0  HIT:          0  MISS:          0
cpu0_L1D TOTAL     ACCESS:    7185134  HIT:    6964901  MISS:     220233
cpu0_L1D LOAD      ACCESS:    3219107  HIT:    3060957  MISS:     158150
cpu0_L1D RFO       ACCESS:    3964259  HIT:    3902404  MISS:      61855
cpu0_L1D PREFETCH  ACCESS:          0  HIT:          0  MISS:          0
cpu0_L1D WRITEBACK ACCESS:          0  HIT:          0  MISS:          0
cpu0_L2C TOTAL     ACCESS:     369776  HIT:     215556  MISS:     154220
cpu0_L2C LOAD      ACCESS:     228554  HIT:     118777  MISS:     109777
cpu0_L2C RFO       ACCESS:      61130  HIT:      17135  MISS:      43995
cpu0_L2C PREFETCH  ACCESS:          0  HIT:          0  MISS:          0
cpu0_L2C WRITEBACK ACCESS:      79864  HIT:      79488  MISS:        376
LLC TOTAL     ACCESS:     216100  HIT:      77231  MISS:     138869
LLC LOAD      ACCESS:     109776  HIT:      14616  MISS:      95160
LLC RFO       ACCESS:      43995  HIT:        459  MISS:      43536
LLC PREFETCH  ACCESS:          0  HIT:          0  MISS:          0
LLC WRITEBACK ACCESS:      62257  HIT:      62092  MISS:        165
Heartbeat CPU 0 instructions: 92000001 cycles: 38109292 heartbeat IPC: 2.25946 cumulative IPC: 1.66905 (Simulation time: 0 hr 54 min 18 sec) 

Region of Interest Statistics
cpu0_DTLB TOTAL     ACCESS:    5662616  HIT:    5526489  MISS:     136127
cpu0_DTLB LOAD      ACCESS:    3661373  HIT:    3570250  MISS:      91123
cpu0_DTLB RFO       ACCESS:    2001243  HIT:    1956239  MISS:      45004
cpu0_DTLB PREFETCH  ACCESS:          0  HIT:          0  MISS:          0
cpu0_DTLB WRITEBACK ACCESS:          0  HIT:          0  MISS:          0
cpu0_ITLB TOTAL     ACCESS:    2243305  HIT:    2243272  MISS:         33
cpu0_ITLB LOAD      ACCESS:    2243305  HIT:    2243272  MISS:         33
cpu0_ITLB RFO       ACCESS:          0  HIT:          0  MISS:          0
cpu0_ITLB PREFETCH  ACCESS:          0  HIT:          0  MISS:          0
cpu0_ITLB WRITEBACK ACCESS:          0  HIT:          0  MISS:          0
cpu0_L1I TOTAL     ACCESS:    1971082  HIT:    1900657  MISS:      70425
cpu0_L1I LOAD      ACCESS:    1971082  HIT:    1900657  MISS:      70425
cpu0_L1I RFO       ACCESS:          0  HIT:          0  MISS:          0
cpu0_L1I PREFETCH  ACCESS:          0  HIT:          0  MISS:          0
cpu0_L1I WRITEBACK ACCESS:          0  HIT:          0  MISS:          0
cpu0_STLB TOTAL     ACCESS:     136160  HIT:     134251  MISS:       1909
cpu0_STLB LOAD      ACCESS:      91156  HIT:      89825  MISS:       1331
cpu0_STLB RFO       ACCESS:      45004  HIT:      44426  MISS:        578
cpu0_STLB PREFETCH  ACCESS:          0  HIT:          0  MISS:          0
cpu0_STLB WRITEBACK ACCESS:          0  HIT:          0  MISS:          0
cpu0_L1D TOTAL     ACCESS:    7337578  HIT:    7109150  MISS:     228428
cpu0_L1D LOAD      ACCESS:    3337174  HIT:    3172459  MISS:     164715
cpu0_L1D RFO       ACCESS:    3998618  HIT:    3935134  MISS:      63484
cpu0_L1D PREFETCH  ACCESS:          0  HIT:          0  MISS:          0
cpu0_L1D WRITEBACK ACCESS:          0  HIT:          0  MISS:          0
cpu0_L2C TOTAL     ACCESS:     379252  HIT:     217078  MISS:     162174
cpu0_L2C LOAD      ACCESS:     235134  HIT:     119033  MISS:     116101
cpu0_L2C RFO       ACCESS:      62759  HIT:      17136  MISS:      45623
cpu0_L2C PREFETCH  ACCESS:          0  HIT:          0  MISS:          0
cpu0_L2C WRITEBACK ACCESS:      81130  HIT:      80753  MISS:        377
LLC TOTAL     ACCESS:     224121  HIT:      81371  MISS:     142750
LLC LOAD      ACCESS:     116100  HIT:      18687  MISS:      97413
LLC RFO       ACCESS:      45623  HIT:        459  MISS:      45164
LLC PREFETCH  ACCESS:          0  HIT:          0  MISS:          0
LLC WRITEBACK ACCESS:      62325  HIT:      62160  MISS:        165
Heartbeat CPU 0 instructions: 94000003 cycles: 38792801 heartbeat IPC: 2.92608 cumulative IPC: 1.70229 (Simulation time: 0 hr 56 min 23 sec) 

Region of Interest Statistics
cpu0_DTLB TOTAL     ACCESS:    6094996  HIT:    5958780  MISS:     136216
cpu0_DTLB LOAD      ACCESS:    3923934  HIT:    3832767  MISS:      91167
cpu0_DTLB RFO       ACCESS:    2171062  HIT:    2126013  MISS:      45049
cpu0_DTLB PREFETCH  ACCESS:          0  HIT:          0  MISS:          0
cpu0_DTLB WRITEBACK ACCESS:          0  HIT:          0  MISS:          0
cpu0_ITLB TOTAL     ACCESS:    2246041  HIT:    2246008  MISS:         33
cpu0_ITLB LOAD      ACCESS:    2246041  HIT:    2246008  MISS:         33
cpu0_ITLB RFO       ACCESS:          0  HIT:          0  MISS:          0
cpu0_ITLB PREFETCH  ACCESS:          0  HIT:          0  MISS:          0
cpu0_ITLB WRITEBACK ACCESS:          0  HIT:          0  MISS:          0
cpu0_L1I TOTAL     ACCESS:    1971082  HIT:    1900657  MISS:      70425
cpu0_L1I LOAD      ACCESS:    1971082  HIT:    1900657  MISS:      70425
cpu0_L1I RFO       ACCESS:          0  HIT:          0  MISS:          0
cpu0_L1I PREFETCH  ACCESS:          0  HIT:          0  MISS:          0
cpu0_L1I WRITEBACK ACCESS:          0  HIT:          0  MISS:          0
cpu0_STLB TOTAL     ACCESS:     136249  HIT:     134295  MISS:       1954
cpu0_STLB LOAD      ACCESS:      91200  HIT:      89869  MISS:       1331
cpu0_STLB RFO       ACCESS:      45049  HIT:      44426  MISS:        623
cpu0_STLB PREFETCH  ACCESS:          0  HIT:          0  MISS:          0
cpu0_STLB WRITEBACK ACCESS:          0  HIT:          0  MISS:          0
cpu0_L1D TOTAL     ACCESS:    7657266  HIT:    7423391  MISS:     233875
cpu0_L1D LOAD      ACCESS:    3559396  HIT:    3391891  MISS:     167505
cpu0_L1D RFO       ACCESS:    4096039  HIT:    4029898  MISS:      66141
cpu0_L1D PREFETCH  ACCESS:          0  HIT:          0  MISS:          0
cpu0_L1D WRITEBACK ACCESS:          0  HIT:          0  MISS:          0
cpu0_L2C TOTAL     ACCESS:     387359  HIT:     219784  MISS:     167575
cpu0_L2C LOAD      ACCESS:     237924  HIT:     119079  MISS:     118845
cpu0_L2C RFO       ACCESS:      65416  HIT:      17136  MISS:      48280
cpu0_L2C PREFETCH  ACCESS:          0  HIT:          0  MISS:          0
cpu0_L2C WRITEBACK ACCESS:      83790  HIT:      83413  MISS:        377
LLC TOTAL     ACCESS:     231814  HIT:      86407  MISS:     145407
LLC LOAD      ACCESS:     118844  HIT:      21431  MISS:      97413
LLC RFO       ACCESS:      48280  HIT:        459  MISS:      47821
LLC PREFETCH  ACCESS:          0  HIT:          0  MISS:          0
LLC WRITEBACK ACCESS:      64617  HIT:      64452  MISS:        165
Heartbeat CPU 0 instructions: 96000002 cycles: 39491459 heartbeat IPC: 2.86263 cumulative IPC: 1.73283 (Simulation time: 0 hr 58 min 32 sec) 

Region of Interest Statistics
cpu0_DTLB TOTAL     ACCESS:    6527645  HIT:    6391340  MISS:     136305
cpu0_DTLB LOAD      ACCESS:    4186770  HIT:    4095560  MISS:      91210
cpu0_DTLB RFO       ACCESS:    2340875  HIT:    2295780  MISS:      45095
cpu0_DTLB PREFETCH  ACCESS:          0  HIT:          0  MISS:          0
cpu0_DTLB WRITEBACK ACCESS:          0  HIT:          0  MISS:          0
cpu0_ITLB TOTAL     ACCESS:    2248757  HIT:    2248724  MISS:         33
cpu0_ITLB LOAD      ACCESS:    2248757  HIT:    2248724  MISS:         33
cpu0_ITLB RFO       ACCESS:          0  HIT:          0  MISS:          0
cpu0_ITLB PREFETCH  ACCESS:          0  HIT:          0  MISS:          0
cpu0_ITLB WRITEBACK ACCESS:          0  HIT:          0  MISS:          0
cpu0_L1I TOTAL     ACCESS:    1971082  HIT:    1900657  MISS:      70425
cpu0_L1I LOAD      ACCESS:    1971082  HIT:    1900657  MISS:      70425
cpu0_L1I RFO       ACCESS:          0  HIT:          0  MISS:          0
cpu0_L1I PREFETCH  ACCESS:          0  HIT:          0  MISS:          0
cpu0_L1I WRITEBACK ACCESS:          0  HIT:          0  MISS:          0
cpu0_STLB TOTAL     ACCESS:     136338  HIT:     134338  MISS:       2000
cpu0_STLB LOAD      ACCESS:      91243  HIT:      89912  MISS:       1331
cpu0_STLB RFO       ACCESS:      45095  HIT:      44426  MISS:        669
cpu0_STLB PREFETCH  ACCESS:          0  HIT:          0  MISS:          0
cpu0_STLB WRITEBACK ACCESS:          0  HIT:          0  MISS:          0
cpu0_L1D TOTAL     ACCESS:    7975950  HIT:    7736626  MISS:     239324
cpu0_L1D LOAD      ACCESS:    3780230  HIT:    3609935  MISS:     170295
cpu0_L1D RFO       ACCESS:    4193843  HIT:    4125043  MISS:      68800
cpu0_L1D PREFETCH  ACCESS:          0  HIT:          0  MISS:          0
cpu0_L1D WRITEBACK ACCESS:          0  HIT:          0  MISS:          0
cpu0_L2C TOTAL     ACCESS:     395467  HIT:     222443  MISS:     173024
cpu0_L2C LOAD      ACCESS:     240714  HIT:     119079  MISS:     121635
cpu0_L2C RFO       ACCESS:      68075  HIT:      17136  MISS:      50939
cpu0_L2C PREFETCH  ACCESS:          0  HIT:          0  MISS:          0
cpu0_L2C WRITEBACK ACCESS:      86449  HIT:      86072  MISS:        377
LLC TOTAL     ACCESS:     239833  HIT:      91607  MISS:     148226
LLC LOAD      ACCESS:     121634  HIT:      24061  MISS:      97573
LLC RFO       ACCESS:      50939  HIT:        459  MISS:      50480
LLC PREFETCH  ACCESS:          0  HIT:          0  MISS:          0
LLC WRITEBACK ACCESS:      67187  HIT:      67022  MISS:        165
Heartbeat CPU 0 instructions: 98000003 cycles: 40198300 heartbeat IPC: 2.82949 cumulative IPC: 1.76128 (Simulation time: 1 hr 0 min 42 sec) 

Region of Interest Statistics
cpu0_DTLB TOTAL     ACCESS:    6959507  HIT:    6823112  MISS:     136395
cpu0_DTLB LOAD      ACCESS:    4448816  HIT:    4357562  MISS:      91254
cpu0_DTLB RFO       ACCESS:    2510691  HIT:    2465550  MISS:      45141
cpu0_DTLB PREFETCH  ACCESS:          0  HIT:          0  MISS:          0
cpu0_DTLB WRITEBACK ACCESS:          0  HIT:          0  MISS:          0
cpu0_ITLB TOTAL     ACCESS:    2251527  HIT:    2251494  MISS:         33
cpu0_ITLB LOAD      ACCESS:    2251527  HIT:    2251494  MISS:         33
cpu0_ITLB RFO       ACCESS:          0  HIT:          0  MISS:          0
cpu0_ITLB PREFETCH  ACCESS:          0  HIT:          0  MISS:          0
cpu0_ITLB WRITEBACK ACCESS:          0  HIT:          0  MISS:          0
cpu0_L1I TOTAL     ACCESS:    1971082  HIT:    1900657  MISS:      70425
cpu0_L1I LOAD      ACCESS:    1971082  HIT:    1900657  MISS:      70425
cpu0_L1I RFO       ACCESS:          0  HIT:          0  MISS:          0
cpu0_L1I PREFETCH  ACCESS:          0  HIT:          0  MISS:          0
cpu0_L1I WRITEBACK ACCESS:          0  HIT:          0  MISS:          0
cpu0_STLB TOTAL     ACCESS:     136428  HIT:     134382  MISS:       2046
cpu0_STLB LOAD      ACCESS:      91287  HIT:      89956  MISS:       1331
cpu0_STLB RFO       ACCESS:      45141  HIT:      44426  MISS:        715
cpu0_STLB PREFETCH  ACCESS:          0  HIT:          0  MISS:          0
cpu0_STLB WRITEBACK ACCESS:          0  HIT:          0  MISS:          0
cpu0_L1D TOTAL     ACCESS:    8294365  HIT:    8049591  MISS:     244774
cpu0_L1D LOAD      ACCESS:    4000315  HIT:    3827228  MISS:     173087
cpu0_L1D RFO       ACCESS:    4292127  HIT:    4220669  MISS:      71458
cpu0_L1D PREFETCH  ACCESS:          0  HIT:          0  MISS:          0
cpu0_L1D WRITEBACK ACCESS:          0  HIT:          0  MISS:          0
cpu0_L2C TOTAL     ACCESS:     403571  HIT:     225097  MISS:     178474
cpu0_L2C LOAD      ACCESS:     243506  HIT:     119079  MISS:     124427
cpu0_L2C RFO       ACCESS:      70733  HIT:      17136  MISS:      53597
cpu0_L2C PREFETCH  ACCESS:          0  HIT:          0  MISS:          0
cpu0_L2C WRITEBACK ACCESS:      89103  HIT:      88726  MISS:        377
LLC TOTAL     ACCESS:     247914  HIT:      96788  MISS:     151126
LLC LOAD      ACCESS:     124426  HIT:      26611  MISS:      97815
LLC RFO       ACCESS:      53597  HIT:        459  MISS:      53138
LLC PREFETCH  ACCESS:          0  HIT:          0  MISS:          0
LLC WRITEBACK ACCESS:      69818  HIT:      69653  MISS:        165
Heartbeat CPU 0 instructions: 100000002 cycles: 40959527 heartbeat IPC: 2.62734 cumulative IPC: 1.78481 (Simulation time: 1 hr 2 min 53 sec) 

Region of Interest Statistics
cpu0_DTLB TOTAL     ACCESS:    7390625  HIT:    7254143  MISS:     136482
cpu0_DTLB LOAD      ACCESS:    4710102  HIT:    4618805  MISS:      91297
cpu0_DTLB RFO       ACCESS:    2680523  HIT:    2635338  MISS:      45185
cpu0_DTLB PREFETCH  ACCESS:          0  HIT:          0  MISS:          0
cpu0_DTLB WRITEBACK ACCESS:          0  HIT:          0  MISS:          0
cpu0_ITLB TOTAL     ACCESS:    2254170  HIT:    2254137  MISS:         33
cpu0_ITLB LOAD      ACCESS:    2254170  HIT:    2254137  MISS:         33
cpu0_ITLB RFO       ACCESS:          0  HIT:          0  MISS:          0
cpu0_ITLB PREFETCH  ACCESS:          0  HIT:          0  MISS:          0
cpu0_ITLB WRITEBACK ACCESS:          0  HIT:          0  MISS:          0
cpu0_L1I TOTAL     ACCESS:    1971082  HIT:    1900657  MISS:      70425
cpu0_L1I LOAD      ACCESS:    1971082  HIT:    1900657  MISS:      70425
cpu0_L1I RFO       ACCESS:          0  HIT:          0  MISS:          0
cpu0_L1I PREFETCH  ACCESS:          0  HIT:          0  MISS:          0
cpu0_L1I WRITEBACK ACCESS:          0  HIT:          0  MISS:          0
cpu0_STLB TOTAL     ACCESS:     136515  HIT:     134425  MISS:       2090
cpu0_STLB LOAD      ACCESS:      91330  HIT:      89999  MISS:       1331
cpu0_STLB RFO       ACCESS:      45185  HIT:      44426  MISS:        759
cpu0_STLB PREFETCH  ACCESS:          0  HIT:          0  MISS:          0
cpu0_STLB WRITEBACK ACCESS:          0  HIT:          0  MISS:          0
cpu0_L1D TOTAL     ACCESS:    8610590  HIT:    8360366  MISS:     250224
cpu0_L1D LOAD      ACCESS:    4216692  HIT:    4040813  MISS:     175879
cpu0_L1D RFO       ACCESS:    4391931  HIT:    4317815  MISS:      74116
cpu0_L1D PREFETCH  ACCESS:          0  HIT:          0  MISS:          0
cpu0_L1D WRITEBACK ACCESS:          0  HIT:          0  MISS:          0
cpu0_L2C TOTAL     ACCESS:     411680  HIT:     227756  MISS:     183924
cpu0_L2C LOAD      ACCESS:     246298  HIT:     119079  MISS:     127219
cpu0_L2C RFO       ACCESS:      73391  HIT:      17136  MISS:      56255
cpu0_L2C PREFETCH  ACCESS:          0  HIT:          0  MISS:          0
cpu0_L2C WRITEBACK ACCESS:      91762  HIT:      91385  MISS:        377
LLC TOTAL     ACCESS:     256044  HIT:     101510  MISS:     154534
LLC LOAD      ACCESS:     127218  HIT:      28653  MISS:      98565
LLC RFO       ACCESS:      56255  HIT:        459  MISS:      55796
LLC PREFETCH  ACCESS:          0  HIT:          0  MISS:          0
LLC WRITEBACK ACCESS:      72498  HIT:      72333  MISS:        165
Heartbeat CPU 0 instructions: 102000001 cycles: 41736257 heartbeat IPC: 2.5749 cumulative IPC: 1.80612 (Simulation time: 1 hr 4 min 49 sec) 

Region of Interest Statistics
cpu0_DTLB TOTAL     ACCESS:    7821909  HIT:    7685335  MISS:     136574
cpu0_DTLB LOAD      ACCESS:    4971570  HIT:    4880229  MISS:      91341
cpu0_DTLB RFO       ACCESS:    2850339  HIT:    2805106  MISS:      45233
cpu0_DTLB PREFETCH  ACCESS:          0  HIT:          0  MISS:          0
cpu0_DTLB WRITEBACK ACCESS:          0  HIT:          0  MISS:          0
cpu0_ITLB TOTAL     ACCESS:    2256767  HIT:    2256734  MISS:         33
cpu0_ITLB LOAD      ACCESS:    2256767  HIT:    2256734  MISS:         33
cpu0_ITLB RFO       ACCESS:          0  HIT:          0  MISS:          0
cpu0_ITLB PREFETCH  ACCESS:          0  HIT:          0  MISS:          0
cpu0_ITLB WRITEBACK ACCESS:          0  HIT:          0  MISS:          0
cpu0_L1I TOTAL     ACCESS:    1971082  HIT:    1900657  MISS:      70425
cpu0_L1I LOAD      ACCESS:    1971082  HIT:    1900657  MISS:      70425
cpu0_L1I RFO       ACCESS:          0  HIT:          0  MISS:          0
cpu0_L1I PREFETCH  ACCESS:          0  HIT:          0  MISS:          0
cpu0_L1I WRITEBACK ACCESS:          0  HIT:          0  MISS:          0
cpu0_STLB TOTAL     ACCESS:     136607  HIT:     134469  MISS:       2138
cpu0_STLB LOAD      ACCESS:      91374  HIT:      90043  MISS:       1331
cpu0_STLB RFO       ACCESS:      45233  HIT:      44426  MISS:        807
cpu0_STLB PREFETCH  ACCESS:          0  HIT:          0  MISS:          0
cpu0_STLB WRITEBACK ACCESS:          0  HIT:          0  MISS:          0
cpu0_L1D TOTAL     ACCESS:    8926279  HIT:    8670603  MISS:     255676
cpu0_L1D LOAD      ACCESS:    4432051  HIT:    4253380  MISS:     178671
cpu0_L1D RFO       ACCESS:    4492213  HIT:    4415437  MISS:      76776
cpu0_L1D PREFETCH  ACCESS:          0  HIT:          0  MISS:          0
cpu0_L1D WRITEBACK ACCESS:          0  HIT:          0  MISS:          0
cpu0_L2C TOTAL     ACCESS:     419788  HIT:     230412  MISS:     189376
cpu0_L2C LOAD      ACCESS:     249090  HIT:     119079  MISS:     130011
cpu0_L2C RFO       ACCESS:      76051  HIT:      17136  MISS:      58915
cpu0_L2C PREFETCH  ACCESS:          0  HIT:          0  MISS:          0
cpu0_L2C WRITEBACK ACCESS:      94418  HIT:      94041  MISS:        377
LLC TOTAL     ACCESS:     264204  HIT:     106111  MISS:     158093
LLC LOAD      ACCESS:     130010  HIT:      30546  MISS:      99464
LLC RFO       ACCESS:      58915  HIT:        459  MISS:      58456
LLC PREFETCH  ACCESS:          0  HIT:          0  MISS:          0
LLC WRITEBACK ACCESS:      75206  HIT:      75041  MISS:        165
Heartbeat CPU 0 instructions: 104000003 cycles: 42907657 heartbeat IPC: 1.70736 cumulative IPC: 1.80226 (Simulation time: 1 hr 6 min 8 sec) 

Region of Interest Statistics
cpu0_DTLB TOTAL     ACCESS:    8034825  HIT:    7897817  MISS:     137008
cpu0_DTLB LOAD      ACCESS:    5151794  HIT:    5060097  MISS:      91697
cpu0_DTLB RFO       ACCESS:    2883031  HIT:    2837720  MISS:      45311
cpu0_DTLB PREFETCH  ACCESS:          0  HIT:          0  MISS:          0
cpu0_DTLB WRITEBACK ACCESS:          0  HIT:          0  MISS:          0
cpu0_ITLB TOTAL     ACCESS:    2382928  HIT:    2382892  MISS:         36
cpu0_ITLB LOAD      ACCESS:    2382928  HIT:    2382892  MISS:         36
cpu0_ITLB RFO       ACCESS:          0  HIT:          0  MISS:          0
cpu0_ITLB PREFETCH  ACCESS:          0  HIT:          0  MISS:          0
cpu0_ITLB WRITEBACK ACCESS:          0  HIT:          0  MISS:          0
cpu0_L1I TOTAL     ACCESS:    1984858  HIT:    1914418  MISS:      70440
cpu0_L1I LOAD      ACCESS:    1984858  HIT:    1914418  MISS:      70440
cpu0_L1I RFO       ACCESS:          0  HIT:          0  MISS:          0
cpu0_L1I PREFETCH  ACCESS:          0  HIT:          0  MISS:          0
cpu0_L1I WRITEBACK ACCESS:          0  HIT:          0  MISS:          0
cpu0_STLB TOTAL     ACCESS:     137044  HIT:     134845  MISS:       2199
cpu0_STLB LOAD      ACCESS:      91733  HIT:      90397  MISS:       1336
cpu0_STLB RFO       ACCESS:      45311  HIT:      44448  MISS:        863
cpu0_STLB PREFETCH  ACCESS:          0  HIT:          0  MISS:          0
cpu0_STLB WRITEBACK ACCESS:          0  HIT:          0  MISS:          0
cpu0_L1D TOTAL     ACCESS:    9060055  HIT:    8790446  MISS:     269609
cpu0_L1D LOAD      ACCESS:    4542992  HIT:    4355092  MISS:     187900
cpu0_L1D RFO       ACCESS:    4514992  HIT:    4433522  MISS:      81470
cpu0_L1D PREFETCH  ACCESS:          0  HIT:          0  MISS:          0
cpu0_L1D WRITEBACK ACCESS:          0  HIT:          0  MISS:          0
cpu0_L2C TOTAL     ACCESS:     438787  HIT:     235632  MISS:     203155
cpu0_L2C LOAD      ACCESS:     258334  HIT:     119242  MISS:     139092
cpu0_L2C RFO       ACCESS:      80745  HIT:      17139  MISS:      63606
cpu0_L2C PREFETCH  ACCESS:          0  HIT:          0  MISS:          0
cpu0_L2C WRITEBACK ACCESS:      99469  HIT:      99090  MISS:        379
LLC TOTAL     ACCESS:     284496  HIT:     117581  MISS:     166915
LLC LOAD      ACCESS:     139091  HIT:      35501  MISS:     103590
LLC RFO       ACCESS:      63606  HIT:        459  MISS:      63147
LLC PREFETCH  ACCESS:          0  HIT:          0  MISS:          0
LLC WRITEBACK ACCESS:      81721  HIT:      81554  MISS:        167
Heartbeat CPU 0 instructions: 106000001 cycles: 43895218 heartbeat IPC: 2.02519 cumulative IPC: 1.80938 (Simulation time: 1 hr 7 min 6 sec) 

Region of Interest Statistics
cpu0_DTLB TOTAL     ACCESS:    8218713  HIT:    8081592  MISS:     137121
cpu0_DTLB LOAD      ACCESS:    5326714  HIT:    5234907  MISS:      91807
cpu0_DTLB RFO       ACCESS:    2891999  HIT:    2846685  MISS:      45314
cpu0_DTLB PREFETCH  ACCESS:          0  HIT:          0  MISS:          0
cpu0_DTLB WRITEBACK ACCESS:          0  HIT:          0  MISS:          0
cpu0_ITLB TOTAL     ACCESS:    2521419  HIT:    2521383  MISS:         36
cpu0_ITLB LOAD      ACCESS:    2521419  HIT:    2521383  MISS:         36
cpu0_ITLB RFO       ACCESS:          0  HIT:          0  MISS:          0
cpu0_ITLB PREFETCH  ACCESS:          0  HIT:          0  MISS:          0
cpu0_ITLB WRITEBACK ACCESS:          0  HIT:          0  MISS:          0
cpu0_L1I TOTAL     ACCESS:    2000718  HIT:    1930278  MISS:      70440
cpu0_L1I LOAD      ACCESS:    2000718  HIT:    1930278  MISS:      70440
cpu0_L1I RFO       ACCESS:          0  HIT:          0  MISS:          0
cpu0_L1I PREFETCH  ACCESS:          0  HIT:          0  MISS:          0
cpu0_L1I WRITEBACK ACCESS:          0  HIT:          0  MISS:          0
cpu0_STLB TOTAL     ACCESS:     137157  HIT:     134956  MISS:       2201
cpu0_STLB LOAD      ACCESS:      91843  HIT:      90507  MISS:       1336
cpu0_STLB RFO       ACCESS:      45314  HIT:      44449  MISS:        865
cpu0_STLB PREFETCH  ACCESS:          0  HIT:          0  MISS:          0
cpu0_STLB WRITEBACK ACCESS:          0  HIT:          0  MISS:          0
cpu0_L1D TOTAL     ACCESS:    9168630  HIT:    8891979  MISS:     276651
cpu0_L1D LOAD      ACCESS:    4641384  HIT:    4446619  MISS:     194765
cpu0_L1D RFO       ACCESS:    4525173  HIT:    4443527  MISS:      81646
cpu0_L1D PREFETCH  ACCESS:          0  HIT:          0  MISS:          0
cpu0_L1D WRITEBACK ACCESS:          0  HIT:          0  MISS:          0
cpu0_L2C TOTAL     ACCESS:     446005  HIT:     235808  MISS:     210197
cpu0_L2C LOAD      ACCESS:     265199  HIT:     119242  MISS:     145957
cpu0_L2C RFO       ACCESS:      80921  HIT:      17139  MISS:      63782
cpu0_L2C PREFETCH  ACCESS:          0  HIT:          0  MISS:          0
cpu0_L2C WRITEBACK ACCESS:      99645  HIT:      99266  MISS:        379
[...]
cpu0_DTLB LOAD      ACCESS:  136047015  HIT:  135193178  MISS:     853837
cpu0_DTLB RFO       ACCESS:   51292070  HIT:   50851497  MISS:     440573
cpu0_DTLB PREFETCH  ACCESS:          0  HIT:          0  MISS:          0
cpu0_DTLB WRITEBACK ACCESS:          0  HIT:          0  MISS:          0
cpu0_ITLB TOTAL     ACCESS:   87932125  HIT:   87930556  MISS:       1569
cpu0_ITLB LOAD      ACCESS:   87932125  HIT:   87930556  MISS:       1569
cpu0_ITLB RFO       ACCESS:          0  HIT:          0  MISS:          0
cpu0_ITLB PREFETCH  ACCESS:          0  HIT:          0  MISS:          0
cpu0_ITLB WRITEBACK ACCESS:          0  HIT:          0  MISS:          0
cpu0_L1I TOTAL     ACCESS:   59462765  HIT:   58268184  MISS:    1194581
cpu0_L1I LOAD      ACCESS:   59462765  HIT:   58268184  MISS:    1194581
cpu0_L1I RFO       ACCESS:          0  HIT:          0  MISS:          0
cpu0_L1I PREFETCH  ACCESS:          0  HIT:          0  MISS:          0
cpu0_L1I WRITEBACK ACCESS:          0  HIT:          0  MISS:          0
cpu0_STLB TOTAL     ACCESS:    1295979  HIT:    1274201  MISS:      21778
cpu0_STLB LOAD      ACCESS:     855406  HIT:     841096  MISS:      14310
cpu0_STLB RFO       ACCESS:     440573  HIT:     433105  MISS:       7468
cpu0_STLB PREFETCH  ACCESS:          0  HIT:          0  MISS:          0
cpu0_STLB WRITEBACK ACCESS:          0  HIT:          0  MISS:          0
cpu0_L1D TOTAL     ACCESS:  222291844  HIT:  219917039  MISS:    2374805
cpu0_L1D LOAD      ACCESS:  114118891  HIT:  112409861  MISS:    1709030
cpu0_L1D RFO       ACCESS:  108152924  HIT:  107489283  MISS:     663641
cpu0_L1D PREFETCH  ACCESS:          0  HIT:          0  MISS:          0
cpu0_L1D WRITEBACK ACCESS:          0  HIT:          0  MISS:          0
cpu0_L2C TOTAL     ACCESS:    4348589  HIT:    2523072  MISS:    1825517
cpu0_L2C LOAD      ACCESS:    2903597  HIT:    1591551  MISS:    1312046
cpu0_L2C RFO       ACCESS:     658696  HIT:     152939  MISS:     505757
cpu0_L2C PREFETCH  ACCESS:          0  HIT:          0  MISS:          0
cpu0_L2C WRITEBACK ACCESS:     784162  HIT:     777223  MISS:       6939
LLC TOTAL     ACCESS:    2426963  HIT:    1012838  MISS:    1414125
LLC LOAD      ACCESS:    1312029  HIT:     391933  MISS:     920096
LLC RFO       ACCESS:     505746  HIT:      12802  MISS:     492944
LLC PREFETCH  ACCESS:          0  HIT:          0  MISS:          0
LLC WRITEBACK ACCESS:     608413  HIT:     607424  MISS:        989
Heartbeat CPU 0 instructions: 1550000000 cycles: 663419180 heartbeat IPC: 2.88903 cumulative IPC: 2.30601 (Simulation time: 12 hr 13 min 21 sec) 

Region of Interest Statistics
cpu0_DTLB TOTAL     ACCESS:  187559321  HIT:  186264908  MISS:    1294413
cpu0_DTLB LOAD      ACCESS:  136205293  HIT:  135351453  MISS:     853840
cpu0_DTLB RFO       ACCESS:   51354028  HIT:   50913455  MISS:     440573
cpu0_DTLB PREFETCH  ACCESS:          0  HIT:          0  MISS:          0
cpu0_DTLB WRITEBACK ACCESS:          0  HIT:          0  MISS:          0
cpu0_ITLB TOTAL     ACCESS:   88033108  HIT:   88031539  MISS:       1569
cpu0_ITLB LOAD      ACCESS:   88033108  HIT:   88031539  MISS:       1569
cpu0_ITLB RFO       ACCESS:          0  HIT:          0  MISS:          0
cpu0_ITLB PREFETCH  ACCESS:          0  HIT:          0  MISS:          0
cpu0_ITLB WRITEBACK ACCESS:          0  HIT:          0  MISS:          0
cpu0_L1I TOTAL     ACCESS:   59569933  HIT:   58375352  MISS:    1194581
cpu0_L1I LOAD      ACCESS:   59569933  HIT:   58375352  MISS:    1194581
cpu0_L1I RFO       ACCESS:          0  HIT:          0  MISS:          0
cpu0_L1I PREFETCH  ACCESS:          0  HIT:          0  MISS:          0
cpu0_L1I WRITEBACK ACCESS:          0  HIT:          0  MISS:          0
cpu0_STLB TOTAL     ACCESS:    1295982  HIT:    1274201  MISS:      21781
cpu0_STLB LOAD      ACCESS:     855409  HIT:     841096  MISS:      14313
cpu0_STLB RFO       ACCESS:     440573  HIT:     433105  MISS:       7468
cpu0_STLB PREFETCH  ACCESS:          0  HIT:          0  MISS:          0
cpu0_STLB WRITEBACK ACCESS:          0  HIT:          0  MISS:          0
cpu0_L1D TOTAL     ACCESS:  222588564  HIT:  220213539  MISS:    2375025
cpu0_L1D LOAD      ACCESS:  114226349  HIT:  112517105  MISS:    1709244
cpu0_L1D RFO       ACCESS:  108342183  HIT:  107678536  MISS:     663647
cpu0_L1D PREFETCH  ACCESS:          0  HIT:          0  MISS:          0
cpu0_L1D WRITEBACK ACCESS:          0  HIT:          0  MISS:          0
cpu0_L2C TOTAL     ACCESS:    4348815  HIT:    2523078  MISS:    1825737
cpu0_L2C LOAD      ACCESS:    2903811  HIT:    1591551  MISS:    1312260
cpu0_L2C RFO       ACCESS:     658702  HIT:     152939  MISS:     505763
cpu0_L2C PREFETCH  ACCESS:          0  HIT:          0  MISS:          0
cpu0_L2C WRITEBACK ACCESS:     784168  HIT:     777229  MISS:       6939
LLC TOTAL     ACCESS:    2427190  HIT:    1012845  MISS:    1414345
LLC LOAD      ACCESS:    1312243  HIT:     391933  MISS:     920310
LLC RFO       ACCESS:     505752  HIT:      12802  MISS:     492950
LLC PREFETCH  ACCESS:          0  HIT:          0  MISS:          0
LLC WRITEBACK ACCESS:     608420  HIT:     607431  MISS:        989
Finished CPU 0 instructions: 1500000001 cycles: 650473847 cumulative IPC: 2.30601 (Simulation time: 12 hr 13 min 21 sec) 

ChampSim completed all CPUs

Region of Interest Statistics

CPU 0 cumulative IPC: 2.30601 instructions: 1500000001 cycles: 650473847
cpu0_DTLB TOTAL     ACCESS:  187559321  HIT:  186264908  MISS:    1294413
cpu0_DTLB LOAD      ACCESS:  136205293  HIT:  135351453  MISS:     853840
cpu0_DTLB RFO       ACCESS:   51354028  HIT:   50913455  MISS:     440573
cpu0_DTLB PREFETCH  ACCESS:          0  HIT:          0  MISS:          0
cpu0_DTLB WRITEBACK ACCESS:          0  HIT:          0  MISS:          0
cpu0_DTLB TRANSLATION ACCESS:          0  HIT:          0  MISS:          0
cpu0_DTLB PREFETCH  REQUESTED:          0  ISSUED:          0  USEFUL:          0  USELESS:          0
cpu0_DTLB AVERAGE MISS LATENCY: 11.8329 cycles
cpu0_ITLB TOTAL     ACCESS:   88033108  HIT:   88031539  MISS:       1569
cpu0_ITLB LOAD      ACCESS:   88033108  HIT:   88031539  MISS:       1569
cpu0_ITLB RFO       ACCESS:          0  HIT:          0  MISS:          0
cpu0_ITLB PREFETCH  ACCESS:          0  HIT:          0  MISS:          0
cpu0_ITLB WRITEBACK ACCESS:          0  HIT:          0  MISS:          0
cpu0_ITLB TRANSLATION ACCESS:          0  HIT:          0  MISS:          0
cpu0_ITLB PREFETCH  REQUESTED:          0  ISSUED:          0  USEFUL:          0  USELESS:          0
cpu0_ITLB AVERAGE MISS LATENCY: 28.0491 cycles
cpu0_L1I TOTAL     ACCESS:   59569934  HIT:   58375353  MISS:    1194581
cpu0_L1I LOAD      ACCESS:   59569934  HIT:   58375353  MISS:    1194581
cpu0_L1I RFO       ACCESS:          0  HIT:          0  MISS:          0
cpu0_L1I PREFETCH  ACCESS:          0  HIT:          0  MISS:          0
cpu0_L1I WRITEBACK ACCESS:          0  HIT:          0  MISS:          0
cpu0_L1I TRANSLATION ACCESS:          0  HIT:          0  MISS:          0
cpu0_L1I PREFETCH  REQUESTED:          0  ISSUED:          0  USEFUL:          0  USELESS:          0
cpu0_L1I AVERAGE MISS LATENCY: 14.5387 cycles
cpu0_STLB TOTAL     ACCESS:    1295982  HIT:    1274201  MISS:      21781
cpu0_STLB LOAD      ACCESS:     855409  HIT:     841096  MISS:      14313
cpu0_STLB RFO       ACCESS:     440573  HIT:     433105  MISS:       7468
cpu0_STLB PREFETCH  ACCESS:          0  HIT:          0  MISS:          0
cpu0_STLB WRITEBACK ACCESS:          0  HIT:          0  MISS:          0
cpu0_STLB TRANSLATION ACCESS:          0  HIT:          0  MISS:          0
cpu0_STLB PREFETCH  REQUESTED:          0  ISSUED:          0  USEFUL:          0  USELESS:          0
cpu0_STLB AVERAGE MISS LATENCY: 166.408 cycles
cpu0_L1D TOTAL     ACCESS:  222588564  HIT:  220213539  MISS:    2375025
cpu0_L1D LOAD      ACCESS:  114226349  HIT:  112517105  MISS:    1709244
cpu0_L1D RFO       ACCESS:  108342183  HIT:  107678536  MISS:     663647
cpu0_L1D PREFETCH  ACCESS:          0  HIT:          0  MISS:          0
cpu0_L1D WRITEBACK ACCESS:          0  HIT:          0  MISS:          0
cpu0_L1D TRANSLATION ACCESS:      20032  HIT:      17898  MISS:       2134
cpu0_L1D PREFETCH  REQUESTED:          0  ISSUED:          0  USEFUL:          0  USELESS:          0
cpu0_L1D AVERAGE MISS LATENCY: 247.122 cycles
cpu0_L2C TOTAL     ACCESS:    4348815  HIT:    2523078  MISS:    1825737
cpu0_L2C LOAD      ACCESS:    2903811  HIT:    1591551  MISS:    1312260
cpu0_L2C RFO       ACCESS:     658702  HIT:     152939  MISS:     505763
cpu0_L2C PREFETCH  ACCESS:          0  HIT:          0  MISS:          0
cpu0_L2C WRITEBACK ACCESS:     784168  HIT:     777229  MISS:       6939
cpu0_L2C TRANSLATION ACCESS:       2134  HIT:       1359  MISS:        775
cpu0_L2C PREFETCH  REQUESTED:          0  ISSUED:          0  USEFUL:          0  USELESS:          0
cpu0_L2C AVERAGE MISS LATENCY: 309.402 cycles
LLC TOTAL     ACCESS:    2427190  HIT:    1012845  MISS:    1414345
LLC LOAD      ACCESS:    1312243  HIT:     391933  MISS:     920310
LLC RFO       ACCESS:     505752  HIT:      12802  MISS:     492950
LLC PREFETCH  ACCESS:          0  HIT:          0  MISS:          0
LLC WRITEBACK ACCESS:     608420  HIT:     607431  MISS:        989
LLC TRANSLATION ACCESS:        775  HIT:        679  MISS:         96
LLC PREFETCH  REQUESTED:          0  ISSUED:          0  USEFUL:          0  USELESS:          0
LLC AVERAGE MISS LATENCY: 372.393 cycles
~~~~~~~~~~Reuse Distance Profiler output~~~~~~~~~~
0	0	0
1	0	0
2	0	0
3	0	0
4	0	0
5	0	0
6	0	0
7	0	0
8	0	0
9	0	0
10	0	0
11	0	0
12	0	0
13	0	0
14	0	0
15	0	0
16	0	0
17	0	0
18	0	0
19	0	0
20	0	0
21	0	0
22	0	0
23	0	0
24	0	0
25	0	0
26	0	0
27	0	0
28	0	0
29	0	0
30	0	0
31	0	0
32	0	0
33	0	0
34	0	0
35	0	0
36	0	0
37	0	0
38	0	0
39	0	0
40	0	0
41	0	0
42	0	0
43	0	0
44	0	0
45	0	0
46	0	0
47	0	0
48	0	0
49	0	0
50	0	0
51	0	0
52	0	0
53	0	0
54	0	0
55	0	0
56	0	0
57	0	0
58	0	0
59	0	0
60	0	0
61	0	0
62	0	0
63	0	0
64	0	0
66	0	0
68	0	0
70	0	0
72	0	0
74	0	0
76	0	0
78	0	0
80	0	0
82	0	0
84	0	0
86	0	0
88	0	0
90	0	0
92	0	0
94	0	0
96	0	0
98	0	0
100	0	0
102	0	0
104	0	0
106	0	0
108	0	0
110	0	0
112	0	0
114	0	0
116	0	0
118	0	0
120	0	0
122	0	0
124	0	0
126	0	0
128	0	0
132	0	0
136	0	0
140	0	0
144	0	0
148	0	0
152	0	0
156	0	0
160	0	0
164	0	0
168	0	0
172	0	0
176	0	0
180	0	0
184	0	0
188	0	0
192	0	0
196	0	0
200	0	0
204	0	0
208	0	0
212	0	0
216	0	0
220	0	0
224	0	0
228	0	0
232	0	0
236	0	0
240	0	0
244	0	0
248	0	0
252	0	0
256	0	0
264	0	0
272	0	0
280	0	0
288	0	0
296	0	0
304	0	0
312	0	0
320	0	0
328	0	0
336	0	0
344	0	0
352	0	0
360	0	0
368	0	0
376	0	0
384	0	0
392	0	0
400	0	0
408	0	0
416	0	0
424	0	0
432	0	0
440	0	0
448	0	0
456	0	0
464	0	0
472	0	0
480	0	0
488	0	0
496	0	0
504	0	0
512	0	0
528	0	0
544	0	0
560	0	0
576	0	0
592	0	0
608	0	0
624	0	0
640	0	0
656	0	0
672	0	0
688	0	0
704	0	0
720	0	0
736	0	0
752	0	0
768	0	0
784	0	0
800	0	0
816	0	0
832	0	0
848	0	0
864	0	0
880	0	0
896	0	0
912	0	0
928	0	0
944	0	0
960	0	0
976	0	0
992	0	0
1008	0	0
1024	0	0
1056	0	0
1088	0	0
1120	0	0
1152	0	0
1184	0	0
1216	0	0
1248	0	0
1280	0	0
1312	0	0
1344	0	0
1376	0	0
1408	0	0
1440	0	0
1472	0	0
1504	0	0
1536	0	0
1568	0	0
1600	0	0
1632	0	0
1664	0	0
1696	0	0
1728	0	0
1760	0	0
1792	0	0
1824	0	0
1856	0	0
1888	0	0
1920	0	0
1952	0	0
1984	0	0
2016	0	0
2048	0	0
2112	0	0
2176	0	0
2240	0	0
2304	0	0
2368	0	0
2432	0	0
2496	0	0
2560	0	0
2624	0	0
2688	0	0
2752	0	0
2816	0	0
2880	0	0
2944	0	0
3008	0	0
3072	0	0
3136	0	0
3200	0	0
3264	0	0
3328	0	0
3392	0	0
3456	0	0
3520	0	0
3584	0	0
3648	0	0
3712	0	0
3776	0	0
3840	0	0
3904	0	0
3968	0	0
4032	0	0
4096	0	0
4224	0	0
4352	0	0
4480	0	0
4608	0	0
4736	0	0
4864	0	0
4992	0	0
5120	0	0
5248	0	0
5376	0	0
5504	0	0
5632	0	0
5760	0	0
5888	0	0
6016	0	0
6144	0	0
6272	0	0
6400	0	0
6528	0	0
6656	0	0
6784	0	0
6912	0	0
7040	0	0
7168	0	0
7296	0	0
7424	0	0
7552	0	0
7680	0	0
7808	0	0
7936	0	0
8064	0	0
8192	0	0
8448	0	0
8704	0	0
8960	0	0
9216	0	0
9472	0	0
9728	0	0
9984	0	0
10240	0	0
10496	0	0
10752	0	0
11008	0	0
11264	0	0
11520	0	0
11776	0	0
12032	0	0
12288	0	0
12544	0	0
12800	0	0
13056	0	0
13312	0	0
13568	0	0
13824	0	0
14080	0	0
14336	0	0
14592	0	0
14848	0	0
15104	0	0
15360	0	0
15616	0	0
15872	0	0
16128	0	0
16384	0	0
16896	0	0
17408	0	0
17920	0	0
18432	0	0
18944	0	0
19456	0	0
19968	0	0
20480	0	0
20992	0	0
21504	0	0
22016	0	0
22528	0	0
23040	0	0
23552	0	0
24064	0	0
24576	0	0
25088	0	0
25600	0	0
26112	0	0
26624	0	0
27136	0	0
27648	0	0
28160	0	0
28672	0	0
29184	0	0
29696	0	0
30208	0	0
30720	0	0
31232	0	0
31744	0	0
32256	0	0
32768	0	0
33792	0	0
34816	0	0
35840	0	0
36864	0	0
37888	0	0
38912	0	0
39936	0	0
40960	0	0
41984	0	0
43008	0	0
44032	0	0
45056	0	0
46080	0	0
47104	0	0
48128	0	0
49152	0	0
50176	0	0
51200	0	0
52224	0	0
53248	0	0
54272	0	0
55296	0	0
56320	0	0
57344	0	0
58368	0	0
59392	0	0
60416	0	0
61440	0	0
62464	0	0
63488	0	0
64512	0	0
65536	0	0
67584	0	0
69632	0	0
71680	0	0
73728	0	0
75776	0	0
77824	0	0
79872	0	0
81920	0	0
83968	0	0
86016	0	0
88064	0	0
90112	0	0
92160	0	0
94208	0	0
96256	0	0
98304	0	0
100352	0	0
102400	0	0
104448	0	0
106496	0	0
108544	0	0
110592	0	0
112640	0	0
114688	0	0
116736	0	0
118784	0	0
120832	0	0
122880	0	0
124928	0	0
126976	0	0
129024	0	0
131072	0	0
135168	0	0
139264	0	0
143360	0	0
147456	0	0
151552	0	0
155648	0	0
159744	0	0
163840	0	0
167936	0	0
172032	0	0
176128	0	0
180224	0	0
184320	0	0
188416	0	0
192512	0	0
196608	0	0
200704	0	0
204800	0	0
208896	0	0
212992	0	0
217088	0	0
221184	0	0
225280	0	0
229376	0	0
233472	0	0
237568	0	0
241664	0	0
245760	0	0
249856	0	0
253952	0	0
258048	0	0
262144	0	0
270336	0	0
278528	0	0
286720	0	0
294912	0	0
303104	0	0
311296	0	0
319488	0	0
327680	0	0
335872	0	0
344064	0	0
352256	0	0
360448	0	0
368640	0	0
376832	0	0
385024	0	0
393216	0	0
401408	0	0
409600	0	0
417792	0	0
425984	0	0
434176	0	0
442368	0	0
450560	0	0
458752	0	0
466944	0	0
475136	0	0
483328	0	0
491520	0	0
499712	0	0
507904	0	0
516096	0	0
524288	0	0
540672	0	0
557056	0	0
573440	0	0
589824	0	0
606208	0	0
622592	0	0
638976	0	0
655360	0	0
671744	0	0
688128	0	0
704512	0	0
720896	0	0
737280	0	0
753664	0	0
770048	0	0
786432	0	0
802816	0	0
819200	0	0
835584	0	0
851968	0	0
868352	0	0
884736	0	0
901120	0	0
917504	0	0
933888	0	0
950272	0	0
966656	0	0
983040	0	0
999424	0	0
1015808	0	0
1032192	0	0
1048576	0	0
1081344	0	0
1114112	0	0
1146880	0	0
1179648	0	0
1212416	0	0
1245184	0	0
1277952	0	0
1310720	0	0
1343488	0	0
1376256	0	0
1409024	0	0
1441792	0	0
1474560	0	0
1507328	0	0
1540096	0	0
1572864	0	0
1605632	0	0
1638400	0	0
1671168	0	0
1703936	0	0
1736704	0	0
1769472	0	0
1802240	0	0
1835008	0	0
1867776	0	0
1900544	0	0
1933312	0	0
1966080	0	0
1998848	0	0
2031616	0	0
2064384	0	0
2097152	0	0
2162688	0	0
2228224	0	0
2293760	0	0
2359296	0	0
2424832	0	0
2490368	0	0
2555904	0	0
2621440	0	0
2686976	0	0
2752512	0	0
2818048	0	0
2883584	0	0
2949120	0	0
3014656	0	0
3080192	0	0
3145728	0	0
3211264	0	0
3276800	0	0
3342336	0	0
3407872	0	0
3473408	0	0
3538944	0	0
3604480	0	0
3670016	0	0
3735552	0	0
3801088	0	0
3866624	0	0
3932160	0	0
3997696	0	0
4063232	0	0
4128768	0	0
4194304	0	0
4325376	0	0
4456448	0	0
4587520	0	0
4718592	0	0
4849664	0	0
4980736	0	0
5111808	0	0
5242880	0	0
5373952	0	0
5505024	0	0
5636096	0	0
5767168	0	0
5898240	0	0
6029312	0	0
6160384	0	0
6291456	0	0
6422528	0	0
6553600	0	0
6684672	0	0
6815744	0	0
6946816	0	0
7077888	0	0
7208960	0	0
7340032	0	0
7471104	0	0
7602176	0	0
7733248	0	0
7864320	0	0
7995392	0	0
8126464	0	0
8257536	0	0
8388608	0	0
8650752	0	0
8912896	0	0
9175040	0	0
9437184	0	0
9699328	0	0
9961472	0	0
10223616	0	0
10485760	0	0
10747904	0	0
11010048	0	0
11272192	0	0
11534336	0	0
11796480	0	0
12058624	0	0
12320768	0	0
12582912	0	0
12845056	0	0
13107200	0	0
13369344	0	0
13631488	0	0
13893632	0	0
14155776	0	0
14417920	0	0
14680064	0	0
14942208	0	0
15204352	0	0
15466496	0	0
15728640	0	0
15990784	0	0
16252928	0	0
16515072	0	0
16777216	0	0
17301504	0	0
17825792	0	0
18350080	0	0
18874368	0	0
19398656	0	0
19922944	0	0
20447232	0	0
20971520	0	0
21495808	0	0
22020096	0	0
22544384	0	0
23068672	0	0
23592960	0	0
24117248	0	0
24641536	0	0
25165824	0	0
25690112	0	0
26214400	0	0
26738688	0	0
27262976	0	0
27787264	0	0
28311552	0	0
28835840	0	0
29360128	0	0
29884416	0	0
30408704	0	0
30932992	0	0
31457280	0	0
31981568	0	0
32505856	0	0
33030144	0	0
33554432	0	0
34603008	0	0
35651584	0	0
36700160	0	0
37748736	0	0
38797312	0	0
39845888	0	0
40894464	0	0
41943040	0	0
42991616	0	0
44040192	0	0
45088768	0	0
46137344	0	0
47185920	0	0
48234496	0	0
49283072	0	0
50331648	0	0
51380224	0	0
52428800	0	0
53477376	0	0
54525952	0	0
55574528	0	0
56623104	0	0
57671680	0	0
58720256	0	0
59768832	0	0
60817408	0	0
61865984	0	0
62914560	0	0
63963136	0	0
65011712	0	0
66060288	0	0
67108864	0	0
69206016	0	0
71303168	0	0
73400320	0	0
75497472	0	0
77594624	0	0
79691776	0	0
81788928	0	0
83886080	0	0
85983232	0	0
88080384	0	0
90177536	0	0
92274688	0	0
94371840	0	0
96468992	0	0
98566144	0	0
100663296	0	0
102760448	0	0
104857600	0	0
106954752	0	0
109051904	0	0
111149056	0	0
113246208	0	0
115343360	0	0
117440512	0	0
119537664	0	0
121634816	0	0
123731968	0	0
125829120	0	0
127926272	0	0
130023424	0	0
132120576	0	0
134217728	0	0
138412032	0	0
142606336	0	0
146800640	0	0
150994944	0	0
155189248	0	0
159383552	0	0
163577856	0	0
167772160	0	0
171966464	0	0
176160768	0	0
180355072	0	0
184549376	0	0
188743680	0	0
192937984	0	0
197132288	0	0
201326592	0	0
205520896	0	0
209715200	0	0
213909504	0	0
218103808	0	0
222298112	0	0
226492416	0	0
230686720	0	0
234881024	0	0
239075328	0	0
243269632	0	0
247463936	0	0
251658240	0	0
255852544	0	0
260046848	0	0
264241152	0	0
268435456	0	0
276824064	0	0
285212672	0	0
293601280	0	0
301989888	0	0
310378496	0	0
318767104	0	0
327155712	0	0
335544320	0	0
343932928	0	0
352321536	0	0
360710144	0	0
369098752	0	0
377487360	0	0
385875968	0	0
394264576	0	0
402653184	0	0
411041792	0	0
419430400	0	0
427819008	0	0
436207616	0	0
444596224	0	0
452984832	0	0
461373440	0	0
469762048	0	0
478150656	0	0
486539264	0	0
494927872	0	0
503316480	0	0
511705088	0	0
520093696	0	0
528482304	0	0
536870912	0	0
553648128	0	0
570425344	0	0
587202560	0	0
603979776	0	0
620756992	0	0
637534208	0	0
654311424	0	0
671088640	0	0
687865856	0	0
704643072	0	0
721420288	0	0
738197504	0	0
754974720	0	0
771751936	0	0
788529152	0	0
805306368	0	0
822083584	0	0
838860800	0	0
855638016	0	0
872415232	0	0
889192448	0	0
905969664	0	0
922746880	0	0
939524096	0	0
956301312	0	0
973078528	0	0
989855744	0	0
1006632960	0	0
1023410176	0	0
1040187392	0	0
1056964608	0	0
1073741824	0	0
1107296256	0	0
1140850688	0	0
1174405120	0	0
1207959552	0	0
1241513984	0	0
1275068416	0	0
1308622848	0	0
1342177280	0	0
1375731712	0	0
1409286144	0	0
1442840576	0	0
1476395008	0	0
1509949440	0	0
1543503872	0	0
1577058304	0	0
1610612736	0	0
1644167168	0	0
1677721600	0	0
1711276032	0	0
1744830464	0	0
1778384896	0	0
1811939328	0	0
1845493760	0	0
1879048192	0	0
1912602624	0	0
1946157056	0	0
1979711488	0	0
2013265920	0	0
2046820352	0	0
2080374784	0	0
2113929216	0	0
2147483648	0	0
2214592512	0	0
2281701376	0	0
2348810240	0	0
2415919104	0	0
2483027968	0	0
2550136832	0	0
2617245696	0	0
2684354560	0	0
2751463424	0	0
2818572288	0	0
2885681152	0	0
2952790016	0	0
3019898880	0	0
3087007744	0	0
3154116608	0	0
3221225472	0	0
3288334336	0	0
3355443200	0	0
3422552064	0	0
3489660928	0	0
3556769792	0	0
3623878656	0	0
3690987520	0	0
3758096384	0	0
3825205248	0	0
3892314112	0	0
3959422976	0	0
4026531840	0	0
4093640704	0	0
4160749568	0	0
4227858432	0	0
~~~~~~~~~~Reuse Distance Profiler output end~~~~~~~~~~

Sampler size:0

DRAM Statistics
 CHANNEL 0
 RQ ROW_BUFFER_HIT:      93018  ROW_BUFFER_MISS:    1320163
 DBUS AVG_CONGESTED_CYCLE:    3.95677
 WQ ROW_BUFFER_HIT:      87842  ROW_BUFFER_MISS:     505208  FULL:          0


CPU 0 Branch Prediction Accuracy: 83.7549% MPKI: 6.14719 Average ROB Occupancy at Mispredict: 84.5758
Branch type MPKI
BRANCH_DIRECT_JUMP: 0.000116667
BRANCH_INDIRECT: 0.000336
BRANCH_CONDITIONAL: 6.07375
BRANCH_DIRECT_CALL: 0.000191333
BRANCH_INDIRECT_CALL: 0.00730333
BRANCH_RETURN: 0.0654913

