
*** ChampSim Multicore Out-of-Order Simulator ***

Warmup Instructions: 50000000
Simulation Instructions: 1500000000
Number of CPUs: 1
Off-chip DRAM Size: 4 GiB Channels: 1 Width: 64-bit Data Rate: 3200 MT/s

VirtualMemory physical capacity: 8588881920 num_ppages: 2096895
VirtualMemory page size: 4096 log2_page_size: 12

CPU 0 runs /s/traces/champsim_traces/641.leela_s-1083B.champsimtrace.xz
CPU 0 Bimodal branch predictor
Basic BTB sets: 1024 ways: 8 indirect buffer size: 4096 RAS size: 64
Initializing LRU.
Initializing LRU.
Initializing LRU.
Initializing LRU.
Initializing rdLRU.
Initializing LRU.
Initializing LRU.
Heartbeat CPU 0 instructions: 2000000 cycles: 501549 heartbeat IPC: 3.98765 cumulative IPC: 3.98765 (Simulation time: 0 hr 0 min 58 sec) 
Heartbeat CPU 0 instructions: 4000000 cycles: 1003570 heartbeat IPC: 3.9839 cumulative IPC: 3.98577 (Simulation time: 0 hr 2 min 0 sec) 
Heartbeat CPU 0 instructions: 6000001 cycles: 1506283 heartbeat IPC: 3.97842 cumulative IPC: 3.98332 (Simulation time: 0 hr 3 min 1 sec) 
Heartbeat CPU 0 instructions: 8000002 cycles: 2008293 heartbeat IPC: 3.98399 cumulative IPC: 3.98348 (Simulation time: 0 hr 4 min 3 sec) 
Heartbeat CPU 0 instructions: 10000002 cycles: 2510303 heartbeat IPC: 3.98398 cumulative IPC: 3.98358 (Simulation time: 0 hr 5 min 2 sec) 
Heartbeat CPU 0 instructions: 12000002 cycles: 3012310 heartbeat IPC: 3.98401 cumulative IPC: 3.98365 (Simulation time: 0 hr 6 min 4 sec) 
Heartbeat CPU 0 instructions: 14000000 cycles: 3514320 heartbeat IPC: 3.98398 cumulative IPC: 3.9837 (Simulation time: 0 hr 7 min 6 sec) 
Heartbeat CPU 0 instructions: 16000003 cycles: 4016995 heartbeat IPC: 3.97872 cumulative IPC: 3.98308 (Simulation time: 0 hr 8 min 8 sec) 
Heartbeat CPU 0 instructions: 18000003 cycles: 4519088 heartbeat IPC: 3.98333 cumulative IPC: 3.98311 (Simulation time: 0 hr 9 min 11 sec) 
Heartbeat CPU 0 instructions: 20000003 cycles: 5020425 heartbeat IPC: 3.98933 cumulative IPC: 3.98373 (Simulation time: 0 hr 10 min 13 sec) 
Heartbeat CPU 0 instructions: 22000000 cycles: 5522434 heartbeat IPC: 3.98399 cumulative IPC: 3.98375 (Simulation time: 0 hr 11 min 15 sec) 
Heartbeat CPU 0 instructions: 24000003 cycles: 6025115 heartbeat IPC: 3.97867 cumulative IPC: 3.98333 (Simulation time: 0 hr 12 min 17 sec) 
Heartbeat CPU 0 instructions: 26000003 cycles: 6527178 heartbeat IPC: 3.98356 cumulative IPC: 3.98335 (Simulation time: 0 hr 13 min 20 sec) 
Heartbeat CPU 0 instructions: 28000000 cycles: 7029187 heartbeat IPC: 3.98399 cumulative IPC: 3.98339 (Simulation time: 0 hr 14 min 20 sec) 
Heartbeat CPU 0 instructions: 30000000 cycles: 7531197 heartbeat IPC: 3.98398 cumulative IPC: 3.98343 (Simulation time: 0 hr 15 min 23 sec) 
Heartbeat CPU 0 instructions: 32000001 cycles: 8033217 heartbeat IPC: 3.98391 cumulative IPC: 3.98346 (Simulation time: 0 hr 16 min 25 sec) 
Heartbeat CPU 0 instructions: 34000003 cycles: 8534558 heartbeat IPC: 3.9893 cumulative IPC: 3.9838 (Simulation time: 0 hr 17 min 29 sec) 
Heartbeat CPU 0 instructions: 36000003 cycles: 9037237 heartbeat IPC: 3.97868 cumulative IPC: 3.98352 (Simulation time: 0 hr 18 min 30 sec) 
Heartbeat CPU 0 instructions: 38000000 cycles: 9538576 heartbeat IPC: 3.98931 cumulative IPC: 3.98382 (Simulation time: 0 hr 19 min 31 sec) 
Heartbeat CPU 0 instructions: 40000002 cycles: 10040583 heartbeat IPC: 3.98401 cumulative IPC: 3.98383 (Simulation time: 0 hr 20 min 34 sec) 
Heartbeat CPU 0 instructions: 42000000 cycles: 10542592 heartbeat IPC: 3.98399 cumulative IPC: 3.98384 (Simulation time: 0 hr 21 min 33 sec) 
Heartbeat CPU 0 instructions: 44000001 cycles: 11044653 heartbeat IPC: 3.98358 cumulative IPC: 3.98383 (Simulation time: 0 hr 22 min 36 sec) 
Heartbeat CPU 0 instructions: 46000002 cycles: 11546027 heartbeat IPC: 3.98904 cumulative IPC: 3.98405 (Simulation time: 0 hr 23 min 38 sec) 
Heartbeat CPU 0 instructions: 48000000 cycles: 12048735 heartbeat IPC: 3.97845 cumulative IPC: 3.98382 (Simulation time: 0 hr 24 min 37 sec) 
Heartbeat CPU 0 instructions: 50000001 cycles: 12550757 heartbeat IPC: 3.98389 cumulative IPC: 3.98382 (Simulation time: 0 hr 25 min 37 sec) 

Warmup complete CPU 0 instructions: 50000001 cycles: 12550757 (Simulation time: 0 hr 25 min 37 sec) 

Heartbeat CPU 0 instructions: 52000002 cycles: 14557534 heartbeat IPC: 0.996623 cumulative IPC: 0.996623 (Simulation time: 0 hr 26 min 39 sec) 

Region of Interest Statistics
cpu0_DTLB TOTAL     ACCESS:     389789  HIT:     388890  MISS:        899
cpu0_DTLB LOAD      ACCESS:     273983  HIT:     273122  MISS:        861
cpu0_DTLB RFO       ACCESS:     115806  HIT:     115768  MISS:         38
cpu0_DTLB PREFETCH  ACCESS:          0  HIT:          0  MISS:          0
cpu0_DTLB WRITEBACK ACCESS:          0  HIT:          0  MISS:          0
cpu0_ITLB TOTAL     ACCESS:     221760  HIT:     221760  MISS:          0
cpu0_ITLB LOAD      ACCESS:     221760  HIT:     221760  MISS:          0
cpu0_ITLB RFO       ACCESS:          0  HIT:          0  MISS:          0
cpu0_ITLB PREFETCH  ACCESS:          0  HIT:          0  MISS:          0
cpu0_ITLB WRITEBACK ACCESS:          0  HIT:          0  MISS:          0
cpu0_L1I TOTAL     ACCESS:     122737  HIT:     122629  MISS:        108
cpu0_L1I LOAD      ACCESS:     122737  HIT:     122629  MISS:        108
cpu0_L1I RFO       ACCESS:          0  HIT:          0  MISS:          0
cpu0_L1I PREFETCH  ACCESS:          0  HIT:          0  MISS:          0
cpu0_L1I WRITEBACK ACCESS:          0  HIT:          0  MISS:          0
cpu0_STLB TOTAL     ACCESS:        899  HIT:        892  MISS:          7
cpu0_STLB LOAD      ACCESS:        861  HIT:        854  MISS:          7
cpu0_STLB RFO       ACCESS:         38  HIT:         38  MISS:          0
cpu0_STLB PREFETCH  ACCESS:          0  HIT:          0  MISS:          0
cpu0_STLB WRITEBACK ACCESS:          0  HIT:          0  MISS:          0
cpu0_L1D TOTAL     ACCESS:     531418  HIT:     525451  MISS:       5967
cpu0_L1D LOAD      ACCESS:     311825  HIT:     306618  MISS:       5207
cpu0_L1D RFO       ACCESS:     219586  HIT:     218829  MISS:        757
cpu0_L1D PREFETCH  ACCESS:          0  HIT:          0  MISS:          0
cpu0_L1D WRITEBACK ACCESS:          0  HIT:          0  MISS:          0
cpu0_L2C TOTAL     ACCESS:       7481  HIT:       6973  MISS:        508
cpu0_L2C LOAD      ACCESS:       5315  HIT:       4812  MISS:        503
cpu0_L2C RFO       ACCESS:        757  HIT:        754  MISS:          3
cpu0_L2C PREFETCH  ACCESS:          0  HIT:          0  MISS:          0
cpu0_L2C WRITEBACK ACCESS:       1406  HIT:       1406  MISS:          0
LLC TOTAL     ACCESS:        565  HIT:        378  MISS:        187
LLC LOAD      ACCESS:        503  HIT:        316  MISS:        187
LLC RFO       ACCESS:          3  HIT:          3  MISS:          0
LLC PREFETCH  ACCESS:          0  HIT:          0  MISS:          0
LLC WRITEBACK ACCESS:         57  HIT:         57  MISS:          0
Heartbeat CPU 0 instructions: 54000000 cycles: 16535063 heartbeat IPC: 1.01136 cumulative IPC: 1.00394 (Simulation time: 0 hr 27 min 35 sec) 

Region of Interest Statistics
cpu0_DTLB TOTAL     ACCESS:     778795  HIT:     777029  MISS:       1766
cpu0_DTLB LOAD      ACCESS:     544191  HIT:     542516  MISS:       1675
cpu0_DTLB RFO       ACCESS:     234604  HIT:     234513  MISS:         91
cpu0_DTLB PREFETCH  ACCESS:          0  HIT:          0  MISS:          0
cpu0_DTLB WRITEBACK ACCESS:          0  HIT:          0  MISS:          0
cpu0_ITLB TOTAL     ACCESS:     439943  HIT:     439943  MISS:          0
cpu0_ITLB LOAD      ACCESS:     439943  HIT:     439943  MISS:          0
cpu0_ITLB RFO       ACCESS:          0  HIT:          0  MISS:          0
cpu0_ITLB PREFETCH  ACCESS:          0  HIT:          0  MISS:          0
cpu0_ITLB WRITEBACK ACCESS:          0  HIT:          0  MISS:          0
cpu0_L1I TOTAL     ACCESS:     253250  HIT:     253046  MISS:        204
cpu0_L1I LOAD      ACCESS:     253250  HIT:     253046  MISS:        204
cpu0_L1I RFO       ACCESS:          0  HIT:          0  MISS:          0
cpu0_L1I PREFETCH  ACCESS:          0  HIT:          0  MISS:          0
cpu0_L1I WRITEBACK ACCESS:          0  HIT:          0  MISS:          0
cpu0_STLB TOTAL     ACCESS:       1766  HIT:       1748  MISS:         18
cpu0_STLB LOAD      ACCESS:       1675  HIT:       1658  MISS:         17
cpu0_STLB RFO       ACCESS:         91  HIT:         90  MISS:          1
cpu0_STLB PREFETCH  ACCESS:          0  HIT:          0  MISS:          0
cpu0_STLB WRITEBACK ACCESS:          0  HIT:          0  MISS:          0
cpu0_L1D TOTAL     ACCESS:    1067607  HIT:    1056538  MISS:      11069
cpu0_L1D LOAD      ACCESS:     619334  HIT:     609801  MISS:       9533
cpu0_L1D RFO       ACCESS:     448255  HIT:     446728  MISS:       1527
cpu0_L1D PREFETCH  ACCESS:          0  HIT:          0  MISS:          0
cpu0_L1D WRITEBACK ACCESS:          0  HIT:          0  MISS:          0
cpu0_L2C TOTAL     ACCESS:      13819  HIT:      12773  MISS:       1046
cpu0_L2C LOAD      ACCESS:       9737  HIT:       8834  MISS:        903
cpu0_L2C RFO       ACCESS:       1527  HIT:       1388  MISS:        139
cpu0_L2C PREFETCH  ACCESS:          0  HIT:          0  MISS:          0
cpu0_L2C WRITEBACK ACCESS:       2546  HIT:       2546  MISS:          0
LLC TOTAL     ACCESS:       1197  HIT:        693  MISS:        504
LLC LOAD      ACCESS:        903  HIT:        520  MISS:        383
LLC RFO       ACCESS:        139  HIT:         18  MISS:        121
LLC PREFETCH  ACCESS:          0  HIT:          0  MISS:          0
LLC WRITEBACK ACCESS:        151  HIT:        151  MISS:          0
Heartbeat CPU 0 instructions: 56000001 cycles: 18553401 heartbeat IPC: 0.990915 cumulative IPC: 0.99956 (Simulation time: 0 hr 28 min 30 sec) 

Region of Interest Statistics
cpu0_DTLB TOTAL     ACCESS:    1174815  HIT:    1172186  MISS:       2629
cpu0_DTLB LOAD      ACCESS:     822607  HIT:     820103  MISS:       2504
cpu0_DTLB RFO       ACCESS:     352208  HIT:     352083  MISS:        125
cpu0_DTLB PREFETCH  ACCESS:          0  HIT:          0  MISS:          0
cpu0_DTLB WRITEBACK ACCESS:          0  HIT:          0  MISS:          0
cpu0_ITLB TOTAL     ACCESS:     663788  HIT:     663788  MISS:          0
cpu0_ITLB LOAD      ACCESS:     663788  HIT:     663788  MISS:          0
cpu0_ITLB RFO       ACCESS:          0  HIT:          0  MISS:          0
cpu0_ITLB PREFETCH  ACCESS:          0  HIT:          0  MISS:          0
cpu0_ITLB WRITEBACK ACCESS:          0  HIT:          0  MISS:          0
cpu0_L1I TOTAL     ACCESS:     376047  HIT:     375748  MISS:        299
cpu0_L1I LOAD      ACCESS:     376047  HIT:     375748  MISS:        299
cpu0_L1I RFO       ACCESS:          0  HIT:          0  MISS:          0
cpu0_L1I PREFETCH  ACCESS:          0  HIT:          0  MISS:          0
cpu0_L1I WRITEBACK ACCESS:          0  HIT:          0  MISS:          0
cpu0_STLB TOTAL     ACCESS:       2629  HIT:       2607  MISS:         22
cpu0_STLB LOAD      ACCESS:       2504  HIT:       2485  MISS:         19
cpu0_STLB RFO       ACCESS:        125  HIT:        122  MISS:          3
cpu0_STLB PREFETCH  ACCESS:          0  HIT:          0  MISS:          0
cpu0_STLB WRITEBACK ACCESS:          0  HIT:          0  MISS:          0
cpu0_L1D TOTAL     ACCESS:    1606722  HIT:    1590709  MISS:      16013
cpu0_L1D LOAD      ACCESS:     936413  HIT:     922537  MISS:      13876
cpu0_L1D RFO       ACCESS:     670288  HIT:     668163  MISS:       2125
cpu0_L1D PREFETCH  ACCESS:          0  HIT:          0  MISS:          0
cpu0_L1D WRITEBACK ACCESS:          0  HIT:          0  MISS:          0
cpu0_L2C TOTAL     ACCESS:      20082  HIT:      18820  MISS:       1262
cpu0_L2C LOAD      ACCESS:      14175  HIT:      13088  MISS:       1087
cpu0_L2C RFO       ACCESS:       2125  HIT:       1956  MISS:        169
cpu0_L2C PREFETCH  ACCESS:          0  HIT:          0  MISS:          0
cpu0_L2C WRITEBACK ACCESS:       3770  HIT:       3768  MISS:          2
LLC TOTAL     ACCESS:       1451  HIT:        900  MISS:        551
LLC LOAD      ACCESS:       1087  HIT:        683  MISS:        404
LLC RFO       ACCESS:        169  HIT:         22  MISS:        147
LLC PREFETCH  ACCESS:          0  HIT:          0  MISS:          0
LLC WRITEBACK ACCESS:        191  HIT:        191  MISS:          0
Heartbeat CPU 0 instructions: 58000001 cycles: 20518158 heartbeat IPC: 1.01794 cumulative IPC: 1.00409 (Simulation time: 0 hr 29 min 24 sec) 

Region of Interest Statistics
cpu0_DTLB TOTAL     ACCESS:    1565635  HIT:    1562123  MISS:       3512
cpu0_DTLB LOAD      ACCESS:    1096968  HIT:    1093614  MISS:       3354
cpu0_DTLB RFO       ACCESS:     468667  HIT:     468509  MISS:        158
cpu0_DTLB PREFETCH  ACCESS:          0  HIT:          0  MISS:          0
cpu0_DTLB WRITEBACK ACCESS:          0  HIT:          0  MISS:          0
cpu0_ITLB TOTAL     ACCESS:     885859  HIT:     885859  MISS:          0
cpu0_ITLB LOAD      ACCESS:     885859  HIT:     885859  MISS:          0
cpu0_ITLB RFO       ACCESS:          0  HIT:          0  MISS:          0
cpu0_ITLB PREFETCH  ACCESS:          0  HIT:          0  MISS:          0
cpu0_ITLB WRITEBACK ACCESS:          0  HIT:          0  MISS:          0
cpu0_L1I TOTAL     ACCESS:     498300  HIT:     497910  MISS:        390
cpu0_L1I LOAD      ACCESS:     498300  HIT:     497910  MISS:        390
cpu0_L1I RFO       ACCESS:          0  HIT:          0  MISS:          0
cpu0_L1I PREFETCH  ACCESS:          0  HIT:          0  MISS:          0
cpu0_L1I WRITEBACK ACCESS:          0  HIT:          0  MISS:          0
cpu0_STLB TOTAL     ACCESS:       3512  HIT:       3488  MISS:         24
cpu0_STLB LOAD      ACCESS:       3354  HIT:       3333  MISS:         21
cpu0_STLB RFO       ACCESS:        158  HIT:        155  MISS:          3
cpu0_STLB PREFETCH  ACCESS:          0  HIT:          0  MISS:          0
cpu0_STLB WRITEBACK ACCESS:          0  HIT:          0  MISS:          0
cpu0_L1D TOTAL     ACCESS:    2140496  HIT:    2119356  MISS:      21140
cpu0_L1D LOAD      ACCESS:    1248463  HIT:    1230066  MISS:      18397
cpu0_L1D RFO       ACCESS:     892010  HIT:     889280  MISS:       2730
cpu0_L1D PREFETCH  ACCESS:          0  HIT:          0  MISS:          0
cpu0_L1D WRITEBACK ACCESS:          0  HIT:          0  MISS:          0
cpu0_L2C TOTAL     ACCESS:      26455  HIT:      24889  MISS:       1566
cpu0_L2C LOAD      ACCESS:      18787  HIT:      17399  MISS:       1388
cpu0_L2C RFO       ACCESS:       2730  HIT:       2560  MISS:        170
cpu0_L2C PREFETCH  ACCESS:          0  HIT:          0  MISS:          0
cpu0_L2C WRITEBACK ACCESS:       4925  HIT:       4921  MISS:          4
LLC TOTAL     ACCESS:       1812  HIT:       1076  MISS:        736
LLC LOAD      ACCESS:       1388  HIT:        799  MISS:        589
LLC RFO       ACCESS:        170  HIT:         23  MISS:        147
LLC PREFETCH  ACCESS:          0  HIT:          0  MISS:          0
LLC WRITEBACK ACCESS:        250  HIT:        250  MISS:          0
Heartbeat CPU 0 instructions: 60000003 cycles: 22487443 heartbeat IPC: 1.0156 cumulative IPC: 1.00637 (Simulation time: 0 hr 30 min 19 sec) 

Region of Interest Statistics
cpu0_DTLB TOTAL     ACCESS:    1958095  HIT:    1953730  MISS:       4365
cpu0_DTLB LOAD      ACCESS:    1371848  HIT:    1367678  MISS:       4170
cpu0_DTLB RFO       ACCESS:     586247  HIT:     586052  MISS:        195
cpu0_DTLB PREFETCH  ACCESS:          0  HIT:          0  MISS:          0
cpu0_DTLB WRITEBACK ACCESS:          0  HIT:          0  MISS:          0
cpu0_ITLB TOTAL     ACCESS:    1108610  HIT:    1108610  MISS:          0
cpu0_ITLB LOAD      ACCESS:    1108610  HIT:    1108610  MISS:          0
cpu0_ITLB RFO       ACCESS:          0  HIT:          0  MISS:          0
cpu0_ITLB PREFETCH  ACCESS:          0  HIT:          0  MISS:          0
cpu0_ITLB WRITEBACK ACCESS:          0  HIT:          0  MISS:          0
cpu0_L1I TOTAL     ACCESS:     620956  HIT:     620476  MISS:        480
cpu0_L1I LOAD      ACCESS:     620956  HIT:     620476  MISS:        480
cpu0_L1I RFO       ACCESS:          0  HIT:          0  MISS:          0
cpu0_L1I PREFETCH  ACCESS:          0  HIT:          0  MISS:          0
cpu0_L1I WRITEBACK ACCESS:          0  HIT:          0  MISS:          0
cpu0_STLB TOTAL     ACCESS:       4365  HIT:       4341  MISS:         24
cpu0_STLB LOAD      ACCESS:       4170  HIT:       4149  MISS:         21
cpu0_STLB RFO       ACCESS:        195  HIT:        192  MISS:          3
cpu0_STLB PREFETCH  ACCESS:          0  HIT:          0  MISS:          0
cpu0_STLB WRITEBACK ACCESS:          0  HIT:          0  MISS:          0
cpu0_L1D TOTAL     ACCESS:    2678360  HIT:    2652462  MISS:      25898
cpu0_L1D LOAD      ACCESS:    1561443  HIT:    1538841  MISS:      22602
cpu0_L1D RFO       ACCESS:    1116894  HIT:    1113611  MISS:       3283
cpu0_L1D PREFETCH  ACCESS:          0  HIT:          0  MISS:          0
cpu0_L1D WRITEBACK ACCESS:          0  HIT:          0  MISS:          0
cpu0_L2C TOTAL     ACCESS:      32349  HIT:      30636  MISS:       1713
cpu0_L2C LOAD      ACCESS:      23082  HIT:      21552  MISS:       1530
cpu0_L2C RFO       ACCESS:       3283  HIT:       3109  MISS:        174
cpu0_L2C PREFETCH  ACCESS:          0  HIT:          0  MISS:          0
cpu0_L2C WRITEBACK ACCESS:       5971  HIT:       5966  MISS:          5
LLC TOTAL     ACCESS:       1994  HIT:       1247  MISS:        747
LLC LOAD      ACCESS:       1530  HIT:        930  MISS:        600
LLC RFO       ACCESS:        174  HIT:         27  MISS:        147
LLC PREFETCH  ACCESS:          0  HIT:          0  MISS:          0
LLC WRITEBACK ACCESS:        286  HIT:        286  MISS:          0
Heartbeat CPU 0 instructions: 62000002 cycles: 24428628 heartbeat IPC: 1.0303 cumulative IPC: 1.01028 (Simulation time: 0 hr 31 min 12 sec) 

Region of Interest Statistics
cpu0_DTLB TOTAL     ACCESS:    2341447  HIT:    2336160  MISS:       5287
cpu0_DTLB LOAD      ACCESS:    1637743  HIT:    1632694  MISS:       5049
cpu0_DTLB RFO       ACCESS:     703704  HIT:     703466  MISS:        238
cpu0_DTLB PREFETCH  ACCESS:          0  HIT:          0  MISS:          0
cpu0_DTLB WRITEBACK ACCESS:          0  HIT:          0  MISS:          0
cpu0_ITLB TOTAL     ACCESS:    1327572  HIT:    1327572  MISS:          0
cpu0_ITLB LOAD      ACCESS:    1327572  HIT:    1327572  MISS:          0
cpu0_ITLB RFO       ACCESS:          0  HIT:          0  MISS:          0
cpu0_ITLB PREFETCH  ACCESS:          0  HIT:          0  MISS:          0
cpu0_ITLB WRITEBACK ACCESS:          0  HIT:          0  MISS:          0
cpu0_L1I TOTAL     ACCESS:     746955  HIT:     746384  MISS:        571
cpu0_L1I LOAD      ACCESS:     746955  HIT:     746384  MISS:        571
cpu0_L1I RFO       ACCESS:          0  HIT:          0  MISS:          0
cpu0_L1I PREFETCH  ACCESS:          0  HIT:          0  MISS:          0
cpu0_L1I WRITEBACK ACCESS:          0  HIT:          0  MISS:          0
cpu0_STLB TOTAL     ACCESS:       5287  HIT:       5262  MISS:         25
cpu0_STLB LOAD      ACCESS:       5049  HIT:       5027  MISS:         22
cpu0_STLB RFO       ACCESS:        238  HIT:        235  MISS:          3
cpu0_STLB PREFETCH  ACCESS:          0  HIT:          0  MISS:          0
cpu0_STLB WRITEBACK ACCESS:          0  HIT:          0  MISS:          0
cpu0_L1D TOTAL     ACCESS:    3206205  HIT:    3174267  MISS:      31938
cpu0_L1D LOAD      ACCESS:    1863824  HIT:    1835872  MISS:      27952
cpu0_L1D RFO       ACCESS:    1342357  HIT:    1338385  MISS:       3972
cpu0_L1D PREFETCH  ACCESS:          0  HIT:          0  MISS:          0
cpu0_L1D WRITEBACK ACCESS:          0  HIT:          0  MISS:          0
cpu0_L2C TOTAL     ACCESS:      39757  HIT:      37385  MISS:       2372
cpu0_L2C LOAD      ACCESS:      28523  HIT:      26343  MISS:       2180
cpu0_L2C RFO       ACCESS:       3972  HIT:       3792  MISS:        180
cpu0_L2C PREFETCH  ACCESS:          0  HIT:          0  MISS:          0
cpu0_L2C WRITEBACK ACCESS:       7248  HIT:       7241  MISS:          7
LLC TOTAL     ACCESS:       2748  HIT:       1983  MISS:        765
LLC LOAD      ACCESS:       2180  HIT:       1563  MISS:        617
LLC RFO       ACCESS:        180  HIT:         32  MISS:        148
LLC PREFETCH  ACCESS:          0  HIT:          0  MISS:          0
LLC WRITEBACK ACCESS:        383  HIT:        383  MISS:          0
Heartbeat CPU 0 instructions: 64000002 cycles: 26432307 heartbeat IPC: 0.998164 cumulative IPC: 1.00853 (Simulation time: 0 hr 31 min 58 sec) 

Region of Interest Statistics
cpu0_DTLB TOTAL     ACCESS:    2736107  HIT:    2729968  MISS:       6139
cpu0_DTLB LOAD      ACCESS:    1913301  HIT:    1907431  MISS:       5870
cpu0_DTLB RFO       ACCESS:     822806  HIT:     822537  MISS:        269
cpu0_DTLB PREFETCH  ACCESS:          0  HIT:          0  MISS:          0
cpu0_DTLB WRITEBACK ACCESS:          0  HIT:          0  MISS:          0
cpu0_ITLB TOTAL     ACCESS:    1552929  HIT:    1552929  MISS:          0
cpu0_ITLB LOAD      ACCESS:    1552929  HIT:    1552929  MISS:          0
cpu0_ITLB RFO       ACCESS:          0  HIT:          0  MISS:          0
cpu0_ITLB PREFETCH  ACCESS:          0  HIT:          0  MISS:          0
cpu0_ITLB WRITEBACK ACCESS:          0  HIT:          0  MISS:          0
cpu0_L1I TOTAL     ACCESS:     872809  HIT:     872148  MISS:        661
cpu0_L1I LOAD      ACCESS:     872809  HIT:     872148  MISS:        661
cpu0_L1I RFO       ACCESS:          0  HIT:          0  MISS:          0
cpu0_L1I PREFETCH  ACCESS:          0  HIT:          0  MISS:          0
cpu0_L1I WRITEBACK ACCESS:          0  HIT:          0  MISS:          0
cpu0_STLB TOTAL     ACCESS:       6139  HIT:       6113  MISS:         26
cpu0_STLB LOAD      ACCESS:       5870  HIT:       5847  MISS:         23
cpu0_STLB RFO       ACCESS:        269  HIT:        266  MISS:          3
cpu0_STLB PREFETCH  ACCESS:          0  HIT:          0  MISS:          0
cpu0_STLB WRITEBACK ACCESS:          0  HIT:          0  MISS:          0
cpu0_L1D TOTAL     ACCESS:    3749506  HIT:    3713022  MISS:      36484
cpu0_L1D LOAD      ACCESS:    2178427  HIT:    2146418  MISS:      32009
cpu0_L1D RFO       ACCESS:    1571054  HIT:    1566594  MISS:       4460
cpu0_L1D PREFETCH  ACCESS:          0  HIT:          0  MISS:          0
cpu0_L1D WRITEBACK ACCESS:          0  HIT:          0  MISS:          0
cpu0_L2C TOTAL     ACCESS:      45326  HIT:      42159  MISS:       3167
cpu0_L2C LOAD      ACCESS:      32670  HIT:      29702  MISS:       2968
cpu0_L2C RFO       ACCESS:       4460  HIT:       4277  MISS:        183
cpu0_L2C PREFETCH  ACCESS:          0  HIT:          0  MISS:          0
cpu0_L2C WRITEBACK ACCESS:       8181  HIT:       8171  MISS:         10
LLC TOTAL     ACCESS:       3728  HIT:       2951  MISS:        777
LLC LOAD      ACCESS:       2968  HIT:       2340  MISS:        628
LLC RFO       ACCESS:        183  HIT:         34  MISS:        149
LLC PREFETCH  ACCESS:          0  HIT:          0  MISS:          0
LLC WRITEBACK ACCESS:        571  HIT:        571  MISS:          0
Heartbeat CPU 0 instructions: 66000001 cycles: 28372585 heartbeat IPC: 1.03078 cumulative IPC: 1.01126 (Simulation time: 0 hr 32 min 49 sec) 

Region of Interest Statistics
cpu0_DTLB TOTAL     ACCESS:    3124647  HIT:    3117649  MISS:       6998
cpu0_DTLB LOAD      ACCESS:    2184588  HIT:    2177894  MISS:       6694
cpu0_DTLB RFO       ACCESS:     940059  HIT:     939755  MISS:        304
cpu0_DTLB PREFETCH  ACCESS:          0  HIT:          0  MISS:          0
cpu0_DTLB WRITEBACK ACCESS:          0  HIT:          0  MISS:          0
cpu0_ITLB TOTAL     ACCESS:    1773070  HIT:    1773070  MISS:          0
cpu0_ITLB LOAD      ACCESS:    1773070  HIT:    1773070  MISS:          0
cpu0_ITLB RFO       ACCESS:          0  HIT:          0  MISS:          0
cpu0_ITLB PREFETCH  ACCESS:          0  HIT:          0  MISS:          0
cpu0_ITLB WRITEBACK ACCESS:          0  HIT:          0  MISS:          0
cpu0_L1I TOTAL     ACCESS:     996124  HIT:     995372  MISS:        752
cpu0_L1I LOAD      ACCESS:     996124  HIT:     995372  MISS:        752
cpu0_L1I RFO       ACCESS:          0  HIT:          0  MISS:          0
cpu0_L1I PREFETCH  ACCESS:          0  HIT:          0  MISS:          0
cpu0_L1I WRITEBACK ACCESS:          0  HIT:          0  MISS:          0
cpu0_STLB TOTAL     ACCESS:       6998  HIT:       6971  MISS:         27
cpu0_STLB LOAD      ACCESS:       6694  HIT:       6670  MISS:         24
cpu0_STLB RFO       ACCESS:        304  HIT:        301  MISS:          3
cpu0_STLB PREFETCH  ACCESS:          0  HIT:          0  MISS:          0
cpu0_STLB WRITEBACK ACCESS:          0  HIT:          0  MISS:          0
cpu0_L1D TOTAL     ACCESS:    4283048  HIT:    4241538  MISS:      41510
cpu0_L1D LOAD      ACCESS:    2487498  HIT:    2451020  MISS:      36478
cpu0_L1D RFO       ACCESS:    1795524  HIT:    1790508  MISS:       5016
cpu0_L1D PREFETCH  ACCESS:          0  HIT:          0  MISS:          0
cpu0_L1D WRITEBACK ACCESS:          0  HIT:          0  MISS:          0
cpu0_L2C TOTAL     ACCESS:      51549  HIT:      47989  MISS:       3560
cpu0_L2C LOAD      ACCESS:      37230  HIT:      33879  MISS:       3351
cpu0_L2C RFO       ACCESS:       5016  HIT:       4831  MISS:        185
cpu0_L2C PREFETCH  ACCESS:          0  HIT:          0  MISS:          0
cpu0_L2C WRITEBACK ACCESS:       9287  HIT:       9269  MISS:         18
LLC TOTAL     ACCESS:       4178  HIT:       3391  MISS:        787
LLC LOAD      ACCESS:       3351  HIT:       2713  MISS:        638
LLC RFO       ACCESS:        185  HIT:         36  MISS:        149
LLC PREFETCH  ACCESS:          0  HIT:          0  MISS:          0
LLC WRITEBACK ACCESS:        636  HIT:        636  MISS:          0
Heartbeat CPU 0 instructions: 68000002 cycles: 30341773 heartbeat IPC: 1.01565 cumulative IPC: 1.01175 (Simulation time: 0 hr 33 min 38 sec) 

Region of Interest Statistics
cpu0_DTLB TOTAL     ACCESS:    3516244  HIT:    3508428  MISS:       7816
cpu0_DTLB LOAD      ACCESS:    2458224  HIT:    2450742  MISS:       7482
cpu0_DTLB RFO       ACCESS:    1058020  HIT:    1057686  MISS:        334
cpu0_DTLB PREFETCH  ACCESS:          0  HIT:          0  MISS:          0
cpu0_DTLB WRITEBACK ACCESS:          0  HIT:          0  MISS:          0
cpu0_ITLB TOTAL     ACCESS:    1994416  HIT:    1994416  MISS:          0
cpu0_ITLB LOAD      ACCESS:    1994416  HIT:    1994416  MISS:          0
cpu0_ITLB RFO       ACCESS:          0  HIT:          0  MISS:          0
cpu0_ITLB PREFETCH  ACCESS:          0  HIT:          0  MISS:          0
cpu0_ITLB WRITEBACK ACCESS:          0  HIT:          0  MISS:          0
cpu0_L1I TOTAL     ACCESS:    1119583  HIT:    1118734  MISS:        849
cpu0_L1I LOAD      ACCESS:    1119583  HIT:    1118734  MISS:        849
cpu0_L1I RFO       ACCESS:          0  HIT:          0  MISS:          0
cpu0_L1I PREFETCH  ACCESS:          0  HIT:          0  MISS:          0
cpu0_L1I WRITEBACK ACCESS:          0  HIT:          0  MISS:          0
cpu0_STLB TOTAL     ACCESS:       7816  HIT:       7789  MISS:         27
cpu0_STLB LOAD      ACCESS:       7482  HIT:       7458  MISS:         24
cpu0_STLB RFO       ACCESS:        334  HIT:        331  MISS:          3
cpu0_STLB PREFETCH  ACCESS:          0  HIT:          0  MISS:          0
cpu0_STLB WRITEBACK ACCESS:          0  HIT:          0  MISS:          0
cpu0_L1D TOTAL     ACCESS:    4819824  HIT:    4773520  MISS:      46304
cpu0_L1D LOAD      ACCESS:    2798561  HIT:    2757839  MISS:      40722
cpu0_L1D RFO       ACCESS:    2021237  HIT:    2015671  MISS:       5566
cpu0_L1D PREFETCH  ACCESS:          0  HIT:          0  MISS:          0
cpu0_L1D WRITEBACK ACCESS:          0  HIT:          0  MISS:          0
cpu0_L2C TOTAL     ACCESS:      57491  HIT:      53776  MISS:       3715
cpu0_L2C LOAD      ACCESS:      41571  HIT:      38066  MISS:       3505
cpu0_L2C RFO       ACCESS:       5566  HIT:       5380  MISS:        186
cpu0_L2C PREFETCH  ACCESS:          0  HIT:          0  MISS:          0
cpu0_L2C WRITEBACK ACCESS:      10338  HIT:      10320  MISS:         18
LLC TOTAL     ACCESS:       4349  HIT:       3555  MISS:        794
LLC LOAD      ACCESS:       3505  HIT:       2860  MISS:        645
LLC RFO       ACCESS:        186  HIT:         37  MISS:        149
LLC PREFETCH  ACCESS:          0  HIT:          0  MISS:          0
LLC WRITEBACK ACCESS:        652  HIT:        652  MISS:          0
Heartbeat CPU 0 instructions: 70000000 cycles: 32295084 heartbeat IPC: 1.0239 cumulative IPC: 1.01295 (Simulation time: 0 hr 34 min 25 sec) 

Region of Interest Statistics
cpu0_DTLB TOTAL     ACCESS:    3908896  HIT:    3900226  MISS:       8670
cpu0_DTLB LOAD      ACCESS:    2733059  HIT:    2724748  MISS:       8311
cpu0_DTLB RFO       ACCESS:    1175837  HIT:    1175478  MISS:        359
cpu0_DTLB PREFETCH  ACCESS:          0  HIT:          0  MISS:          0
cpu0_DTLB WRITEBACK ACCESS:          0  HIT:          0  MISS:          0
cpu0_ITLB TOTAL     ACCESS:    2215500  HIT:    2215500  MISS:          0
cpu0_ITLB LOAD      ACCESS:    2215500  HIT:    2215500  MISS:          0
cpu0_ITLB RFO       ACCESS:          0  HIT:          0  MISS:          0
cpu0_ITLB PREFETCH  ACCESS:          0  HIT:          0  MISS:          0
cpu0_ITLB WRITEBACK ACCESS:          0  HIT:          0  MISS:          0
cpu0_L1I TOTAL     ACCESS:    1243570  HIT:    1242630  MISS:        940
cpu0_L1I LOAD      ACCESS:    1243570  HIT:    1242630  MISS:        940
cpu0_L1I RFO       ACCESS:          0  HIT:          0  MISS:          0
cpu0_L1I PREFETCH  ACCESS:          0  HIT:          0  MISS:          0
cpu0_L1I WRITEBACK ACCESS:          0  HIT:          0  MISS:          0
cpu0_STLB TOTAL     ACCESS:       8670  HIT:       8643  MISS:         27
cpu0_STLB LOAD      ACCESS:       8311  HIT:       8287  MISS:         24
cpu0_STLB RFO       ACCESS:        359  HIT:        356  MISS:          3
cpu0_STLB PREFETCH  ACCESS:          0  HIT:          0  MISS:          0
cpu0_STLB WRITEBACK ACCESS:          0  HIT:          0  MISS:          0
cpu0_L1D TOTAL     ACCESS:    5356759  HIT:    5305687  MISS:      51072
cpu0_L1D LOAD      ACCESS:    3111072  HIT:    3066132  MISS:      44940
cpu0_L1D RFO       ACCESS:    2245661  HIT:    2239545  MISS:       6116
cpu0_L1D PREFETCH  ACCESS:          0  HIT:          0  MISS:          0
cpu0_L1D WRITEBACK ACCESS:          0  HIT:          0  MISS:          0
cpu0_L2C TOTAL     ACCESS:      63397  HIT:      59524  MISS:       3873
cpu0_L2C LOAD      ACCESS:      45880  HIT:      42221  MISS:       3659
cpu0_L2C RFO       ACCESS:       6116  HIT:       5927  MISS:        189
cpu0_L2C PREFETCH  ACCESS:          0  HIT:          0  MISS:          0
cpu0_L2C WRITEBACK ACCESS:      11385  HIT:      11366  MISS:         19
LLC TOTAL     ACCESS:       4527  HIT:       3714  MISS:        813
LLC LOAD      ACCESS:       3659  HIT:       2995  MISS:        664
LLC RFO       ACCESS:        189  HIT:         40  MISS:        149
LLC PREFETCH  ACCESS:          0  HIT:          0  MISS:          0
LLC WRITEBACK ACCESS:        673  HIT:        673  MISS:          0
Heartbeat CPU 0 instructions: 72000000 cycles: 34265037 heartbeat IPC: 1.01525 cumulative IPC: 1.01316 (Simulation time: 0 hr 35 min 22 sec) 

Region of Interest Statistics
cpu0_DTLB TOTAL     ACCESS:    4303333  HIT:    4293776  MISS:       9557
cpu0_DTLB LOAD      ACCESS:    3008375  HIT:    2999221  MISS:       9154
cpu0_DTLB RFO       ACCESS:    1294958  HIT:    1294555  MISS:        403
cpu0_DTLB PREFETCH  ACCESS:          0  HIT:          0  MISS:          0
cpu0_DTLB WRITEBACK ACCESS:          0  HIT:          0  MISS:          0
cpu0_ITLB TOTAL     ACCESS:    2435600  HIT:    2435600  MISS:          0
cpu0_ITLB LOAD      ACCESS:    2435600  HIT:    2435600  MISS:          0
cpu0_ITLB RFO       ACCESS:          0  HIT:          0  MISS:          0
cpu0_ITLB PREFETCH  ACCESS:          0  HIT:          0  MISS:          0
cpu0_ITLB WRITEBACK ACCESS:          0  HIT:          0  MISS:          0
cpu0_L1I TOTAL     ACCESS:    1372676  HIT:    1371642  MISS:       1034
cpu0_L1I LOAD      ACCESS:    1372676  HIT:    1371642  MISS:       1034
cpu0_L1I RFO       ACCESS:          0  HIT:          0  MISS:          0
cpu0_L1I PREFETCH  ACCESS:          0  HIT:          0  MISS:          0
cpu0_L1I WRITEBACK ACCESS:          0  HIT:          0  MISS:          0
cpu0_STLB TOTAL     ACCESS:       9557  HIT:       9525  MISS:         32
cpu0_STLB LOAD      ACCESS:       9154  HIT:       9128  MISS:         26
cpu0_STLB RFO       ACCESS:        403  HIT:        397  MISS:          6
cpu0_STLB PREFETCH  ACCESS:          0  HIT:          0  MISS:          0
cpu0_STLB WRITEBACK ACCESS:          0  HIT:          0  MISS:          0
cpu0_L1D TOTAL     ACCESS:    5896826  HIT:    5840843  MISS:      55983
cpu0_L1D LOAD      ACCESS:    3424369  HIT:    3375243  MISS:      49126
cpu0_L1D RFO       ACCESS:    2472426  HIT:    2465587  MISS:       6839
cpu0_L1D PREFETCH  ACCESS:          0  HIT:          0  MISS:          0
cpu0_L1D WRITEBACK ACCESS:          0  HIT:          0  MISS:          0
cpu0_L2C TOTAL     ACCESS:      69498  HIT:      65324  MISS:       4174
cpu0_L2C LOAD      ACCESS:      50160  HIT:      46354  MISS:       3806
cpu0_L2C RFO       ACCESS:       6839  HIT:       6500  MISS:        339
cpu0_L2C PREFETCH  ACCESS:          0  HIT:          0  MISS:          0
cpu0_L2C WRITEBACK ACCESS:      12481  HIT:      12460  MISS:         21
LLC TOTAL     ACCESS:       4877  HIT:       3909  MISS:        968
LLC LOAD      ACCESS:       3806  HIT:       3129  MISS:        677
LLC RFO       ACCESS:        339  HIT:         48  MISS:        291
LLC PREFETCH  ACCESS:          0  HIT:          0  MISS:          0
LLC WRITEBACK ACCESS:        724  HIT:        724  MISS:          0
Heartbeat CPU 0 instructions: 74000000 cycles: 36229417 heartbeat IPC: 1.01813 cumulative IPC: 1.01357 (Simulation time: 0 hr 36 min 17 sec) 

Region of Interest Statistics
cpu0_DTLB TOTAL     ACCESS:    4690917  HIT:    4680422  MISS:      10495
cpu0_DTLB LOAD      ACCESS:    3279897  HIT:    3269846  MISS:      10051
cpu0_DTLB RFO       ACCESS:    1411020  HIT:    1410576  MISS:        444
cpu0_DTLB PREFETCH  ACCESS:          0  HIT:          0  MISS:          0
cpu0_DTLB WRITEBACK ACCESS:          0  HIT:          0  MISS:          0
cpu0_ITLB TOTAL     ACCESS:    2654861  HIT:    2654861  MISS:          0
cpu0_ITLB LOAD      ACCESS:    2654861  HIT:    2654861  MISS:          0
cpu0_ITLB RFO       ACCESS:          0  HIT:          0  MISS:          0
cpu0_ITLB PREFETCH  ACCESS:          0  HIT:          0  MISS:          0
cpu0_ITLB WRITEBACK ACCESS:          0  HIT:          0  MISS:          0
cpu0_L1I TOTAL     ACCESS:    1496277  HIT:    1495148  MISS:       1129
cpu0_L1I LOAD      ACCESS:    1496277  HIT:    1495148  MISS:       1129
cpu0_L1I RFO       ACCESS:          0  HIT:          0  MISS:          0
cpu0_L1I PREFETCH  ACCESS:          0  HIT:          0  MISS:          0
cpu0_L1I WRITEBACK ACCESS:          0  HIT:          0  MISS:          0
cpu0_STLB TOTAL     ACCESS:      10495  HIT:      10459  MISS:         36
cpu0_STLB LOAD      ACCESS:      10051  HIT:      10021  MISS:         30
cpu0_STLB RFO       ACCESS:        444  HIT:        438  MISS:          6
cpu0_STLB PREFETCH  ACCESS:          0  HIT:          0  MISS:          0
cpu0_STLB WRITEBACK ACCESS:          0  HIT:          0  MISS:          0
cpu0_L1D TOTAL     ACCESS:    6427108  HIT:    6365131  MISS:      61977
cpu0_L1D LOAD      ACCESS:    3733947  HIT:    3679536  MISS:      54411
cpu0_L1D RFO       ACCESS:    2693126  HIT:    2685582  MISS:       7544
cpu0_L1D PREFETCH  ACCESS:          0  HIT:          0  MISS:          0
cpu0_L1D WRITEBACK ACCESS:          0  HIT:          0  MISS:          0
cpu0_L2C TOTAL     ACCESS:      77054  HIT:      72684  MISS:       4370
cpu0_L2C LOAD      ACCESS:      55540  HIT:      51573  MISS:       3967
cpu0_L2C RFO       ACCESS:       7544  HIT:       7173  MISS:        371
cpu0_L2C PREFETCH  ACCESS:          0  HIT:          0  MISS:          0
cpu0_L2C WRITEBACK ACCESS:      13948  HIT:      13924  MISS:         24
LLC TOTAL     ACCESS:       5106  HIT:       4095  MISS:       1011
LLC LOAD      ACCESS:       3967  HIT:       3274  MISS:        693
LLC RFO       ACCESS:        371  HIT:         53  MISS:        318
LLC PREFETCH  ACCESS:          0  HIT:          0  MISS:          0
LLC WRITEBACK ACCESS:        760  HIT:        760  MISS:          0
Heartbeat CPU 0 instructions: 76000003 cycles: 38182198 heartbeat IPC: 1.02418 cumulative IPC: 1.01438 (Simulation time: 0 hr 37 min 11 sec) 

Region of Interest Statistics
cpu0_DTLB TOTAL     ACCESS:    5078329  HIT:    5066933  MISS:      11396
cpu0_DTLB LOAD      ACCESS:    3550957  HIT:    3540035  MISS:      10922
cpu0_DTLB RFO       ACCESS:    1527372  HIT:    1526898  MISS:        474
cpu0_DTLB PREFETCH  ACCESS:          0  HIT:          0  MISS:          0
cpu0_DTLB WRITEBACK ACCESS:          0  HIT:          0  MISS:          0
cpu0_ITLB TOTAL     ACCESS:    2874156  HIT:    2874156  MISS:          0
cpu0_ITLB LOAD      ACCESS:    2874156  HIT:    2874156  MISS:          0
cpu0_ITLB RFO       ACCESS:          0  HIT:          0  MISS:          0
cpu0_ITLB PREFETCH  ACCESS:          0  HIT:          0  MISS:          0
cpu0_ITLB WRITEBACK ACCESS:          0  HIT:          0  MISS:          0
cpu0_L1I TOTAL     ACCESS:    1619175  HIT:    1617951  MISS:       1224
cpu0_L1I LOAD      ACCESS:    1619175  HIT:    1617951  MISS:       1224
cpu0_L1I RFO       ACCESS:          0  HIT:          0  MISS:          0
cpu0_L1I PREFETCH  ACCESS:          0  HIT:          0  MISS:          0
cpu0_L1I WRITEBACK ACCESS:          0  HIT:          0  MISS:          0
cpu0_STLB TOTAL     ACCESS:      11396  HIT:      11357  MISS:         39
cpu0_STLB LOAD      ACCESS:      10922  HIT:      10889  MISS:         33
cpu0_STLB RFO       ACCESS:        474  HIT:        468  MISS:          6
cpu0_STLB PREFETCH  ACCESS:          0  HIT:          0  MISS:          0
cpu0_STLB WRITEBACK ACCESS:          0  HIT:          0  MISS:          0
cpu0_L1D TOTAL     ACCESS:    6956559  HIT:    6888659  MISS:      67900
cpu0_L1D LOAD      ACCESS:    4042294  HIT:    3982674  MISS:      59620
cpu0_L1D RFO       ACCESS:    2914227  HIT:    2905972  MISS:       8255
cpu0_L1D PREFETCH  ACCESS:          0  HIT:          0  MISS:          0
cpu0_L1D WRITEBACK ACCESS:          0  HIT:          0  MISS:          0
cpu0_L2C TOTAL     ACCESS:      84396  HIT:      79883  MISS:       4513
cpu0_L2C LOAD      ACCESS:      60844  HIT:      56738  MISS:       4106
cpu0_L2C RFO       ACCESS:       8255  HIT:       7881  MISS:        374
cpu0_L2C PREFETCH  ACCESS:          0  HIT:          0  MISS:          0
cpu0_L2C WRITEBACK ACCESS:      15272  HIT:      15247  MISS:         25
LLC TOTAL     ACCESS:       5256  HIT:       4227  MISS:       1029
LLC LOAD      ACCESS:       4106  HIT:       3395  MISS:        711
LLC RFO       ACCESS:        374  HIT:         56  MISS:        318
LLC PREFETCH  ACCESS:          0  HIT:          0  MISS:          0
LLC WRITEBACK ACCESS:        768  HIT:        768  MISS:          0
Heartbeat CPU 0 instructions: 78000000 cycles: 40125439 heartbeat IPC: 1.02921 cumulative IPC: 1.01542 (Simulation time: 0 hr 38 min 4 sec) 

Region of Interest Statistics
cpu0_DTLB TOTAL     ACCESS:    5464191  HIT:    5451954  MISS:      12237
cpu0_DTLB LOAD      ACCESS:    3820312  HIT:    3808583  MISS:      11729
cpu0_DTLB RFO       ACCESS:    1643879  HIT:    1643371  MISS:        508
cpu0_DTLB PREFETCH  ACCESS:          0  HIT:          0  MISS:          0
cpu0_DTLB WRITEBACK ACCESS:          0  HIT:          0  MISS:          0
cpu0_ITLB TOTAL     ACCESS:    3093170  HIT:    3093170  MISS:          0
cpu0_ITLB LOAD      ACCESS:    3093170  HIT:    3093170  MISS:          0
cpu0_ITLB RFO       ACCESS:          0  HIT:          0  MISS:          0
cpu0_ITLB PREFETCH  ACCESS:          0  HIT:          0  MISS:          0
cpu0_ITLB WRITEBACK ACCESS:          0  HIT:          0  MISS:          0
cpu0_L1I TOTAL     ACCESS:    1742359  HIT:    1741040  MISS:       1319
cpu0_L1I LOAD      ACCESS:    1742359  HIT:    1741040  MISS:       1319
cpu0_L1I RFO       ACCESS:          0  HIT:          0  MISS:          0
cpu0_L1I PREFETCH  ACCESS:          0  HIT:          0  MISS:          0
cpu0_L1I WRITEBACK ACCESS:          0  HIT:          0  MISS:          0
cpu0_STLB TOTAL     ACCESS:      12237  HIT:      12196  MISS:         41
cpu0_STLB LOAD      ACCESS:      11729  HIT:      11694  MISS:         35
cpu0_STLB RFO       ACCESS:        508  HIT:        502  MISS:          6
cpu0_STLB PREFETCH  ACCESS:          0  HIT:          0  MISS:          0
cpu0_STLB WRITEBACK ACCESS:          0  HIT:          0  MISS:          0
cpu0_L1D TOTAL     ACCESS:    7485683  HIT:    7411773  MISS:      73910
cpu0_L1D LOAD      ACCESS:    4349097  HIT:    4284176  MISS:      64921
cpu0_L1D RFO       ACCESS:    3136546  HIT:    3127584  MISS:       8962
cpu0_L1D PREFETCH  ACCESS:          0  HIT:          0  MISS:          0
cpu0_L1D WRITEBACK ACCESS:          0  HIT:          0  MISS:          0
cpu0_L2C TOTAL     ACCESS:      91833  HIT:      87173  MISS:       4660
cpu0_L2C LOAD      ACCESS:      66240  HIT:      61988  MISS:       4252
cpu0_L2C RFO       ACCESS:       8962  HIT:       8588  MISS:        374
cpu0_L2C PREFETCH  ACCESS:          0  HIT:          0  MISS:          0
cpu0_L2C WRITEBACK ACCESS:      16604  HIT:      16578  MISS:         26
LLC TOTAL     ACCESS:       5418  HIT:       4374  MISS:       1044
LLC LOAD      ACCESS:       4252  HIT:       3526  MISS:        726
LLC RFO       ACCESS:        374  HIT:         56  MISS:        318
LLC PREFETCH  ACCESS:          0  HIT:          0  MISS:          0
LLC WRITEBACK ACCESS:        784  HIT:        784  MISS:          0
Heartbeat CPU 0 instructions: 80000000 cycles: 42092525 heartbeat IPC: 1.01673 cumulative IPC: 1.01551 (Simulation time: 0 hr 38 min 52 sec) 

Region of Interest Statistics
cpu0_DTLB TOTAL     ACCESS:    5848543  HIT:    5835410  MISS:      13133
cpu0_DTLB LOAD      ACCESS:    4088538  HIT:    4075947  MISS:      12591
cpu0_DTLB RFO       ACCESS:    1760005  HIT:    1759463  MISS:        542
cpu0_DTLB PREFETCH  ACCESS:          0  HIT:          0  MISS:          0
cpu0_DTLB WRITEBACK ACCESS:          0  HIT:          0  MISS:          0
cpu0_ITLB TOTAL     ACCESS:    3311684  HIT:    3311684  MISS:          0
cpu0_ITLB LOAD      ACCESS:    3311684  HIT:    3311684  MISS:          0
cpu0_ITLB RFO       ACCESS:          0  HIT:          0  MISS:          0
cpu0_ITLB PREFETCH  ACCESS:          0  HIT:          0  MISS:          0
cpu0_ITLB WRITEBACK ACCESS:          0  HIT:          0  MISS:          0
cpu0_L1I TOTAL     ACCESS:    1867869  HIT:    1866456  MISS:       1413
cpu0_L1I LOAD      ACCESS:    1867869  HIT:    1866456  MISS:       1413
cpu0_L1I RFO       ACCESS:          0  HIT:          0  MISS:          0
cpu0_L1I PREFETCH  ACCESS:          0  HIT:          0  MISS:          0
cpu0_L1I WRITEBACK ACCESS:          0  HIT:          0  MISS:          0
cpu0_STLB TOTAL     ACCESS:      13133  HIT:      13088  MISS:         45
cpu0_STLB LOAD      ACCESS:      12591  HIT:      12552  MISS:         39
cpu0_STLB RFO       ACCESS:        542  HIT:        536  MISS:          6
cpu0_STLB PREFETCH  ACCESS:          0  HIT:          0  MISS:          0
cpu0_STLB WRITEBACK ACCESS:          0  HIT:          0  MISS:          0
cpu0_L1D TOTAL     ACCESS:    8013005  HIT:    7933091  MISS:      79914
cpu0_L1D LOAD      ACCESS:    4654310  HIT:    4584098  MISS:      70212
cpu0_L1D RFO       ACCESS:    3358651  HIT:    3348979  MISS:       9672
cpu0_L1D PREFETCH  ACCESS:          0  HIT:          0  MISS:          0
cpu0_L1D WRITEBACK ACCESS:          0  HIT:          0  MISS:          0
cpu0_L2C TOTAL     ACCESS:      99259  HIT:      94419  MISS:       4840
cpu0_L2C LOAD      ACCESS:      71625  HIT:      67196  MISS:       4429
cpu0_L2C RFO       ACCESS:       9672  HIT:       9296  MISS:        376
cpu0_L2C PREFETCH  ACCESS:          0  HIT:          0  MISS:          0
cpu0_L2C WRITEBACK ACCESS:      17932  HIT:      17905  MISS:         27
LLC TOTAL     ACCESS:       5612  HIT:       4550  MISS:       1062
LLC LOAD      ACCESS:       4429  HIT:       3685  MISS:        744
LLC RFO       ACCESS:        376  HIT:         58  MISS:        318
LLC PREFETCH  ACCESS:          0  HIT:          0  MISS:          0
LLC WRITEBACK ACCESS:        799  HIT:        799  MISS:          0
Heartbeat CPU 0 instructions: 82000002 cycles: 44073710 heartbeat IPC: 1.0095 cumulative IPC: 1.01513 (Simulation time: 0 hr 39 min 45 sec) 

Region of Interest Statistics
cpu0_DTLB TOTAL     ACCESS:    6234753  HIT:    6220722  MISS:      14031
cpu0_DTLB LOAD      ACCESS:    4357388  HIT:    4343932  MISS:      13456
cpu0_DTLB RFO       ACCESS:    1877365  HIT:    1876790  MISS:        575
cpu0_DTLB PREFETCH  ACCESS:          0  HIT:          0  MISS:          0
cpu0_DTLB WRITEBACK ACCESS:          0  HIT:          0  MISS:          0
cpu0_ITLB TOTAL     ACCESS:    3531133  HIT:    3531133  MISS:          0
cpu0_ITLB LOAD      ACCESS:    3531133  HIT:    3531133  MISS:          0
cpu0_ITLB RFO       ACCESS:          0  HIT:          0  MISS:          0
cpu0_ITLB PREFETCH  ACCESS:          0  HIT:          0  MISS:          0
cpu0_ITLB WRITEBACK ACCESS:          0  HIT:          0  MISS:          0
cpu0_L1I TOTAL     ACCESS:    1991453  HIT:    1989943  MISS:       1510
cpu0_L1I LOAD      ACCESS:    1991453  HIT:    1989943  MISS:       1510
cpu0_L1I RFO       ACCESS:          0  HIT:          0  MISS:          0
cpu0_L1I PREFETCH  ACCESS:          0  HIT:          0  MISS:          0
cpu0_L1I WRITEBACK ACCESS:          0  HIT:          0  MISS:          0
cpu0_STLB TOTAL     ACCESS:      14031  HIT:      13983  MISS:         48
cpu0_STLB LOAD      ACCESS:      13456  HIT:      13414  MISS:         42
cpu0_STLB RFO       ACCESS:        575  HIT:        569  MISS:          6
cpu0_STLB PREFETCH  ACCESS:          0  HIT:          0  MISS:          0
cpu0_STLB WRITEBACK ACCESS:          0  HIT:          0  MISS:          0
cpu0_L1D TOTAL     ACCESS:    8542667  HIT:    8456667  MISS:      86000
cpu0_L1D LOAD      ACCESS:    4959823  HIT:    4884241  MISS:      75582
cpu0_L1D RFO       ACCESS:    3582797  HIT:    3572412  MISS:      10385
cpu0_L1D PREFETCH  ACCESS:          0  HIT:          0  MISS:          0
cpu0_L1D WRITEBACK ACCESS:          0  HIT:          0  MISS:          0
cpu0_L2C TOTAL     ACCESS:     106780  HIT:     101795  MISS:       4985
cpu0_L2C LOAD      ACCESS:      77092  HIT:      72521  MISS:       4571
cpu0_L2C RFO       ACCESS:      10385  HIT:      10007  MISS:        378
cpu0_L2C PREFETCH  ACCESS:          0  HIT:          0  MISS:          0
cpu0_L2C WRITEBACK ACCESS:      19270  HIT:      19242  MISS:         28
LLC TOTAL     ACCESS:       5773  HIT:       4694  MISS:       1079
LLC LOAD      ACCESS:       4571  HIT:       3811  MISS:        760
LLC RFO       ACCESS:        378  HIT:         59  MISS:        319
LLC PREFETCH  ACCESS:          0  HIT:          0  MISS:          0
LLC WRITEBACK ACCESS:        816  HIT:        816  MISS:          0
Heartbeat CPU 0 instructions: 84000000 cycles: 46061649 heartbeat IPC: 1.00607 cumulative IPC: 1.0146 (Simulation time: 0 hr 40 min 35 sec) 

Region of Interest Statistics
cpu0_DTLB TOTAL     ACCESS:    6626167  HIT:    6611161  MISS:      15006
cpu0_DTLB LOAD      ACCESS:    4630274  HIT:    4615880  MISS:      14394
cpu0_DTLB RFO       ACCESS:    1995893  HIT:    1995281  MISS:        612
cpu0_DTLB PREFETCH  ACCESS:          0  HIT:          0  MISS:          0
cpu0_DTLB WRITEBACK ACCESS:          0  HIT:          0  MISS:          0
cpu0_ITLB TOTAL     ACCESS:    3753738  HIT:    3753738  MISS:          0
cpu0_ITLB LOAD      ACCESS:    3753738  HIT:    3753738  MISS:          0
cpu0_ITLB RFO       ACCESS:          0  HIT:          0  MISS:          0
cpu0_ITLB PREFETCH  ACCESS:          0  HIT:          0  MISS:          0
cpu0_ITLB WRITEBACK ACCESS:          0  HIT:          0  MISS:          0
cpu0_L1I TOTAL     ACCESS:    2117992  HIT:    2116355  MISS:       1637
cpu0_L1I LOAD      ACCESS:    2117992  HIT:    2116355  MISS:       1637
cpu0_L1I RFO       ACCESS:          0  HIT:          0  MISS:          0
cpu0_L1I PREFETCH  ACCESS:          0  HIT:          0  MISS:          0
cpu0_L1I WRITEBACK ACCESS:          0  HIT:          0  MISS:          0
cpu0_STLB TOTAL     ACCESS:      15006  HIT:      14954  MISS:         52
cpu0_STLB LOAD      ACCESS:      14394  HIT:      14348  MISS:         46
cpu0_STLB RFO       ACCESS:        612  HIT:        606  MISS:          6
cpu0_STLB PREFETCH  ACCESS:          0  HIT:          0  MISS:          0
cpu0_STLB WRITEBACK ACCESS:          0  HIT:          0  MISS:          0
cpu0_L1D TOTAL     ACCESS:    9077509  HIT:    8985593  MISS:      91916
cpu0_L1D LOAD      ACCESS:    5270517  HIT:    5189775  MISS:      80742
cpu0_L1D RFO       ACCESS:    3806941  HIT:    3795804  MISS:      11137
cpu0_L1D PREFETCH  ACCESS:          0  HIT:          0  MISS:          0
cpu0_L1D WRITEBACK ACCESS:          0  HIT:          0  MISS:          0
cpu0_L2C TOTAL     ACCESS:     114117  HIT:     108993  MISS:       5124
cpu0_L2C LOAD      ACCESS:      82379  HIT:      77672  MISS:       4707
cpu0_L2C RFO       ACCESS:      11137  HIT:      10757  MISS:        380
cpu0_L2C PREFETCH  ACCESS:          0  HIT:          0  MISS:          0
cpu0_L2C WRITEBACK ACCESS:      20564  HIT:      20535  MISS:         29
LLC TOTAL     ACCESS:       5920  HIT:       4828  MISS:       1092
LLC LOAD      ACCESS:       4707  HIT:       3934  MISS:        773
LLC RFO       ACCESS:        379  HIT:         60  MISS:        319
LLC PREFETCH  ACCESS:          0  HIT:          0  MISS:          0
LLC WRITEBACK ACCESS:        826  HIT:        826  MISS:          0
Heartbeat CPU 0 instructions: 86000000 cycles: 48046403 heartbeat IPC: 1.00768 cumulative IPC: 1.01421 (Simulation time: 0 hr 41 min 29 sec) 

Region of Interest Statistics
cpu0_DTLB TOTAL     ACCESS:    7023201  HIT:    7007448  MISS:      15753
cpu0_DTLB LOAD      ACCESS:    4906828  HIT:    4891706  MISS:      15122
cpu0_DTLB RFO       ACCESS:    2116373  HIT:    2115742  MISS:        631
cpu0_DTLB PREFETCH  ACCESS:          0  HIT:          0  MISS:          0
cpu0_DTLB WRITEBACK ACCESS:          0  HIT:          0  MISS:          0
cpu0_ITLB TOTAL     ACCESS:    3979172  HIT:    3979172  MISS:          0
cpu0_ITLB LOAD      ACCESS:    3979172  HIT:    3979172  MISS:          0
cpu0_ITLB RFO       ACCESS:          0  HIT:          0  MISS:          0
cpu0_ITLB PREFETCH  ACCESS:          0  HIT:          0  MISS:          0
cpu0_ITLB WRITEBACK ACCESS:          0  HIT:          0  MISS:          0
cpu0_L1I TOTAL     ACCESS:    2246305  HIT:    2244569  MISS:       1736
cpu0_L1I LOAD      ACCESS:    2246305  HIT:    2244569  MISS:       1736
cpu0_L1I RFO       ACCESS:          0  HIT:          0  MISS:          0
cpu0_L1I PREFETCH  ACCESS:          0  HIT:          0  MISS:          0
cpu0_L1I WRITEBACK ACCESS:          0  HIT:          0  MISS:          0
cpu0_STLB TOTAL     ACCESS:      15753  HIT:      15701  MISS:         52
cpu0_STLB LOAD      ACCESS:      15122  HIT:      15076  MISS:         46
cpu0_STLB RFO       ACCESS:        631  HIT:        625  MISS:          6
cpu0_STLB PREFETCH  ACCESS:          0  HIT:          0  MISS:          0
cpu0_STLB WRITEBACK ACCESS:          0  HIT:          0  MISS:          0
cpu0_L1D TOTAL     ACCESS:    9627688  HIT:    9532971  MISS:      94717
cpu0_L1D LOAD      ACCESS:    5585233  HIT:    5501961  MISS:      83272
cpu0_L1D RFO       ACCESS:    4042404  HIT:    4030996  MISS:      11408
cpu0_L1D PREFETCH  ACCESS:          0  HIT:          0  MISS:          0
cpu0_L1D WRITEBACK ACCESS:          0  HIT:          0  MISS:          0
cpu0_L2C TOTAL     ACCESS:     117514  HIT:     112282  MISS:       5232
cpu0_L2C LOAD      ACCESS:      85008  HIT:      80193  MISS:       4815
cpu0_L2C RFO       ACCESS:      11408  HIT:      11028  MISS:        380
cpu0_L2C PREFETCH  ACCESS:          0  HIT:          0  MISS:          0
cpu0_L2C WRITEBACK ACCESS:      21061  HIT:      21032  MISS:         29
LLC TOTAL     ACCESS:       6053  HIT:       4947  MISS:       1106
LLC LOAD      ACCESS:       4815  HIT:       4028  MISS:        787
LLC RFO       ACCESS:        379  HIT:         60  MISS:        319
LLC PREFETCH  ACCESS:          0  HIT:          0  MISS:          0
LLC WRITEBACK ACCESS:        851  HIT:        851  MISS:          0
Heartbeat CPU 0 instructions: 88000004 cycles: 50025141 heartbeat IPC: 1.01075 cumulative IPC: 1.01403 (Simulation time: 0 hr 42 min 17 sec) 

Region of Interest Statistics
cpu0_DTLB TOTAL     ACCESS:    7423002  HIT:    7406519  MISS:      16483
cpu0_DTLB LOAD      ACCESS:    5187685  HIT:    5171854  MISS:      15831
cpu0_DTLB RFO       ACCESS:    2235317  HIT:    2234665  MISS:        652
cpu0_DTLB PREFETCH  ACCESS:          0  HIT:          0  MISS:          0
cpu0_DTLB WRITEBACK ACCESS:          0  HIT:          0  MISS:          0
cpu0_ITLB TOTAL     ACCESS:    4207228  HIT:    4207228  MISS:          0
cpu0_ITLB LOAD      ACCESS:    4207228  HIT:    4207228  MISS:          0
cpu0_ITLB RFO       ACCESS:          0  HIT:          0  MISS:          0
cpu0_ITLB PREFETCH  ACCESS:          0  HIT:          0  MISS:          0
cpu0_ITLB WRITEBACK ACCESS:          0  HIT:          0  MISS:          0
cpu0_L1I TOTAL     ACCESS:    2370413  HIT:    2368584  MISS:       1829
cpu0_L1I LOAD      ACCESS:    2370413  HIT:    2368584  MISS:       1829
cpu0_L1I RFO       ACCESS:          0  HIT:          0  MISS:          0
cpu0_L1I PREFETCH  ACCESS:          0  HIT:          0  MISS:          0
cpu0_L1I WRITEBACK ACCESS:          0  HIT:          0  MISS:          0
cpu0_STLB TOTAL     ACCESS:      16483  HIT:      16431  MISS:         52
cpu0_STLB LOAD      ACCESS:      15831  HIT:      15785  MISS:         46
cpu0_STLB RFO       ACCESS:        652  HIT:        646  MISS:          6
cpu0_STLB PREFETCH  ACCESS:          0  HIT:          0  MISS:          0
cpu0_STLB WRITEBACK ACCESS:          0  HIT:          0  MISS:          0
cpu0_L1D TOTAL     ACCESS:   10179700  HIT:   10082335  MISS:      97365
cpu0_L1D LOAD      ACCESS:    5905890  HIT:    5820219  MISS:      85671
cpu0_L1D RFO       ACCESS:    4273759  HIT:    4262102  MISS:      11657
cpu0_L1D PREFETCH  ACCESS:          0  HIT:          0  MISS:          0
cpu0_L1D WRITEBACK ACCESS:          0  HIT:          0  MISS:          0
cpu0_L2C TOTAL     ACCESS:     120745  HIT:     115432  MISS:       5313
cpu0_L2C LOAD      ACCESS:      87500  HIT:      82604  MISS:       4896
cpu0_L2C RFO       ACCESS:      11657  HIT:      11277  MISS:        380
cpu0_L2C PREFETCH  ACCESS:          0  HIT:          0  MISS:          0
cpu0_L2C WRITEBACK ACCESS:      21551  HIT:      21522  MISS:         29
LLC TOTAL     ACCESS:       6148  HIT:       5033  MISS:       1115
LLC LOAD      ACCESS:       4896  HIT:       4100  MISS:        796
LLC RFO       ACCESS:        379  HIT:         60  MISS:        319
LLC PREFETCH  ACCESS:          0  HIT:          0  MISS:          0
LLC WRITEBACK ACCESS:        865  HIT:        865  MISS:          0
Heartbeat CPU 0 instructions: 90000004 cycles: 52047537 heartbeat IPC: 0.988926 cumulative IPC: 1.01274 (Simulation time: 0 hr 43 min 5 sec) 

Region of Interest Statistics
cpu0_DTLB TOTAL     ACCESS:    7823669  HIT:    7806424  MISS:      17245
cpu0_DTLB LOAD      ACCESS:    5469208  HIT:    5452639  MISS:      16569
cpu0_DTLB RFO       ACCESS:    2354461  HIT:    2353785  MISS:        676
cpu0_DTLB PREFETCH  ACCESS:          0  HIT:          0  MISS:          0
cpu0_DTLB WRITEBACK ACCESS:          0  HIT:          0  MISS:          0
cpu0_ITLB TOTAL     ACCESS:    4434115  HIT:    4434115  MISS:          0
cpu0_ITLB LOAD      ACCESS:    4434115  HIT:    4434115  MISS:          0
cpu0_ITLB RFO       ACCESS:          0  HIT:          0  MISS:          0
cpu0_ITLB PREFETCH  ACCESS:          0  HIT:          0  MISS:          0
cpu0_ITLB WRITEBACK ACCESS:          0  HIT:          0  MISS:          0
cpu0_L1I TOTAL     ACCESS:    2496136  HIT:    2494213  MISS:       1923
cpu0_L1I LOAD      ACCESS:    2496136  HIT:    2494213  MISS:       1923
cpu0_L1I RFO       ACCESS:          0  HIT:          0  MISS:          0
cpu0_L1I PREFETCH  ACCESS:          0  HIT:          0  MISS:          0
cpu0_L1I WRITEBACK ACCESS:          0  HIT:          0  MISS:          0
cpu0_STLB TOTAL     ACCESS:      17245  HIT:      17193  MISS:         52
cpu0_STLB LOAD      ACCESS:      16569  HIT:      16523  MISS:         46
cpu0_STLB RFO       ACCESS:        676  HIT:        670  MISS:          6
cpu0_STLB PREFETCH  ACCESS:          0  HIT:          0  MISS:          0
cpu0_STLB WRITEBACK ACCESS:          0  HIT:          0  MISS:          0
cpu0_L1D TOTAL     ACCESS:   10731838  HIT:   10631763  MISS:     100075
cpu0_L1D LOAD      ACCESS:    6226902  HIT:    6138776  MISS:      88126
cpu0_L1D RFO       ACCESS:    4504885  HIT:    4492973  MISS:      11912
cpu0_L1D PREFETCH  ACCESS:          0  HIT:          0  MISS:          0
cpu0_L1D WRITEBACK ACCESS:          0  HIT:          0  MISS:          0
cpu0_L2C TOTAL     ACCESS:     124000  HIT:     118594  MISS:       5406
cpu0_L2C LOAD      ACCESS:      90049  HIT:      85062  MISS:       4987
cpu0_L2C RFO       ACCESS:      11912  HIT:      11531  MISS:        381
cpu0_L2C PREFETCH  ACCESS:          0  HIT:          0  MISS:          0
cpu0_L2C WRITEBACK ACCESS:      22002  HIT:      21972  MISS:         30
LLC TOTAL     ACCESS:       6262  HIT:       5131  MISS:       1131
LLC LOAD      ACCESS:       4987  HIT:       4175  MISS:        812
LLC RFO       ACCESS:        380  HIT:         61  MISS:        319
LLC PREFETCH  ACCESS:          0  HIT:          0  MISS:          0
LLC WRITEBACK ACCESS:        887  HIT:        887  MISS:          0
Heartbeat CPU 0 instructions: 92000001 cycles: 54079395 heartbeat IPC: 0.984319 cumulative IPC: 1.01135 (Simulation time: 0 hr 44 min 1 sec) 

Region of Interest Statistics
cpu0_DTLB TOTAL     ACCESS:    8220525  HIT:    8202414  MISS:      18111
cpu0_DTLB LOAD      ACCESS:    5744915  HIT:    5727524  MISS:      17391
cpu0_DTLB RFO       ACCESS:    2475610  HIT:    2474890  MISS:        720
cpu0_DTLB PREFETCH  ACCESS:          0  HIT:          0  MISS:          0
cpu0_DTLB WRITEBACK ACCESS:          0  HIT:          0  MISS:          0
cpu0_ITLB TOTAL     ACCESS:    4656748  HIT:    4656748  MISS:          0
cpu0_ITLB LOAD      ACCESS:    4656748  HIT:    4656748  MISS:          0
cpu0_ITLB RFO       ACCESS:          0  HIT:          0  MISS:          0
cpu0_ITLB PREFETCH  ACCESS:          0  HIT:          0  MISS:          0
cpu0_ITLB WRITEBACK ACCESS:          0  HIT:          0  MISS:          0
cpu0_L1I TOTAL     ACCESS:    2627558  HIT:    2625539  MISS:       2019
cpu0_L1I LOAD      ACCESS:    2627558  HIT:    2625539  MISS:       2019
cpu0_L1I RFO       ACCESS:          0  HIT:          0  MISS:          0
cpu0_L1I PREFETCH  ACCESS:          0  HIT:          0  MISS:          0
cpu0_L1I WRITEBACK ACCESS:          0  HIT:          0  MISS:          0
cpu0_STLB TOTAL     ACCESS:      18111  HIT:      18039  MISS:         72
cpu0_STLB LOAD      ACCESS:      17391  HIT:      17334  MISS:         57
cpu0_STLB RFO       ACCESS:        720  HIT:        705  MISS:         15
cpu0_STLB PREFETCH  ACCESS:          0  HIT:          0  MISS:          0
cpu0_STLB WRITEBACK ACCESS:          0  HIT:          0  MISS:          0
cpu0_L1D TOTAL     ACCESS:   11280114  HIT:   11176267  MISS:     103847
cpu0_L1D LOAD      ACCESS:    6541146  HIT:    6449843  MISS:      91303
cpu0_L1D RFO       ACCESS:    4738899  HIT:    4726398  MISS:      12501
cpu0_L1D PREFETCH  ACCESS:          0  HIT:          0  MISS:          0
cpu0_L1D WRITEBACK ACCESS:          0  HIT:          0  MISS:          0
cpu0_L2C TOTAL     ACCESS:     128832  HIT:     122881  MISS:       5951
cpu0_L2C LOAD      ACCESS:      93322  HIT:      88022  MISS:       5300
cpu0_L2C RFO       ACCESS:      12501  HIT:      11897  MISS:        604
cpu0_L2C PREFETCH  ACCESS:          0  HIT:          0  MISS:          0
cpu0_L2C WRITEBACK ACCESS:      22966  HIT:      22929  MISS:         37
LLC TOTAL     ACCESS:       6952  HIT:       5400  MISS:       1552
LLC LOAD      ACCESS:       5300  HIT:       4284  MISS:       1016
LLC RFO       ACCESS:        603  HIT:         67  MISS:        536
LLC PREFETCH  ACCESS:          0  HIT:          0  MISS:          0
LLC WRITEBACK ACCESS:       1039  HIT:       1039  MISS:          0
Heartbeat CPU 0 instructions: 94000003 cycles: 56053904 heartbeat IPC: 1.01291 cumulative IPC: 1.01142 (Simulation time: 0 hr 44 min 56 sec) 

Region of Interest Statistics
cpu0_DTLB TOTAL     ACCESS:    8617403  HIT:    8598450  MISS:      18953
cpu0_DTLB LOAD      ACCESS:    6021371  HIT:    6003180  MISS:      18191
cpu0_DTLB RFO       ACCESS:    2596032  HIT:    2595270  MISS:        762
cpu0_DTLB PREFETCH  ACCESS:          0  HIT:          0  MISS:          0
cpu0_DTLB WRITEBACK ACCESS:          0  HIT:          0  MISS:          0
cpu0_ITLB TOTAL     ACCESS:    4880934  HIT:    4880934  MISS:          0
cpu0_ITLB LOAD      ACCESS:    4880934  HIT:    4880934  MISS:          0
cpu0_ITLB RFO       ACCESS:          0  HIT:          0  MISS:          0
cpu0_ITLB PREFETCH  ACCESS:          0  HIT:          0  MISS:          0
cpu0_ITLB WRITEBACK ACCESS:          0  HIT:          0  MISS:          0
cpu0_L1I TOTAL     ACCESS:    2756193  HIT:    2754079  MISS:       2114
cpu0_L1I LOAD      ACCESS:    2756193  HIT:    2754079  MISS:       2114
cpu0_L1I RFO       ACCESS:          0  HIT:          0  MISS:          0
cpu0_L1I PREFETCH  ACCESS:          0  HIT:          0  MISS:          0
cpu0_L1I WRITEBACK ACCESS:          0  HIT:          0  MISS:          0
cpu0_STLB TOTAL     ACCESS:      18953  HIT:      18879  MISS:         74
cpu0_STLB LOAD      ACCESS:      18191  HIT:      18132  MISS:         59
cpu0_STLB RFO       ACCESS:        762  HIT:        747  MISS:         15
cpu0_STLB PREFETCH  ACCESS:          0  HIT:          0  MISS:          0
cpu0_STLB WRITEBACK ACCESS:          0  HIT:          0  MISS:          0
cpu0_L1D TOTAL     ACCESS:   11826958  HIT:   11719150  MISS:     107808
cpu0_L1D LOAD      ACCESS:    6856759  HIT:    6762122  MISS:      94637
cpu0_L1D RFO       ACCESS:    4970128  HIT:    4957002  MISS:      13126
cpu0_L1D PREFETCH  ACCESS:          0  HIT:          0  MISS:          0
cpu0_L1D WRITEBACK ACCESS:          0  HIT:          0  MISS:          0
cpu0_L2C TOTAL     ACCESS:     133823  HIT:     127630  MISS:       6193
cpu0_L2C LOAD      ACCESS:      96751  HIT:      91336  MISS:       5415
cpu0_L2C RFO       ACCESS:      13126  HIT:      12396  MISS:        730
cpu0_L2C PREFETCH  ACCESS:          0  HIT:          0  MISS:          0
cpu0_L2C WRITEBACK ACCESS:      23901  HIT:      23863  MISS:         38
LLC TOTAL     ACCESS:       7251  HIT:       5552  MISS:       1699
LLC LOAD      ACCESS:       5415  HIT:       4377  MISS:       1038
LLC RFO       ACCESS:        729  HIT:         68  MISS:        661
LLC PREFETCH  ACCESS:          0  HIT:          0  MISS:          0
LLC WRITEBACK ACCESS:       1097  HIT:       1097  MISS:          0
Heartbeat CPU 0 instructions: 96000003 cycles: 58031571 heartbeat IPC: 1.01129 cumulative IPC: 1.01142 (Simulation time: 0 hr 45 min 43 sec) 

Region of Interest Statistics
cpu0_DTLB TOTAL     ACCESS:    9005432  HIT:    8985555  MISS:      19877
cpu0_DTLB LOAD      ACCESS:    6293403  HIT:    6274330  MISS:      19073
cpu0_DTLB RFO       ACCESS:    2712029  HIT:    2711225  MISS:        804
cpu0_DTLB PREFETCH  ACCESS:          0  HIT:          0  MISS:          0
cpu0_DTLB WRITEBACK ACCESS:          0  HIT:          0  MISS:          0
cpu0_ITLB TOTAL     ACCESS:    5102244  HIT:    5102244  MISS:          0
cpu0_ITLB LOAD      ACCESS:    5102244  HIT:    5102244  MISS:          0
cpu0_ITLB RFO       ACCESS:          0  HIT:          0  MISS:          0
cpu0_ITLB PREFETCH  ACCESS:          0  HIT:          0  MISS:          0
cpu0_ITLB WRITEBACK ACCESS:          0  HIT:          0  MISS:          0
cpu0_L1I TOTAL     ACCESS:    2879389  HIT:    2877182  MISS:       2207
cpu0_L1I LOAD      ACCESS:    2879389  HIT:    2877182  MISS:       2207
cpu0_L1I RFO       ACCESS:          0  HIT:          0  MISS:          0
cpu0_L1I PREFETCH  ACCESS:          0  HIT:          0  MISS:          0
cpu0_L1I WRITEBACK ACCESS:          0  HIT:          0  MISS:          0
cpu0_STLB TOTAL     ACCESS:      19877  HIT:      19799  MISS:         78
cpu0_STLB LOAD      ACCESS:      19073  HIT:      19010  MISS:         63
cpu0_STLB RFO       ACCESS:        804  HIT:        789  MISS:         15
cpu0_STLB PREFETCH  ACCESS:          0  HIT:          0  MISS:          0
cpu0_STLB WRITEBACK ACCESS:          0  HIT:          0  MISS:          0
cpu0_L1D TOTAL     ACCESS:   12358426  HIT:   12244937  MISS:     113489
cpu0_L1D LOAD      ACCESS:    7166374  HIT:    7066661  MISS:      99713
cpu0_L1D RFO       ACCESS:    5191977  HIT:    5178249  MISS:      13728
cpu0_L1D PREFETCH  ACCESS:          0  HIT:          0  MISS:          0
cpu0_L1D WRITEBACK ACCESS:          0  HIT:          0  MISS:          0
cpu0_L2C TOTAL     ACCESS:     140973  HIT:     134425  MISS:       6548
cpu0_L2C LOAD      ACCESS:     101920  HIT:      96168  MISS:       5752
cpu0_L2C RFO       ACCESS:      13728  HIT:      12996  MISS:        732
cpu0_L2C PREFETCH  ACCESS:          0  HIT:          0  MISS:          0
cpu0_L2C WRITEBACK ACCESS:      25277  HIT:      25223  MISS:         54
LLC TOTAL     ACCESS:       7671  HIT:       5956  MISS:       1715
LLC LOAD      ACCESS:       5752  HIT:       4699  MISS:       1053
LLC RFO       ACCESS:        731  HIT:         69  MISS:        662
LLC PREFETCH  ACCESS:          0  HIT:          0  MISS:          0
LLC WRITEBACK ACCESS:       1178  HIT:       1178  MISS:          0
Heartbeat CPU 0 instructions: 98000000 cycles: 60022263 heartbeat IPC: 1.00467 cumulative IPC: 1.01113 (Simulation time: 0 hr 46 min 36 sec) 

Region of Interest Statistics
cpu0_DTLB TOTAL     ACCESS:    9391813  HIT:    9370991  MISS:      20822
cpu0_DTLB LOAD      ACCESS:    6564323  HIT:    6544354  MISS:      19969
cpu0_DTLB RFO       ACCESS:    2827490  HIT:    2826637  MISS:        853
cpu0_DTLB PREFETCH  ACCESS:          0  HIT:          0  MISS:          0
cpu0_DTLB WRITEBACK ACCESS:          0  HIT:          0  MISS:          0
cpu0_ITLB TOTAL     ACCESS:    5322720  HIT:    5322720  MISS:          0
cpu0_ITLB LOAD      ACCESS:    5322720  HIT:    5322720  MISS:          0
cpu0_ITLB RFO       ACCESS:          0  HIT:          0  MISS:          0
cpu0_ITLB PREFETCH  ACCESS:          0  HIT:          0  MISS:          0
cpu0_ITLB WRITEBACK ACCESS:          0  HIT:          0  MISS:          0
cpu0_L1I TOTAL     ACCESS:    3004559  HIT:    3002262  MISS:       2297
cpu0_L1I LOAD      ACCESS:    3004559  HIT:    3002262  MISS:       2297
cpu0_L1I RFO       ACCESS:          0  HIT:          0  MISS:          0
cpu0_L1I PREFETCH  ACCESS:          0  HIT:          0  MISS:          0
cpu0_L1I WRITEBACK ACCESS:          0  HIT:          0  MISS:          0
cpu0_STLB TOTAL     ACCESS:      20822  HIT:      20743  MISS:         79
cpu0_STLB LOAD      ACCESS:      19969  HIT:      19905  MISS:         64
cpu0_STLB RFO       ACCESS:        853  HIT:        838  MISS:         15
cpu0_STLB PREFETCH  ACCESS:          0  HIT:          0  MISS:          0
cpu0_STLB WRITEBACK ACCESS:          0  HIT:          0  MISS:          0
cpu0_L1D TOTAL     ACCESS:   12887200  HIT:   12767755  MISS:     119445
cpu0_L1D LOAD      ACCESS:    7474807  HIT:    7369850  MISS:     104957
cpu0_L1D RFO       ACCESS:    5412317  HIT:    5397878  MISS:      14439
cpu0_L1D PREFETCH  ACCESS:          0  HIT:          0  MISS:          0
cpu0_L1D WRITEBACK ACCESS:          0  HIT:          0  MISS:          0
cpu0_L2C TOTAL     ACCESS:     148355  HIT:     141659  MISS:       6696
cpu0_L2C LOAD      ACCESS:     107254  HIT:     101355  MISS:       5899
cpu0_L2C RFO       ACCESS:      14439  HIT:      13706  MISS:        733
cpu0_L2C PREFETCH  ACCESS:          0  HIT:          0  MISS:          0
cpu0_L2C WRITEBACK ACCESS:      26613  HIT:      26559  MISS:         54
LLC TOTAL     ACCESS:       7845  HIT:       6121  MISS:       1724
LLC LOAD      ACCESS:       5899  HIT:       4837  MISS:       1062
LLC RFO       ACCESS:        732  HIT:         70  MISS:        662
LLC PREFETCH  ACCESS:          0  HIT:          0  MISS:          0
LLC WRITEBACK ACCESS:       1204  HIT:       1204  MISS:          0
Heartbeat CPU 0 instructions: 100000002 cycles: 61996805 heartbeat IPC: 1.01289 cumulative IPC: 1.0112 (Simulation time: 0 hr 47 min 26 sec) 

Region of Interest Statistics
cpu0_DTLB TOTAL     ACCESS:    9777883  HIT:    9756135  MISS:      21748
cpu0_DTLB LOAD      ACCESS:    6833808  HIT:    6812953  MISS:      20855
cpu0_DTLB RFO       ACCESS:    2944075  HIT:    2943182  MISS:        893
cpu0_DTLB PREFETCH  ACCESS:          0  HIT:          0  MISS:          0
cpu0_DTLB WRITEBACK ACCESS:          0  HIT:          0  MISS:          0
cpu0_ITLB TOTAL     ACCESS:    5542531  HIT:    5542531  MISS:          0
cpu0_ITLB LOAD      ACCESS:    5542531  HIT:    5542531  MISS:          0
cpu0_ITLB RFO       ACCESS:          0  HIT:          0  MISS:          0
cpu0_ITLB PREFETCH  ACCESS:          0  HIT:          0  MISS:          0
cpu0_ITLB WRITEBACK ACCESS:          0  HIT:          0  MISS:          0
cpu0_L1I TOTAL     ACCESS:    3128977  HIT:    3126580  MISS:       2397
cpu0_L1I LOAD      ACCESS:    3128977  HIT:    3126580  MISS:       2397
cpu0_L1I RFO       ACCESS:          0  HIT:          0  MISS:          0
cpu0_L1I PREFETCH  ACCESS:          0  HIT:          0  MISS:          0
cpu0_L1I WRITEBACK ACCESS:          0  HIT:          0  MISS:          0
cpu0_STLB TOTAL     ACCESS:      21748  HIT:      21669  MISS:         79
cpu0_STLB LOAD      ACCESS:      20855  HIT:      20791  MISS:         64
cpu0_STLB RFO       ACCESS:        893  HIT:        878  MISS:         15
cpu0_STLB PREFETCH  ACCESS:          0  HIT:          0  MISS:          0
cpu0_STLB WRITEBACK ACCESS:          0  HIT:          0  MISS:          0
cpu0_L1D TOTAL     ACCESS:   13416154  HIT:   13290724  MISS:     125430
cpu0_L1D LOAD      ACCESS:    7781210  HIT:    7670977  MISS:     110233
cpu0_L1D RFO       ACCESS:    5634868  HIT:    5619720  MISS:      15148
cpu0_L1D PREFETCH  ACCESS:          0  HIT:          0  MISS:          0
cpu0_L1D WRITEBACK ACCESS:          0  HIT:          0  MISS:          0
cpu0_L2C TOTAL     ACCESS:     155765  HIT:     148962  MISS:       6803
cpu0_L2C LOAD      ACCESS:     112630  HIT:     106625  MISS:       6005
cpu0_L2C RFO       ACCESS:      15148  HIT:      14414  MISS:        734
cpu0_L2C PREFETCH  ACCESS:          0  HIT:          0  MISS:          0
cpu0_L2C WRITEBACK ACCESS:      27938  HIT:      27884  MISS:         54
LLC TOTAL     ACCESS:       7971  HIT:       6242  MISS:       1729
LLC LOAD      ACCESS:       6005  HIT:       4938  MISS:       1067
LLC RFO       ACCESS:        733  HIT:         71  MISS:        662
LLC PREFETCH  ACCESS:          0  HIT:          0  MISS:          0
LLC WRITEBACK ACCESS:       1223  HIT:       1223  MISS:          0
Heartbeat CPU 0 instructions: 102000000 cycles: 63935527 heartbeat IPC: 1.03161 cumulative IPC: 1.01197 (Simulation time: 0 hr 48 min 19 sec) 

Region of Interest Statistics
cpu0_DTLB TOTAL     ACCESS:   10166921  HIT:   10144286  MISS:      22635
cpu0_DTLB LOAD      ACCESS:    7106138  HIT:    7084439  MISS:      21699
cpu0_DTLB RFO       ACCESS:    3060783  HIT:    3059847  MISS:        936
cpu0_DTLB PREFETCH  ACCESS:          0  HIT:          0  MISS:          0
cpu0_DTLB WRITEBACK ACCESS:          0  HIT:          0  MISS:          0
cpu0_ITLB TOTAL     ACCESS:    5764838  HIT:    5764838  MISS:          0
cpu0_ITLB LOAD      ACCESS:    5764838  HIT:    5764838  MISS:          0
cpu0_ITLB RFO       ACCESS:          0  HIT:          0  MISS:          0
cpu0_ITLB PREFETCH  ACCESS:          0  HIT:          0  MISS:          0
cpu0_ITLB WRITEBACK ACCESS:          0  HIT:          0  MISS:          0
cpu0_L1I TOTAL     ACCESS:    3249441  HIT:    3246947  MISS:       2494
cpu0_L1I LOAD      ACCESS:    3249441  HIT:    3246947  MISS:       2494
cpu0_L1I RFO       ACCESS:          0  HIT:          0  MISS:          0
cpu0_L1I PREFETCH  ACCESS:          0  HIT:          0  MISS:          0
cpu0_L1I WRITEBACK ACCESS:          0  HIT:          0  MISS:          0
cpu0_STLB TOTAL     ACCESS:      22635  HIT:      22553  MISS:         82
cpu0_STLB LOAD      ACCESS:      21699  HIT:      21632  MISS:         67
cpu0_STLB RFO       ACCESS:        936  HIT:        921  MISS:         15
cpu0_STLB PREFETCH  ACCESS:          0  HIT:          0  MISS:          0
cpu0_STLB WRITEBACK ACCESS:          0  HIT:          0  MISS:          0
cpu0_L1D TOTAL     ACCESS:   13945727  HIT:   13814312  MISS:     131415
cpu0_L1D LOAD      ACCESS:    8090525  HIT:    7975012  MISS:     115513
cpu0_L1D RFO       ACCESS:    5855123  HIT:    5839273  MISS:      15850
cpu0_L1D PREFETCH  ACCESS:          0  HIT:          0  MISS:          0
cpu0_L1D WRITEBACK ACCESS:          0  HIT:          0  MISS:          0
cpu0_L2C TOTAL     ACCESS:     163149  HIT:     156254  MISS:       6895
cpu0_L2C LOAD      ACCESS:     118007  HIT:     111912  MISS:       6095
cpu0_L2C RFO       ACCESS:      15850  HIT:      15115  MISS:        735
cpu0_L2C PREFETCH  ACCESS:          0  HIT:          0  MISS:          0
cpu0_L2C WRITEBACK ACCESS:      29240  HIT:      29186  MISS:         54
LLC TOTAL     ACCESS:       8076  HIT:       6342  MISS:       1734
LLC LOAD      ACCESS:       6095  HIT:       5023  MISS:       1072
LLC RFO       ACCESS:        734  HIT:         72  MISS:        662
LLC PREFETCH  ACCESS:          0  HIT:          0  MISS:          0
LLC WRITEBACK ACCESS:       1236  HIT:       1236  MISS:          0
Heartbeat CPU 0 instructions: 104000004 cycles: 65918402 heartbeat IPC: 1.00864 cumulative IPC: 1.01185 (Simulation time: 0 hr 49 min 10 sec) 

Region of Interest Statistics
cpu0_DTLB TOTAL     ACCESS:   10559511  HIT:   10536070  MISS:      23441
cpu0_DTLB LOAD      ACCESS:    7381248  HIT:    7358779  MISS:      22469
cpu0_DTLB RFO       ACCESS:    3178263  HIT:    3177291  MISS:        972
cpu0_DTLB PREFETCH  ACCESS:          0  HIT:          0  MISS:          0
cpu0_DTLB WRITEBACK ACCESS:          0  HIT:          0  MISS:          0
cpu0_ITLB TOTAL     ACCESS:    5988655  HIT:    5988655  MISS:          0
cpu0_ITLB LOAD      ACCESS:    5988655  HIT:    5988655  MISS:          0
cpu0_ITLB RFO       ACCESS:          0  HIT:          0  MISS:          0
cpu0_ITLB PREFETCH  ACCESS:          0  HIT:          0  MISS:          0
cpu0_ITLB WRITEBACK ACCESS:          0  HIT:          0  MISS:          0
cpu0_L1I TOTAL     ACCESS:    3370728  HIT:    3368148  MISS:       2580
cpu0_L1I LOAD      ACCESS:    3370728  HIT:    3368148  MISS:       2580
cpu0_L1I RFO       ACCESS:          0  HIT:          0  MISS:          0
cpu0_L1I PREFETCH  ACCESS:          0  HIT:          0  MISS:          0
cpu0_L1I WRITEBACK ACCESS:          0  HIT:          0  MISS:          0
cpu0_STLB TOTAL     ACCESS:      23441  HIT:      23357  MISS:         84
cpu0_STLB LOAD      ACCESS:      22469  HIT:      22400  MISS:         69
cpu0_STLB RFO       ACCESS:        972  HIT:        957  MISS:         15
cpu0_STLB PREFETCH  ACCESS:          0  HIT:          0  MISS:          0
cpu0_STLB WRITEBACK ACCESS:          0  HIT:          0  MISS:          0
cpu0_L1D TOTAL     ACCESS:   14480988  HIT:   14344194  MISS:     136794
cpu0_L1D LOAD      ACCESS:    8403573  HIT:    8283338  MISS:     120235
cpu0_L1D RFO       ACCESS:    6077334  HIT:    6060829  MISS:      16505
cpu0_L1D PREFETCH  ACCESS:          0  HIT:          0  MISS:          0
cpu0_L1D WRITEBACK ACCESS:          0  HIT:          0  MISS:          0
cpu0_L2C TOTAL     ACCESS:     169758  HIT:     162731  MISS:       7027
cpu0_L2C LOAD      ACCESS:     122815  HIT:     116590  MISS:       6225
cpu0_L2C RFO       ACCESS:      16505  HIT:      15768  MISS:        737
cpu0_L2C PREFETCH  ACCESS:          0  HIT:          0  MISS:          0
cpu0_L2C WRITEBACK ACCESS:      30384  HIT:      30330  MISS:         54
LLC TOTAL     ACCESS:       8225  HIT:       6482  MISS:       1743
LLC LOAD      ACCESS:       6225  HIT:       5144  MISS:       1081
LLC RFO       ACCESS:        736  HIT:         74  MISS:        662
LLC PREFETCH  ACCESS:          0  HIT:          0  MISS:          0
LLC WRITEBACK ACCESS:       1253  HIT:       1253  MISS:          0
Heartbeat CPU 0 instructions: 106000002 cycles: 67853744 heartbeat IPC: 1.03341 cumulative IPC: 1.0126 (Simulation time: 0 hr 50 min 1 sec) 

Region of Interest Statistics
cpu0_DTLB TOTAL     ACCESS:   10944236  HIT:   10919890  MISS:      24346
cpu0_DTLB LOAD      ACCESS:    7650217  HIT:    7626881  MISS:      23336
cpu0_DTLB RFO       ACCESS:    3294019  HIT:    3293009  MISS:       1010
cpu0_DTLB PREFETCH  ACCESS:          0  HIT:          0  MISS:          0
cpu0_DTLB WRITEBACK ACCESS:          0  HIT:          0  MISS:          0
cpu0_ITLB TOTAL     ACCESS:    6208920  HIT:    6208920  MISS:          0
cpu0_ITLB LOAD      ACCESS:    6208920  HIT:    6208920  MISS:          0
cpu0_ITLB RFO       ACCESS:          0  HIT:          0  MISS:          0
cpu0_ITLB PREFETCH  ACCESS:          0  HIT:          0  MISS:          0
cpu0_ITLB WRITEBACK ACCESS:          0  HIT:          0  MISS:          0
cpu0_L1I TOTAL     ACCESS:    3491431  HIT:    3488752  MISS:       2679
cpu0_L1I LOAD      ACCESS:    3491431  HIT:    3488752  MISS:       2679
cpu0_L1I RFO       ACCESS:          0  HIT:          0  MISS:          0
cpu0_L1I PREFETCH  ACCESS:          0  HIT:          0  MISS:          0
cpu0_L1I WRITEBACK ACCESS:          0  HIT:          0  MISS:          0
cpu0_STLB TOTAL     ACCESS:      24346  HIT:      24258  MISS:         88
cpu0_STLB LOAD      ACCESS:      23336  HIT:      23263  MISS:         73
cpu0_STLB RFO       ACCESS:       1010  HIT:        995  MISS:         15
cpu0_STLB PREFETCH  ACCESS:          0  HIT:          0  MISS:          0
cpu0_STLB WRITEBACK ACCESS:          0  HIT:          0  MISS:          0
cpu0_L1D TOTAL     ACCESS:   15006521  HIT:   14863327  MISS:     143194
cpu0_L1D LOAD      ACCESS:    8709459  HIT:    8583559  MISS:     125900
cpu0_L1D RFO       ACCESS:    6296977  HIT:    6279741  MISS:      17236
cpu0_L1D PREFETCH  ACCESS:          0  HIT:          0  MISS:          0
cpu0_L1D WRITEBACK ACCESS:          0  HIT:          0  MISS:          0
cpu0_L2C TOTAL     ACCESS:     177701  HIT:     170570  MISS:       7131
cpu0_L2C LOAD      ACCESS:     128579  HIT:     122250  MISS:       6329
cpu0_L2C RFO       ACCESS:      17236  HIT:      16499  MISS:        737
cpu0_L2C PREFETCH  ACCESS:          0  HIT:          0  MISS:          0
cpu0_L2C WRITEBACK ACCESS:      31828  HIT:      31774  MISS:         54
[...]
cpu0_DTLB LOAD      ACCESS:  209870048  HIT:  209218887  MISS:     651161
cpu0_DTLB RFO       ACCESS:   92405005  HIT:   92366318  MISS:      38687
cpu0_DTLB PREFETCH  ACCESS:          0  HIT:          0  MISS:          0
cpu0_DTLB WRITEBACK ACCESS:          0  HIT:          0  MISS:          0
cpu0_ITLB TOTAL     ACCESS:  167636768  HIT:  167636500  MISS:        268
cpu0_ITLB LOAD      ACCESS:  167636768  HIT:  167636500  MISS:        268
cpu0_ITLB RFO       ACCESS:          0  HIT:          0  MISS:          0
cpu0_ITLB PREFETCH  ACCESS:          0  HIT:          0  MISS:          0
cpu0_ITLB WRITEBACK ACCESS:          0  HIT:          0  MISS:          0
cpu0_L1I TOTAL     ACCESS:   93066617  HIT:   92985862  MISS:      80755
cpu0_L1I LOAD      ACCESS:   93066617  HIT:   92985862  MISS:      80755
cpu0_L1I RFO       ACCESS:          0  HIT:          0  MISS:          0
cpu0_L1I PREFETCH  ACCESS:          0  HIT:          0  MISS:          0
cpu0_L1I WRITEBACK ACCESS:          0  HIT:          0  MISS:          0
cpu0_STLB TOTAL     ACCESS:     690116  HIT:     678953  MISS:      11163
cpu0_STLB LOAD      ACCESS:     651429  HIT:     644830  MISS:       6599
cpu0_STLB RFO       ACCESS:      38687  HIT:      34123  MISS:       4564
cpu0_STLB PREFETCH  ACCESS:          0  HIT:          0  MISS:          0
cpu0_STLB WRITEBACK ACCESS:          0  HIT:          0  MISS:          0
cpu0_L1D TOTAL     ACCESS:  410276574  HIT:  405621185  MISS:    4655389
cpu0_L1D LOAD      ACCESS:  238742801  HIT:  235121086  MISS:    3621715
cpu0_L1D RFO       ACCESS:  171522644  HIT:  170490265  MISS:    1032379
cpu0_L1D PREFETCH  ACCESS:          0  HIT:          0  MISS:          0
cpu0_L1D WRITEBACK ACCESS:          0  HIT:          0  MISS:          0
cpu0_L2C TOTAL     ACCESS:    6160258  HIT:    4762652  MISS:    1397606
cpu0_L2C LOAD      ACCESS:    3702457  HIT:    2923819  MISS:     778638
cpu0_L2C RFO       ACCESS:    1032353  HIT:     416258  MISS:     616095
cpu0_L2C PREFETCH  ACCESS:          0  HIT:          0  MISS:          0
cpu0_L2C WRITEBACK ACCESS:    1424153  HIT:    1421561  MISS:       2592
LLC TOTAL     ACCESS:    2065626  HIT:    1154208  MISS:     911418
LLC LOAD      ACCESS:     778638  HIT:     322760  MISS:     455878
LLC RFO       ACCESS:     616091  HIT:     160712  MISS:     455379
LLC PREFETCH  ACCESS:          0  HIT:          0  MISS:          0
LLC WRITEBACK ACCESS:     670616  HIT:     670497  MISS:        119
Heartbeat CPU 0 instructions: 1550000000 cycles: 1622659068 heartbeat IPC: 1.02301 cumulative IPC: 0.931614 (Simulation time: 12 hr 18 min 18 sec) 

Region of Interest Statistics
cpu0_DTLB TOTAL     ACCESS:  302665953  HIT:  301975101  MISS:     690852
cpu0_DTLB LOAD      ACCESS:  210141136  HIT:  209489026  MISS:     652110
cpu0_DTLB RFO       ACCESS:   92524817  HIT:   92486075  MISS:      38742
cpu0_DTLB PREFETCH  ACCESS:          0  HIT:          0  MISS:          0
cpu0_DTLB WRITEBACK ACCESS:          0  HIT:          0  MISS:          0
cpu0_ITLB TOTAL     ACCESS:  167857972  HIT:  167857704  MISS:        268
cpu0_ITLB LOAD      ACCESS:  167857972  HIT:  167857704  MISS:        268
cpu0_ITLB RFO       ACCESS:          0  HIT:          0  MISS:          0
cpu0_ITLB PREFETCH  ACCESS:          0  HIT:          0  MISS:          0
cpu0_ITLB WRITEBACK ACCESS:          0  HIT:          0  MISS:          0
cpu0_L1I TOTAL     ACCESS:   93195352  HIT:   93114462  MISS:      80890
cpu0_L1I LOAD      ACCESS:   93195352  HIT:   93114462  MISS:      80890
cpu0_L1I RFO       ACCESS:          0  HIT:          0  MISS:          0
cpu0_L1I PREFETCH  ACCESS:          0  HIT:          0  MISS:          0
cpu0_L1I WRITEBACK ACCESS:          0  HIT:          0  MISS:          0
cpu0_STLB TOTAL     ACCESS:     691120  HIT:     679953  MISS:      11167
cpu0_STLB LOAD      ACCESS:     652378  HIT:     645777  MISS:       6601
cpu0_STLB RFO       ACCESS:      38742  HIT:      34176  MISS:       4566
cpu0_STLB PREFETCH  ACCESS:          0  HIT:          0  MISS:          0
cpu0_STLB WRITEBACK ACCESS:          0  HIT:          0  MISS:          0
cpu0_L1D TOTAL     ACCESS:  410812351  HIT:  406151554  MISS:    4660797
cpu0_L1D LOAD      ACCESS:  239051486  HIT:  235425219  MISS:    3626267
cpu0_L1D RFO       ACCESS:  171749732  HIT:  170716501  MISS:    1033231
cpu0_L1D PREFETCH  ACCESS:          0  HIT:          0  MISS:          0
cpu0_L1D WRITEBACK ACCESS:          0  HIT:          0  MISS:          0
cpu0_L2C TOTAL     ACCESS:    6167203  HIT:    4769278  MISS:    1397925
cpu0_L2C LOAD      ACCESS:    3707144  HIT:    2928363  MISS:     778781
cpu0_L2C RFO       ACCESS:    1033205  HIT:     416938  MISS:     616267
cpu0_L2C PREFETCH  ACCESS:          0  HIT:          0  MISS:          0
cpu0_L2C WRITEBACK ACCESS:    1425555  HIT:    1422960  MISS:       2595
LLC TOTAL     ACCESS:    2066038  HIT:    1154608  MISS:     911430
LLC LOAD      ACCESS:     778781  HIT:     322897  MISS:     455884
LLC RFO       ACCESS:     616263  HIT:     160878  MISS:     455385
LLC PREFETCH  ACCESS:          0  HIT:          0  MISS:          0
LLC WRITEBACK ACCESS:     670712  HIT:     670593  MISS:        119
Finished CPU 0 instructions: 1500000004 cycles: 1610108312 cumulative IPC: 0.931614 (Simulation time: 12 hr 18 min 18 sec) 

ChampSim completed all CPUs

Region of Interest Statistics

CPU 0 cumulative IPC: 0.931614 instructions: 1500000004 cycles: 1610108312
cpu0_DTLB TOTAL     ACCESS:  302665953  HIT:  301975101  MISS:     690852
cpu0_DTLB LOAD      ACCESS:  210141136  HIT:  209489026  MISS:     652110
cpu0_DTLB RFO       ACCESS:   92524817  HIT:   92486075  MISS:      38742
cpu0_DTLB PREFETCH  ACCESS:          0  HIT:          0  MISS:          0
cpu0_DTLB WRITEBACK ACCESS:          0  HIT:          0  MISS:          0
cpu0_DTLB TRANSLATION ACCESS:          0  HIT:          0  MISS:          0
cpu0_DTLB PREFETCH  REQUESTED:          0  ISSUED:          0  USEFUL:          0  USELESS:          0
cpu0_DTLB AVERAGE MISS LATENCY: 9.80333 cycles
cpu0_ITLB TOTAL     ACCESS:  167857972  HIT:  167857704  MISS:        268
cpu0_ITLB LOAD      ACCESS:  167857972  HIT:  167857704  MISS:        268
cpu0_ITLB RFO       ACCESS:          0  HIT:          0  MISS:          0
cpu0_ITLB PREFETCH  ACCESS:          0  HIT:          0  MISS:          0
cpu0_ITLB WRITEBACK ACCESS:          0  HIT:          0  MISS:          0
cpu0_ITLB TRANSLATION ACCESS:          0  HIT:          0  MISS:          0
cpu0_ITLB PREFETCH  REQUESTED:          0  ISSUED:          0  USEFUL:          0  USELESS:          0
cpu0_ITLB AVERAGE MISS LATENCY: 56.8396 cycles
cpu0_L1I TOTAL     ACCESS:   93195352  HIT:   93114462  MISS:      80890
cpu0_L1I LOAD      ACCESS:   93195352  HIT:   93114462  MISS:      80890
cpu0_L1I RFO       ACCESS:          0  HIT:          0  MISS:          0
cpu0_L1I PREFETCH  ACCESS:          0  HIT:          0  MISS:          0
cpu0_L1I WRITEBACK ACCESS:          0  HIT:          0  MISS:          0
cpu0_L1I TRANSLATION ACCESS:          0  HIT:          0  MISS:          0
cpu0_L1I PREFETCH  REQUESTED:          0  ISSUED:          0  USEFUL:          0  USELESS:          0
cpu0_L1I AVERAGE MISS LATENCY: 24.8415 cycles
cpu0_STLB TOTAL     ACCESS:     691120  HIT:     679953  MISS:      11167
cpu0_STLB LOAD      ACCESS:     652378  HIT:     645777  MISS:       6601
cpu0_STLB RFO       ACCESS:      38742  HIT:      34176  MISS:       4566
cpu0_STLB PREFETCH  ACCESS:          0  HIT:          0  MISS:          0
cpu0_STLB WRITEBACK ACCESS:          0  HIT:          0  MISS:          0
cpu0_STLB TRANSLATION ACCESS:          0  HIT:          0  MISS:          0
cpu0_STLB PREFETCH  REQUESTED:          0  ISSUED:          0  USEFUL:          0  USELESS:          0
cpu0_STLB AVERAGE MISS LATENCY: 50.8 cycles
cpu0_L1D TOTAL     ACCESS:  410812351  HIT:  406151554  MISS:    4660797
cpu0_L1D LOAD      ACCESS:  239051486  HIT:  235425219  MISS:    3626267
cpu0_L1D RFO       ACCESS:  171749732  HIT:  170716501  MISS:    1033231
cpu0_L1D PREFETCH  ACCESS:          0  HIT:          0  MISS:          0
cpu0_L1D WRITEBACK ACCESS:          0  HIT:          0  MISS:          0
cpu0_L1D TRANSLATION ACCESS:      11133  HIT:       9834  MISS:       1299
cpu0_L1D PREFETCH  REQUESTED:          0  ISSUED:          0  USEFUL:          0  USELESS:          0
cpu0_L1D AVERAGE MISS LATENCY: 63.7825 cycles
cpu0_L2C TOTAL     ACCESS:    6167203  HIT:    4769278  MISS:    1397925
cpu0_L2C LOAD      ACCESS:    3707144  HIT:    2928363  MISS:     778781
cpu0_L2C RFO       ACCESS:    1033205  HIT:     416938  MISS:     616267
cpu0_L2C PREFETCH  ACCESS:          0  HIT:          0  MISS:          0
cpu0_L2C WRITEBACK ACCESS:    1425555  HIT:    1422960  MISS:       2595
cpu0_L2C TRANSLATION ACCESS:       1299  HIT:       1017  MISS:        282
cpu0_L2C PREFETCH  REQUESTED:          0  ISSUED:          0  USEFUL:          0  USELESS:          0
cpu0_L2C AVERAGE MISS LATENCY: 176.748 cycles
LLC TOTAL     ACCESS:    2066038  HIT:    1154608  MISS:     911430
LLC LOAD      ACCESS:     778781  HIT:     322897  MISS:     455884
LLC RFO       ACCESS:     616263  HIT:     160878  MISS:     455385
LLC PREFETCH  ACCESS:          0  HIT:          0  MISS:          0
LLC WRITEBACK ACCESS:     670712  HIT:     670593  MISS:        119
LLC TRANSLATION ACCESS:        282  HIT:        240  MISS:         42
LLC PREFETCH  REQUESTED:          0  ISSUED:          0  USEFUL:          0  USELESS:          0
LLC AVERAGE MISS LATENCY: 238.94 cycles
~~~~~~~~~~Reuse Distance Profiler output~~~~~~~~~~
0	0	0
1	0	0
2	0	0
3	0	0
4	0	0
5	0	0
6	0	0
7	0	0
8	0	0
9	0	0
10	0	0
11	0	0
12	0	0
13	0	0
14	0	0
15	0	0
16	0	0
17	0	0
18	0	0
19	0	0
20	0	0
21	0	0
22	0	0
23	0	0
24	0	0
25	0	0
26	0	0
27	0	0
28	0	0
29	0	0
30	0	0
31	0	0
32	0	0
33	0	0
34	0	0
35	0	0
36	0	0
37	0	0
38	0	0
39	0	0
40	0	0
41	0	0
42	0	0
43	0	0
44	0	0
45	0	0
46	0	0
47	0	0
48	0	0
49	0	0
50	0	0
51	0	0
52	0	0
53	0	0
54	0	0
55	0	0
56	0	0
57	0	0
58	0	0
59	0	0
60	0	0
61	0	0
62	0	0
63	0	0
64	0	0
66	0	0
68	0	0
70	0	0
72	0	0
74	0	0
76	0	0
78	0	0
80	0	0
82	0	0
84	0	0
86	0	0
88	0	0
90	0	0
92	0	0
94	0	0
96	0	0
98	0	0
100	0	0
102	0	0
104	0	0
106	0	0
108	0	0
110	0	0
112	0	0
114	0	0
116	0	0
118	0	0
120	0	0
122	0	0
124	0	0
126	0	0
128	0	0
132	0	0
136	0	0
140	0	0
144	0	0
148	0	0
152	0	0
156	0	0
160	0	0
164	0	0
168	0	0
172	0	0
176	0	0
180	0	0
184	0	0
188	0	0
192	0	0
196	0	0
200	0	0
204	0	0
208	0	0
212	0	0
216	0	0
220	0	0
224	0	0
228	0	0
232	0	0
236	0	0
240	0	0
244	0	0
248	0	0
252	0	0
256	0	0
264	0	0
272	0	0
280	0	0
288	0	0
296	0	0
304	0	0
312	0	0
320	0	0
328	0	0
336	0	0
344	0	0
352	0	0
360	0	0
368	0	0
376	0	0
384	0	0
392	0	0
400	0	0
408	0	0
416	0	0
424	0	0
432	0	0
440	0	0
448	0	0
456	0	0
464	0	0
472	0	0
480	0	0
488	0	0
496	0	0
504	0	0
512	0	0
528	0	0
544	0	0
560	0	0
576	0	0
592	0	0
608	0	0
624	0	0
640	0	0
656	0	0
672	0	0
688	0	0
704	0	0
720	0	0
736	0	0
752	0	0
768	0	0
784	0	0
800	0	0
816	0	0
832	0	0
848	0	0
864	0	0
880	0	0
896	0	0
912	0	0
928	0	0
944	0	0
960	0	0
976	0	0
992	0	0
1008	0	0
1024	0	0
1056	0	0
1088	0	0
1120	0	0
1152	0	0
1184	0	0
1216	0	0
1248	0	0
1280	0	0
1312	0	0
1344	0	0
1376	0	0
1408	0	0
1440	0	0
1472	0	0
1504	0	0
1536	0	0
1568	0	0
1600	0	0
1632	0	0
1664	0	0
1696	0	0
1728	0	0
1760	0	0
1792	0	0
1824	0	0
1856	0	0
1888	0	0
1920	0	0
1952	0	0
1984	0	0
2016	0	0
2048	0	0
2112	0	0
2176	0	0
2240	0	0
2304	0	0
2368	0	0
2432	0	0
2496	0	0
2560	0	0
2624	0	0
2688	0	0
2752	0	0
2816	0	0
2880	0	0
2944	0	0
3008	0	0
3072	0	0
3136	0	0
3200	0	0
3264	0	0
3328	0	0
3392	0	0
3456	0	0
3520	0	0
3584	0	0
3648	0	0
3712	0	0
3776	0	0
3840	0	0
3904	0	0
3968	0	0
4032	0	0
4096	0	0
4224	0	0
4352	0	0
4480	0	0
4608	0	0
4736	0	0
4864	0	0
4992	0	0
5120	0	0
5248	0	0
5376	0	0
5504	0	0
5632	0	0
5760	0	0
5888	0	0
6016	0	0
6144	0	0
6272	0	0
6400	0	0
6528	0	0
6656	0	0
6784	0	0
6912	0	0
7040	0	0
7168	0	0
7296	0	0
7424	0	0
7552	0	0
7680	0	0
7808	0	0
7936	0	0
8064	0	0
8192	0	0
8448	0	0
8704	0	0
8960	0	0
9216	0	0
9472	0	0
9728	0	0
9984	0	0
10240	0	0
10496	0	0
10752	0	0
11008	0	0
11264	0	0
11520	0	0
11776	0	0
12032	0	0
12288	0	0
12544	0	0
12800	0	0
13056	0	0
13312	0	0
13568	0	0
13824	0	0
14080	0	0
14336	0	0
14592	0	0
14848	0	0
15104	0	0
15360	0	0
15616	0	0
15872	0	0
16128	0	0
16384	0	0
16896	0	0
17408	0	0
17920	0	0
18432	0	0
18944	0	0
19456	0	0
19968	0	0
20480	0	0
20992	0	0
21504	0	0
22016	0	0
22528	0	0
23040	0	0
23552	0	0
24064	0	0
24576	0	0
25088	0	0
25600	0	0
26112	0	0
26624	0	0
27136	0	0
27648	0	0
28160	0	0
28672	0	0
29184	0	0
29696	0	0
30208	0	0
30720	0	0
31232	0	0
31744	0	0
32256	0	0
32768	0	0
33792	0	0
34816	0	0
35840	0	0
36864	0	0
37888	0	0
38912	0	0
39936	0	0
40960	0	0
41984	0	0
43008	0	0
44032	0	0
45056	0	0
46080	0	0
47104	0	0
48128	0	0
49152	0	0
50176	0	0
51200	0	0
52224	0	0
53248	0	0
54272	0	0
55296	0	0
56320	0	0
57344	0	0
58368	0	0
59392	0	0
60416	0	0
61440	0	0
62464	0	0
63488	0	0
64512	0	0
65536	0	0
67584	0	0
69632	0	0
71680	0	0
73728	0	0
75776	0	0
77824	0	0
79872	0	0
81920	0	0
83968	0	0
86016	0	0
88064	0	0
90112	0	0
92160	0	0
94208	0	0
96256	0	0
98304	0	0
100352	0	0
102400	0	0
104448	0	0
106496	0	0
108544	0	0
110592	0	0
112640	0	0
114688	0	0
116736	0	0
118784	0	0
120832	0	0
122880	0	0
124928	0	0
126976	0	0
129024	0	0
131072	0	0
135168	0	0
139264	0	0
143360	0	0
147456	0	0
151552	0	0
155648	0	0
159744	0	0
163840	0	0
167936	0	0
172032	0	0
176128	0	0
180224	0	0
184320	0	0
188416	0	0
192512	0	0
196608	0	0
200704	0	0
204800	0	0
208896	0	0
212992	0	0
217088	0	0
221184	0	0
225280	0	0
229376	0	0
233472	0	0
237568	0	0
241664	0	0
245760	0	0
249856	0	0
253952	0	0
258048	0	0
262144	0	0
270336	0	0
278528	0	0
286720	0	0
294912	0	0
303104	0	0
311296	0	0
319488	0	0
327680	0	0
335872	0	0
344064	0	0
352256	0	0
360448	0	0
368640	0	0
376832	0	0
385024	0	0
393216	0	0
401408	0	0
409600	0	0
417792	0	0
425984	0	0
434176	0	0
442368	0	0
450560	0	0
458752	0	0
466944	0	0
475136	0	0
483328	0	0
491520	0	0
499712	0	0
507904	0	0
516096	0	0
524288	0	0
540672	0	0
557056	0	0
573440	0	0
589824	0	0
606208	0	0
622592	0	0
638976	0	0
655360	0	0
671744	0	0
688128	0	0
704512	0	0
720896	0	0
737280	0	0
753664	0	0
770048	0	0
786432	0	0
802816	0	0
819200	0	0
835584	0	0
851968	0	0
868352	0	0
884736	0	0
901120	0	0
917504	0	0
933888	0	0
950272	0	0
966656	0	0
983040	0	0
999424	0	0
1015808	0	0
1032192	0	0
1048576	0	0
1081344	0	0
1114112	0	0
1146880	0	0
1179648	0	0
1212416	0	0
1245184	0	0
1277952	0	0
1310720	0	0
1343488	0	0
1376256	0	0
1409024	0	0
1441792	0	0
1474560	0	0
1507328	0	0
1540096	0	0
1572864	0	0
1605632	0	0
1638400	0	0
1671168	0	0
1703936	0	0
1736704	0	0
1769472	0	0
1802240	0	0
1835008	0	0
1867776	0	0
1900544	0	0
1933312	0	0
1966080	0	0
1998848	0	0
2031616	0	0
2064384	0	0
2097152	0	0
2162688	0	0
2228224	0	0
2293760	0	0
2359296	0	0
2424832	0	0
2490368	0	0
2555904	0	0
2621440	0	0
2686976	0	0
2752512	0	0
2818048	0	0
2883584	0	0
2949120	0	0
3014656	0	0
3080192	0	0
3145728	0	0
3211264	0	0
3276800	0	0
3342336	0	0
3407872	0	0
3473408	0	0
3538944	0	0
3604480	0	0
3670016	0	0
3735552	0	0
3801088	0	0
3866624	0	0
3932160	0	0
3997696	0	0
4063232	0	0
4128768	0	0
4194304	0	0
4325376	0	0
4456448	0	0
4587520	0	0
4718592	0	0
4849664	0	0
4980736	0	0
5111808	0	0
5242880	0	0
5373952	0	0
5505024	0	0
5636096	0	0
5767168	0	0
5898240	0	0
6029312	0	0
6160384	0	0
6291456	0	0
6422528	0	0
6553600	0	0
6684672	0	0
6815744	0	0
6946816	0	0
7077888	0	0
7208960	0	0
7340032	0	0
7471104	0	0
7602176	0	0
7733248	0	0
7864320	0	0
7995392	0	0
8126464	0	0
8257536	0	0
8388608	0	0
8650752	0	0
8912896	0	0
9175040	0	0
9437184	0	0
9699328	0	0
9961472	0	0
10223616	0	0
10485760	0	0
10747904	0	0
11010048	0	0
11272192	0	0
11534336	0	0
11796480	0	0
12058624	0	0
12320768	0	0
12582912	0	0
12845056	0	0
13107200	0	0
13369344	0	0
13631488	0	0
13893632	0	0
14155776	0	0
14417920	0	0
14680064	0	0
14942208	0	0
15204352	0	0
15466496	0	0
15728640	0	0
15990784	0	0
16252928	0	0
16515072	0	0
16777216	0	0
17301504	0	0
17825792	0	0
18350080	0	0
18874368	0	0
19398656	0	0
19922944	0	0
20447232	0	0
20971520	0	0
21495808	0	0
22020096	0	0
22544384	0	0
23068672	0	0
23592960	0	0
24117248	0	0
24641536	0	0
25165824	0	0
25690112	0	0
26214400	0	0
26738688	0	0
27262976	0	0
27787264	0	0
28311552	0	0
28835840	0	0
29360128	0	0
29884416	0	0
30408704	0	0
30932992	0	0
31457280	0	0
31981568	0	0
32505856	0	0
33030144	0	0
33554432	0	0
34603008	0	0
35651584	0	0
36700160	0	0
37748736	0	0
38797312	0	0
39845888	0	0
40894464	0	0
41943040	0	0
42991616	0	0
44040192	0	0
45088768	0	0
46137344	0	0
47185920	0	0
48234496	0	0
49283072	0	0
50331648	0	0
51380224	0	0
52428800	0	0
53477376	0	0
54525952	0	0
55574528	0	0
56623104	0	0
57671680	0	0
58720256	0	0
59768832	0	0
60817408	0	0
61865984	0	0
62914560	0	0
63963136	0	0
65011712	0	0
66060288	0	0
67108864	0	0
69206016	0	0
71303168	0	0
73400320	0	0
75497472	0	0
77594624	0	0
79691776	0	0
81788928	0	0
83886080	0	0
85983232	0	0
88080384	0	0
90177536	0	0
92274688	0	0
94371840	0	0
96468992	0	0
98566144	0	0
100663296	0	0
102760448	0	0
104857600	0	0
106954752	0	0
109051904	0	0
111149056	0	0
113246208	0	0
115343360	0	0
117440512	0	0
119537664	0	0
121634816	0	0
123731968	0	0
125829120	0	0
127926272	0	0
130023424	0	0
132120576	0	0
134217728	0	0
138412032	0	0
142606336	0	0
146800640	0	0
150994944	0	0
155189248	0	0
159383552	0	0
163577856	0	0
167772160	0	0
171966464	0	0
176160768	0	0
180355072	0	0
184549376	0	0
188743680	0	0
192937984	0	0
197132288	0	0
201326592	0	0
205520896	0	0
209715200	0	0
213909504	0	0
218103808	0	0
222298112	0	0
226492416	0	0
230686720	0	0
234881024	0	0
239075328	0	0
243269632	0	0
247463936	0	0
251658240	0	0
255852544	0	0
260046848	0	0
264241152	0	0
268435456	0	0
276824064	0	0
285212672	0	0
293601280	0	0
301989888	0	0
310378496	0	0
318767104	0	0
327155712	0	0
335544320	0	0
343932928	0	0
352321536	0	0
360710144	0	0
369098752	0	0
377487360	0	0
385875968	0	0
394264576	0	0
402653184	0	0
411041792	0	0
419430400	0	0
427819008	0	0
436207616	0	0
444596224	0	0
452984832	0	0
461373440	0	0
469762048	0	0
478150656	0	0
486539264	0	0
494927872	0	0
503316480	0	0
511705088	0	0
520093696	0	0
528482304	0	0
536870912	0	0
553648128	0	0
570425344	0	0
587202560	0	0
603979776	0	0
620756992	0	0
637534208	0	0
654311424	0	0
671088640	0	0
687865856	0	0
704643072	0	0
721420288	0	0
738197504	0	0
754974720	0	0
771751936	0	0
788529152	0	0
805306368	0	0
822083584	0	0
838860800	0	0
855638016	0	0
872415232	0	0
889192448	0	0
905969664	0	0
922746880	0	0
939524096	0	0
956301312	0	0
973078528	0	0
989855744	0	0
1006632960	0	0
1023410176	0	0
1040187392	0	0
1056964608	0	0
1073741824	0	0
1107296256	0	0
1140850688	0	0
1174405120	0	0
1207959552	0	0
1241513984	0	0
1275068416	0	0
1308622848	0	0
1342177280	0	0
1375731712	0	0
1409286144	0	0
1442840576	0	0
1476395008	0	0
1509949440	0	0
1543503872	0	0
1577058304	0	0
1610612736	0	0
1644167168	0	0
1677721600	0	0
1711276032	0	0
1744830464	0	0
1778384896	0	0
1811939328	0	0
1845493760	0	0
1879048192	0	0
1912602624	0	0
1946157056	0	0
1979711488	0	0
2013265920	0	0
2046820352	0	0
2080374784	0	0
2113929216	0	0
2147483648	0	0
2214592512	0	0
2281701376	0	0
2348810240	0	0
2415919104	0	0
2483027968	0	0
2550136832	0	0
2617245696	0	0
2684354560	0	0
2751463424	0	0
2818572288	0	0
2885681152	0	0
2952790016	0	0
3019898880	0	0
3087007744	0	0
3154116608	0	0
3221225472	0	0
3288334336	0	0
3355443200	0	0
3422552064	0	0
3489660928	0	0
3556769792	0	0
3623878656	0	0
3690987520	0	0
3758096384	0	0
3825205248	0	0
3892314112	0	0
3959422976	0	0
4026531840	0	0
4093640704	0	0
4160749568	0	0
4227858432	0	0
~~~~~~~~~~Reuse Distance Profiler output end~~~~~~~~~~

Sampler size:0

DRAM Statistics
 CHANNEL 0
 RQ ROW_BUFFER_HIT:      77900  ROW_BUFFER_MISS:     832524
 DBUS AVG_CONGESTED_CYCLE:    3.96637
 WQ ROW_BUFFER_HIT:      67199  ROW_BUFFER_MISS:     392763  FULL:          0


CPU 0 Branch Prediction Accuracy: 85.0513% MPKI: 25.1011 Average ROB Occupancy at Mispredict: 18.6457
Branch type MPKI
BRANCH_DIRECT_JUMP: 9.33333e-05
BRANCH_INDIRECT: 0.002658
BRANCH_CONDITIONAL: 25.0979
BRANCH_DIRECT_CALL: 0.000195333
BRANCH_INDIRECT_CALL: 7.86667e-05
BRANCH_RETURN: 0.00021

