
*** ChampSim Multicore Out-of-Order Simulator ***

Warmup Instructions: 50000000
Simulation Instructions: 1500000000
Number of CPUs: 1
Off-chip DRAM Size: 4 GiB Channels: 1 Width: 64-bit Data Rate: 3200 MT/s

VirtualMemory physical capacity: 8588881920 num_ppages: 2096895
VirtualMemory page size: 4096 log2_page_size: 12

CPU 0 runs /s/traces/champsim_traces/654.roms_s-294B.champsimtrace.xz
CPU 0 Bimodal branch predictor
Basic BTB sets: 1024 ways: 8 indirect buffer size: 4096 RAS size: 64
Initializing LRU.
Initializing LRU.
Initializing LRU.
Initializing LRU.
Initializing rdLRU.
Initializing LRU.
Initializing LRU.
Heartbeat CPU 0 instructions: 2000000 cycles: 766182 heartbeat IPC: 2.61035 cumulative IPC: 2.61035 (Simulation time: 0 hr 1 min 40 sec) 
Heartbeat CPU 0 instructions: 4000003 cycles: 1531491 heartbeat IPC: 2.61333 cumulative IPC: 2.61184 (Simulation time: 0 hr 3 min 18 sec) 
Heartbeat CPU 0 instructions: 6000003 cycles: 2297535 heartbeat IPC: 2.61082 cumulative IPC: 2.6115 (Simulation time: 0 hr 4 min 58 sec) 
Heartbeat CPU 0 instructions: 8000001 cycles: 3062844 heartbeat IPC: 2.61332 cumulative IPC: 2.61195 (Simulation time: 0 hr 6 min 31 sec) 
Heartbeat CPU 0 instructions: 10000000 cycles: 3828155 heartbeat IPC: 2.61332 cumulative IPC: 2.61222 (Simulation time: 0 hr 8 min 13 sec) 
Heartbeat CPU 0 instructions: 12000003 cycles: 4594201 heartbeat IPC: 2.61081 cumulative IPC: 2.61199 (Simulation time: 0 hr 9 min 54 sec) 
Heartbeat CPU 0 instructions: 14000000 cycles: 5359516 heartbeat IPC: 2.6133 cumulative IPC: 2.61218 (Simulation time: 0 hr 11 min 34 sec) 
Heartbeat CPU 0 instructions: 16000002 cycles: 6125557 heartbeat IPC: 2.61083 cumulative IPC: 2.61201 (Simulation time: 0 hr 13 min 13 sec) 
Heartbeat CPU 0 instructions: 18000000 cycles: 6890867 heartbeat IPC: 2.61332 cumulative IPC: 2.61215 (Simulation time: 0 hr 14 min 56 sec) 
Heartbeat CPU 0 instructions: 20000001 cycles: 7656180 heartbeat IPC: 2.61331 cumulative IPC: 2.61227 (Simulation time: 0 hr 16 min 18 sec) 
Heartbeat CPU 0 instructions: 22000004 cycles: 8422226 heartbeat IPC: 2.61081 cumulative IPC: 2.61214 (Simulation time: 0 hr 17 min 42 sec) 
Heartbeat CPU 0 instructions: 24000000 cycles: 9187532 heartbeat IPC: 2.61333 cumulative IPC: 2.61224 (Simulation time: 0 hr 19 min 23 sec) 
Heartbeat CPU 0 instructions: 26000004 cycles: 9952845 heartbeat IPC: 2.61332 cumulative IPC: 2.61232 (Simulation time: 0 hr 21 min 3 sec) 
Heartbeat CPU 0 instructions: 28000002 cycles: 10718892 heartbeat IPC: 2.6108 cumulative IPC: 2.61221 (Simulation time: 0 hr 22 min 44 sec) 
Heartbeat CPU 0 instructions: 30000001 cycles: 11484202 heartbeat IPC: 2.61332 cumulative IPC: 2.61228 (Simulation time: 0 hr 24 min 23 sec) 
Heartbeat CPU 0 instructions: 32000001 cycles: 12250245 heartbeat IPC: 2.61082 cumulative IPC: 2.61219 (Simulation time: 0 hr 25 min 59 sec) 
Heartbeat CPU 0 instructions: 34000000 cycles: 13015557 heartbeat IPC: 2.61331 cumulative IPC: 2.61226 (Simulation time: 0 hr 27 min 34 sec) 
Heartbeat CPU 0 instructions: 36000000 cycles: 13780870 heartbeat IPC: 2.61331 cumulative IPC: 2.61232 (Simulation time: 0 hr 29 min 10 sec) 
Heartbeat CPU 0 instructions: 38000001 cycles: 14546914 heartbeat IPC: 2.61082 cumulative IPC: 2.61224 (Simulation time: 0 hr 30 min 44 sec) 
Heartbeat CPU 0 instructions: 40000003 cycles: 15312231 heartbeat IPC: 2.6133 cumulative IPC: 2.61229 (Simulation time: 0 hr 32 min 18 sec) 
Heartbeat CPU 0 instructions: 42000000 cycles: 16077539 heartbeat IPC: 2.61332 cumulative IPC: 2.61234 (Simulation time: 0 hr 33 min 52 sec) 
Heartbeat CPU 0 instructions: 44000004 cycles: 16843585 heartbeat IPC: 2.61081 cumulative IPC: 2.61227 (Simulation time: 0 hr 35 min 28 sec) 
Heartbeat CPU 0 instructions: 46000001 cycles: 17608893 heartbeat IPC: 2.61332 cumulative IPC: 2.61232 (Simulation time: 0 hr 37 min 3 sec) 
Heartbeat CPU 0 instructions: 48000001 cycles: 18374940 heartbeat IPC: 2.61081 cumulative IPC: 2.61225 (Simulation time: 0 hr 38 min 39 sec) 
Heartbeat CPU 0 instructions: 50000004 cycles: 19140256 heartbeat IPC: 2.6133 cumulative IPC: 2.6123 (Simulation time: 0 hr 40 min 14 sec) 

Warmup complete CPU 0 instructions: 50000004 cycles: 19140256 (Simulation time: 0 hr 40 min 14 sec) 

Heartbeat CPU 0 instructions: 52000004 cycles: 21765362 heartbeat IPC: 0.761874 cumulative IPC: 0.761874 (Simulation time: 0 hr 43 min 34 sec) 

Region of Interest Statistics
cpu0_DTLB TOTAL     ACCESS:     547208  HIT:     546422  MISS:        786
cpu0_DTLB LOAD      ACCESS:     483893  HIT:     483111  MISS:        782
cpu0_DTLB RFO       ACCESS:      63315  HIT:      63311  MISS:          4
cpu0_DTLB PREFETCH  ACCESS:          0  HIT:          0  MISS:          0
cpu0_DTLB WRITEBACK ACCESS:          0  HIT:          0  MISS:          0
cpu0_ITLB TOTAL     ACCESS:       3110  HIT:       3110  MISS:          0
cpu0_ITLB LOAD      ACCESS:       3110  HIT:       3110  MISS:          0
cpu0_ITLB RFO       ACCESS:          0  HIT:          0  MISS:          0
cpu0_ITLB PREFETCH  ACCESS:          0  HIT:          0  MISS:          0
cpu0_ITLB WRITEBACK ACCESS:          0  HIT:          0  MISS:          0
cpu0_STLB TOTAL     ACCESS:        786  HIT:        131  MISS:        655
cpu0_STLB LOAD      ACCESS:        782  HIT:        131  MISS:        651
cpu0_STLB RFO       ACCESS:          4  HIT:          0  MISS:          4
cpu0_STLB PREFETCH  ACCESS:          0  HIT:          0  MISS:          0
cpu0_STLB WRITEBACK ACCESS:          0  HIT:          0  MISS:          0
cpu0_L1D TOTAL     ACCESS:     473267  HIT:     447088  MISS:      26179
cpu0_L1D LOAD      ACCESS:     405650  HIT:     379905  MISS:      25745
cpu0_L1D RFO       ACCESS:      66963  HIT:      66702  MISS:        261
cpu0_L1D PREFETCH  ACCESS:          0  HIT:          0  MISS:          0
cpu0_L1D WRITEBACK ACCESS:          0  HIT:          0  MISS:          0
cpu0_L2C TOTAL     ACCESS:      26603  HIT:        304  MISS:      26299
cpu0_L2C LOAD      ACCESS:      25744  HIT:        200  MISS:      25544
cpu0_L2C RFO       ACCESS:        261  HIT:          0  MISS:        261
cpu0_L2C PREFETCH  ACCESS:          0  HIT:          0  MISS:          0
cpu0_L2C WRITEBACK ACCESS:        425  HIT:        104  MISS:        321
LLC TOTAL     ACCESS:      26220  HIT:       4674  MISS:      21546
LLC LOAD      ACCESS:      25544  HIT:       4263  MISS:      21281
LLC RFO       ACCESS:        261  HIT:          2  MISS:        259
LLC PREFETCH  ACCESS:          0  HIT:          0  MISS:          0
LLC WRITEBACK ACCESS:        242  HIT:        236  MISS:          6
Heartbeat CPU 0 instructions: 54000003 cycles: 24385840 heartbeat IPC: 0.763219 cumulative IPC: 0.762546 (Simulation time: 0 hr 46 min 54 sec) 

Region of Interest Statistics
cpu0_DTLB TOTAL     ACCESS:    1095366  HIT:    1093793  MISS:       1573
cpu0_DTLB LOAD      ACCESS:     968799  HIT:     967232  MISS:       1567
cpu0_DTLB RFO       ACCESS:     126567  HIT:     126561  MISS:          6
cpu0_DTLB PREFETCH  ACCESS:          0  HIT:          0  MISS:          0
cpu0_DTLB WRITEBACK ACCESS:          0  HIT:          0  MISS:          0
cpu0_ITLB TOTAL     ACCESS:       6171  HIT:       6171  MISS:          0
cpu0_ITLB LOAD      ACCESS:       6171  HIT:       6171  MISS:          0
cpu0_ITLB RFO       ACCESS:          0  HIT:          0  MISS:          0
cpu0_ITLB PREFETCH  ACCESS:          0  HIT:          0  MISS:          0
cpu0_ITLB WRITEBACK ACCESS:          0  HIT:          0  MISS:          0
cpu0_STLB TOTAL     ACCESS:       1573  HIT:        265  MISS:       1308
cpu0_STLB LOAD      ACCESS:       1567  HIT:        265  MISS:       1302
cpu0_STLB RFO       ACCESS:          6  HIT:          0  MISS:          6
cpu0_STLB PREFETCH  ACCESS:          0  HIT:          0  MISS:          0
cpu0_STLB WRITEBACK ACCESS:          0  HIT:          0  MISS:          0
cpu0_L1D TOTAL     ACCESS:     947652  HIT:     895482  MISS:      52170
cpu0_L1D LOAD      ACCESS:     812385  HIT:     760950  MISS:      51435
cpu0_L1D RFO       ACCESS:     133960  HIT:     133568  MISS:        392
cpu0_L1D PREFETCH  ACCESS:          0  HIT:          0  MISS:          0
cpu0_L1D WRITEBACK ACCESS:          0  HIT:          0  MISS:          0
cpu0_L2C TOTAL     ACCESS:      52897  HIT:        604  MISS:      52293
cpu0_L2C LOAD      ACCESS:      51433  HIT:        412  MISS:      51021
cpu0_L2C RFO       ACCESS:        392  HIT:          0  MISS:        392
cpu0_L2C PREFETCH  ACCESS:          0  HIT:          0  MISS:          0
cpu0_L2C WRITEBACK ACCESS:        729  HIT:        192  MISS:        537
LLC TOTAL     ACCESS:      52368  HIT:       9452  MISS:      42916
LLC LOAD      ACCESS:      51021  HIT:       8508  MISS:      42513
LLC RFO       ACCESS:        392  HIT:          3  MISS:        389
LLC PREFETCH  ACCESS:          0  HIT:          0  MISS:          0
LLC WRITEBACK ACCESS:        612  HIT:        598  MISS:         14
Heartbeat CPU 0 instructions: 56000000 cycles: 27012492 heartbeat IPC: 0.761424 cumulative IPC: 0.762172 (Simulation time: 0 hr 50 min 13 sec) 

Region of Interest Statistics
cpu0_DTLB TOTAL     ACCESS:    1642666  HIT:    1640296  MISS:       2370
cpu0_DTLB LOAD      ACCESS:    1452778  HIT:    1450418  MISS:       2360
cpu0_DTLB RFO       ACCESS:     189888  HIT:     189878  MISS:         10
cpu0_DTLB PREFETCH  ACCESS:          0  HIT:          0  MISS:          0
cpu0_DTLB WRITEBACK ACCESS:          0  HIT:          0  MISS:          0
cpu0_ITLB TOTAL     ACCESS:       9309  HIT:       9309  MISS:          0
cpu0_ITLB LOAD      ACCESS:       9309  HIT:       9309  MISS:          0
cpu0_ITLB RFO       ACCESS:          0  HIT:          0  MISS:          0
cpu0_ITLB PREFETCH  ACCESS:          0  HIT:          0  MISS:          0
cpu0_ITLB WRITEBACK ACCESS:          0  HIT:          0  MISS:          0
cpu0_STLB TOTAL     ACCESS:       2370  HIT:        397  MISS:       1973
cpu0_STLB LOAD      ACCESS:       2360  HIT:        397  MISS:       1963
cpu0_STLB RFO       ACCESS:         10  HIT:          0  MISS:         10
cpu0_STLB PREFETCH  ACCESS:          0  HIT:          0  MISS:          0
cpu0_STLB WRITEBACK ACCESS:          0  HIT:          0  MISS:          0
cpu0_L1D TOTAL     ACCESS:    1420959  HIT:    1342603  MISS:      78356
cpu0_L1D LOAD      ACCESS:    1218058  HIT:    1140873  MISS:      77185
cpu0_L1D RFO       ACCESS:     200930  HIT:     200279  MISS:        651
cpu0_L1D PREFETCH  ACCESS:          0  HIT:          0  MISS:          0
cpu0_L1D WRITEBACK ACCESS:          0  HIT:          0  MISS:          0
cpu0_L2C TOTAL     ACCESS:      79501  HIT:        911  MISS:      78590
cpu0_L2C LOAD      ACCESS:      77183  HIT:        614  MISS:      76569
cpu0_L2C RFO       ACCESS:        651  HIT:          0  MISS:        651
cpu0_L2C PREFETCH  ACCESS:          0  HIT:          0  MISS:          0
cpu0_L2C WRITEBACK ACCESS:       1147  HIT:        297  MISS:        850
LLC TOTAL     ACCESS:      78691  HIT:      14213  MISS:      64478
LLC LOAD      ACCESS:      76569  HIT:      12759  MISS:      63810
LLC RFO       ACCESS:        651  HIT:          5  MISS:        646
LLC PREFETCH  ACCESS:          0  HIT:          0  MISS:          0
LLC WRITEBACK ACCESS:        951  HIT:        935  MISS:         16
Heartbeat CPU 0 instructions: 58000003 cycles: 29632148 heartbeat IPC: 0.76346 cumulative IPC: 0.762493 (Simulation time: 0 hr 53 min 54 sec) 

Region of Interest Statistics
cpu0_DTLB TOTAL     ACCESS:    2190803  HIT:    2187647  MISS:       3156
cpu0_DTLB LOAD      ACCESS:    1937636  HIT:    1934492  MISS:       3144
cpu0_DTLB RFO       ACCESS:     253167  HIT:     253155  MISS:         12
cpu0_DTLB PREFETCH  ACCESS:          0  HIT:          0  MISS:          0
cpu0_DTLB WRITEBACK ACCESS:          0  HIT:          0  MISS:          0
cpu0_ITLB TOTAL     ACCESS:      12363  HIT:      12363  MISS:          0
cpu0_ITLB LOAD      ACCESS:      12363  HIT:      12363  MISS:          0
cpu0_ITLB RFO       ACCESS:          0  HIT:          0  MISS:          0
cpu0_ITLB PREFETCH  ACCESS:          0  HIT:          0  MISS:          0
cpu0_ITLB WRITEBACK ACCESS:          0  HIT:          0  MISS:          0
cpu0_STLB TOTAL     ACCESS:       3156  HIT:        529  MISS:       2627
cpu0_STLB LOAD      ACCESS:       3144  HIT:        529  MISS:       2615
cpu0_STLB RFO       ACCESS:         12  HIT:          0  MISS:         12
cpu0_STLB PREFETCH  ACCESS:          0  HIT:          0  MISS:          0
cpu0_STLB WRITEBACK ACCESS:          0  HIT:          0  MISS:          0
cpu0_L1D TOTAL     ACCESS:    1895567  HIT:    1791232  MISS:     104335
cpu0_L1D LOAD      ACCESS:    1625015  HIT:    1522151  MISS:     102864
cpu0_L1D RFO       ACCESS:     267927  HIT:     267145  MISS:        782
cpu0_L1D PREFETCH  ACCESS:          0  HIT:          0  MISS:          0
cpu0_L1D WRITEBACK ACCESS:          0  HIT:          0  MISS:          0
cpu0_L2C TOTAL     ACCESS:     105769  HIT:       1181  MISS:     104588
cpu0_L2C LOAD      ACCESS:     102862  HIT:        804  MISS:     102058
cpu0_L2C RFO       ACCESS:        782  HIT:          0  MISS:        782
cpu0_L2C PREFETCH  ACCESS:          0  HIT:          0  MISS:          0
cpu0_L2C WRITEBACK ACCESS:       1436  HIT:        377  MISS:       1059
LLC TOTAL     ACCESS:     104703  HIT:      18882  MISS:      85821
LLC LOAD      ACCESS:     102058  HIT:      17035  MISS:      85023
LLC RFO       ACCESS:        782  HIT:          6  MISS:        776
LLC PREFETCH  ACCESS:          0  HIT:          0  MISS:          0
LLC WRITEBACK ACCESS:       1174  HIT:       1158  MISS:         16
Heartbeat CPU 0 instructions: 60000004 cycles: 32256725 heartbeat IPC: 0.762028 cumulative IPC: 0.7624 (Simulation time: 0 hr 57 min 11 sec) 

Region of Interest Statistics
cpu0_DTLB TOTAL     ACCESS:    2738062  HIT:    2734115  MISS:       3947
cpu0_DTLB LOAD      ACCESS:    2421544  HIT:    2417613  MISS:       3931
cpu0_DTLB RFO       ACCESS:     316518  HIT:     316502  MISS:         16
cpu0_DTLB PREFETCH  ACCESS:          0  HIT:          0  MISS:          0
cpu0_DTLB WRITEBACK ACCESS:          0  HIT:          0  MISS:          0
cpu0_ITLB TOTAL     ACCESS:      15510  HIT:      15510  MISS:          0
cpu0_ITLB LOAD      ACCESS:      15510  HIT:      15510  MISS:          0
cpu0_ITLB RFO       ACCESS:          0  HIT:          0  MISS:          0
cpu0_ITLB PREFETCH  ACCESS:          0  HIT:          0  MISS:          0
cpu0_ITLB WRITEBACK ACCESS:          0  HIT:          0  MISS:          0
cpu0_STLB TOTAL     ACCESS:       3947  HIT:        661  MISS:       3286
cpu0_STLB LOAD      ACCESS:       3931  HIT:        661  MISS:       3270
cpu0_STLB RFO       ACCESS:         16  HIT:          0  MISS:         16
cpu0_STLB PREFETCH  ACCESS:          0  HIT:          0  MISS:          0
cpu0_STLB WRITEBACK ACCESS:          0  HIT:          0  MISS:          0
cpu0_L1D TOTAL     ACCESS:    2369000  HIT:    2238491  MISS:     130509
cpu0_L1D LOAD      ACCESS:    2030819  HIT:    1902219  MISS:     128600
cpu0_L1D RFO       ACCESS:     334898  HIT:     333856  MISS:       1042
cpu0_L1D PREFETCH  ACCESS:          0  HIT:          0  MISS:          0
cpu0_L1D WRITEBACK ACCESS:          0  HIT:          0  MISS:          0
cpu0_L2C TOTAL     ACCESS:     132361  HIT:       1471  MISS:     130890
cpu0_L2C LOAD      ACCESS:     128598  HIT:        996  MISS:     127602
cpu0_L2C RFO       ACCESS:       1042  HIT:          0  MISS:       1042
cpu0_L2C PREFETCH  ACCESS:          0  HIT:          0  MISS:          0
cpu0_L2C WRITEBACK ACCESS:       1854  HIT:        474  MISS:       1380
LLC TOTAL     ACCESS:     131035  HIT:      23678  MISS:     107357
LLC LOAD      ACCESS:     127602  HIT:      21302  MISS:     106300
LLC RFO       ACCESS:       1042  HIT:          8  MISS:       1034
LLC PREFETCH  ACCESS:          0  HIT:          0  MISS:          0
LLC WRITEBACK ACCESS:       1525  HIT:       1508  MISS:         17
Heartbeat CPU 0 instructions: 62000000 cycles: 34881567 heartbeat IPC: 0.761949 cumulative IPC: 0.762325 (Simulation time: 1 hr 0 min 27 sec) 

Region of Interest Statistics
cpu0_DTLB TOTAL     ACCESS:    3285364  HIT:    3280633  MISS:       4731
cpu0_DTLB LOAD      ACCESS:    2905524  HIT:    2900813  MISS:       4711
cpu0_DTLB RFO       ACCESS:     379840  HIT:     379820  MISS:         20
cpu0_DTLB PREFETCH  ACCESS:          0  HIT:          0  MISS:          0
cpu0_DTLB WRITEBACK ACCESS:          0  HIT:          0  MISS:          0
cpu0_ITLB TOTAL     ACCESS:      18610  HIT:      18610  MISS:          0
cpu0_ITLB LOAD      ACCESS:      18610  HIT:      18610  MISS:          0
cpu0_ITLB RFO       ACCESS:          0  HIT:          0  MISS:          0
cpu0_ITLB PREFETCH  ACCESS:          0  HIT:          0  MISS:          0
cpu0_ITLB WRITEBACK ACCESS:          0  HIT:          0  MISS:          0
cpu0_STLB TOTAL     ACCESS:       4731  HIT:        790  MISS:       3941
cpu0_STLB LOAD      ACCESS:       4711  HIT:        790  MISS:       3921
cpu0_STLB RFO       ACCESS:         20  HIT:          0  MISS:         20
cpu0_STLB PREFETCH  ACCESS:          0  HIT:          0  MISS:          0
cpu0_STLB WRITEBACK ACCESS:          0  HIT:          0  MISS:          0
cpu0_L1D TOTAL     ACCESS:    2842407  HIT:    2685723  MISS:     156684
cpu0_L1D LOAD      ACCESS:    2436608  HIT:    2282267  MISS:     154341
cpu0_L1D RFO       ACCESS:     401861  HIT:     400558  MISS:       1303
cpu0_L1D PREFETCH  ACCESS:          0  HIT:          0  MISS:          0
cpu0_L1D WRITEBACK ACCESS:          0  HIT:          0  MISS:          0
cpu0_L2C TOTAL     ACCESS:     158953  HIT:       1760  MISS:     157193
cpu0_L2C LOAD      ACCESS:     154338  HIT:       1186  MISS:     153152
cpu0_L2C RFO       ACCESS:       1303  HIT:          0  MISS:       1303
cpu0_L2C PREFETCH  ACCESS:          0  HIT:          0  MISS:          0
cpu0_L2C WRITEBACK ACCESS:       2272  HIT:        573  MISS:       1699
LLC TOTAL     ACCESS:     157279  HIT:      28380  MISS:     128899
LLC LOAD      ACCESS:     153152  HIT:      25571  MISS:     127581
LLC RFO       ACCESS:       1303  HIT:         10  MISS:       1293
LLC PREFETCH  ACCESS:          0  HIT:          0  MISS:          0
LLC WRITEBACK ACCESS:       1785  HIT:       1766  MISS:         19
Heartbeat CPU 0 instructions: 64000003 cycles: 37499663 heartbeat IPC: 0.763915 cumulative IPC: 0.762552 (Simulation time: 1 hr 3 min 50 sec) 

Region of Interest Statistics
cpu0_DTLB TOTAL     ACCESS:    3833550  HIT:    3828031  MISS:       5519
cpu0_DTLB LOAD      ACCESS:    3390420  HIT:    3384923  MISS:       5497
cpu0_DTLB RFO       ACCESS:     443130  HIT:     443108  MISS:         22
cpu0_DTLB PREFETCH  ACCESS:          0  HIT:          0  MISS:          0
cpu0_DTLB WRITEBACK ACCESS:          0  HIT:          0  MISS:          0
cpu0_ITLB TOTAL     ACCESS:      21671  HIT:      21671  MISS:          0
cpu0_ITLB LOAD      ACCESS:      21671  HIT:      21671  MISS:          0
cpu0_ITLB RFO       ACCESS:          0  HIT:          0  MISS:          0
cpu0_ITLB PREFETCH  ACCESS:          0  HIT:          0  MISS:          0
cpu0_ITLB WRITEBACK ACCESS:          0  HIT:          0  MISS:          0
cpu0_STLB TOTAL     ACCESS:       5519  HIT:        922  MISS:       4597
cpu0_STLB LOAD      ACCESS:       5497  HIT:        922  MISS:       4575
cpu0_STLB RFO       ACCESS:         22  HIT:          0  MISS:         22
cpu0_STLB PREFETCH  ACCESS:          0  HIT:          0  MISS:          0
cpu0_STLB WRITEBACK ACCESS:          0  HIT:          0  MISS:          0
cpu0_L1D TOTAL     ACCESS:    3317000  HIT:    3134325  MISS:     182675
cpu0_L1D LOAD      ACCESS:    2843549  HIT:    2663518  MISS:     180031
cpu0_L1D RFO       ACCESS:     468858  HIT:     467424  MISS:       1434
cpu0_L1D PREFETCH  ACCESS:          0  HIT:          0  MISS:          0
cpu0_L1D WRITEBACK ACCESS:          0  HIT:          0  MISS:          0
cpu0_L2C TOTAL     ACCESS:     185247  HIT:       2058  MISS:     183189
cpu0_L2C LOAD      ACCESS:     180028  HIT:       1398  MISS:     178630
cpu0_L2C RFO       ACCESS:       1434  HIT:          0  MISS:       1434
cpu0_L2C PREFETCH  ACCESS:          0  HIT:          0  MISS:          0
cpu0_L2C WRITEBACK ACCESS:       2575  HIT:        659  MISS:       1916
LLC TOTAL     ACCESS:     183390  HIT:      33151  MISS:     150239
LLC LOAD      ACCESS:     178630  HIT:      29840  MISS:     148790
LLC RFO       ACCESS:       1434  HIT:         11  MISS:       1423
LLC PREFETCH  ACCESS:          0  HIT:          0  MISS:          0
LLC WRITEBACK ACCESS:       2117  HIT:       2098  MISS:         19
Heartbeat CPU 0 instructions: 66000004 cycles: 40124405 heartbeat IPC: 0.76198 cumulative IPC: 0.76248 (Simulation time: 1 hr 7 min 14 sec) 

Region of Interest Statistics
cpu0_DTLB TOTAL     ACCESS:    4380750  HIT:    4374436  MISS:       6314
cpu0_DTLB LOAD      ACCESS:    3874304  HIT:    3868016  MISS:       6288
cpu0_DTLB RFO       ACCESS:     506446  HIT:     506420  MISS:         26
cpu0_DTLB PREFETCH  ACCESS:          0  HIT:          0  MISS:          0
cpu0_DTLB WRITEBACK ACCESS:          0  HIT:          0  MISS:          0
cpu0_ITLB TOTAL     ACCESS:      24813  HIT:      24813  MISS:          0
cpu0_ITLB LOAD      ACCESS:      24813  HIT:      24813  MISS:          0
cpu0_ITLB RFO       ACCESS:          0  HIT:          0  MISS:          0
cpu0_ITLB PREFETCH  ACCESS:          0  HIT:          0  MISS:          0
cpu0_ITLB WRITEBACK ACCESS:          0  HIT:          0  MISS:          0
cpu0_STLB TOTAL     ACCESS:       6314  HIT:       1055  MISS:       5259
cpu0_STLB LOAD      ACCESS:       6288  HIT:       1055  MISS:       5233
cpu0_STLB RFO       ACCESS:         26  HIT:          0  MISS:         26
cpu0_STLB PREFETCH  ACCESS:          0  HIT:          0  MISS:          0
cpu0_STLB WRITEBACK ACCESS:          0  HIT:          0  MISS:          0
cpu0_L1D TOTAL     ACCESS:    3790234  HIT:    3581364  MISS:     208870
cpu0_L1D LOAD      ACCESS:    3249152  HIT:    3043363  MISS:     205789
cpu0_L1D RFO       ACCESS:     535828  HIT:     534135  MISS:       1693
cpu0_L1D PREFETCH  ACCESS:          0  HIT:          0  MISS:          0
cpu0_L1D WRITEBACK ACCESS:          0  HIT:          0  MISS:          0
cpu0_L2C TOTAL     ACCESS:     211870  HIT:       2359  MISS:     209511
cpu0_L2C LOAD      ACCESS:     205786  HIT:       1604  MISS:     204182
cpu0_L2C RFO       ACCESS:       1693  HIT:          0  MISS:       1693
cpu0_L2C PREFETCH  ACCESS:          0  HIT:          0  MISS:          0
cpu0_L2C WRITEBACK ACCESS:       3003  HIT:        754  MISS:       2249
LLC TOTAL     ACCESS:     209724  HIT:      37944  MISS:     171780
LLC LOAD      ACCESS:     204182  HIT:      34112  MISS:     170070
LLC RFO       ACCESS:       1693  HIT:         13  MISS:       1680
LLC PREFETCH  ACCESS:          0  HIT:          0  MISS:          0
LLC WRITEBACK ACCESS:       2462  HIT:       2440  MISS:         22
Heartbeat CPU 0 instructions: 68000000 cycles: 42752053 heartbeat IPC: 0.761135 cumulative IPC: 0.762331 (Simulation time: 1 hr 10 min 32 sec) 

Region of Interest Statistics
cpu0_DTLB TOTAL     ACCESS:    4927968  HIT:    4920872  MISS:       7096
cpu0_DTLB LOAD      ACCESS:    4358196  HIT:    4351130  MISS:       7066
cpu0_DTLB RFO       ACCESS:     569772  HIT:     569742  MISS:         30
cpu0_DTLB PREFETCH  ACCESS:          0  HIT:          0  MISS:          0
cpu0_DTLB WRITEBACK ACCESS:          0  HIT:          0  MISS:          0
cpu0_ITLB TOTAL     ACCESS:      27915  HIT:      27915  MISS:          0
cpu0_ITLB LOAD      ACCESS:      27915  HIT:      27915  MISS:          0
cpu0_ITLB RFO       ACCESS:          0  HIT:          0  MISS:          0
cpu0_ITLB PREFETCH  ACCESS:          0  HIT:          0  MISS:          0
cpu0_ITLB WRITEBACK ACCESS:          0  HIT:          0  MISS:          0
cpu0_STLB TOTAL     ACCESS:       7096  HIT:       1185  MISS:       5911
cpu0_STLB LOAD      ACCESS:       7066  HIT:       1185  MISS:       5881
cpu0_STLB RFO       ACCESS:         30  HIT:          0  MISS:         30
cpu0_STLB PREFETCH  ACCESS:          0  HIT:          0  MISS:          0
cpu0_STLB WRITEBACK ACCESS:          0  HIT:          0  MISS:          0
cpu0_L1D TOTAL     ACCESS:    4263404  HIT:    4028344  MISS:     235060
cpu0_L1D LOAD      ACCESS:    3654705  HIT:    3423161  MISS:     231544
cpu0_L1D RFO       ACCESS:     602793  HIT:     600838  MISS:       1955
cpu0_L1D PREFETCH  ACCESS:          0  HIT:          0  MISS:          0
cpu0_L1D WRITEBACK ACCESS:          0  HIT:          0  MISS:          0
cpu0_L2C TOTAL     ACCESS:     238490  HIT:       2698  MISS:     235792
cpu0_L2C LOAD      ACCESS:     231540  HIT:       1808  MISS:     229732
cpu0_L2C RFO       ACCESS:       1955  HIT:          0  MISS:       1955
cpu0_L2C PREFETCH  ACCESS:          0  HIT:          0  MISS:          0
cpu0_L2C WRITEBACK ACCESS:       3434  HIT:        889  MISS:       2545
LLC TOTAL     ACCESS:     235928  HIT:      42566  MISS:     193362
LLC LOAD      ACCESS:     229732  HIT:      38340  MISS:     191392
LLC RFO       ACCESS:       1955  HIT:         15  MISS:       1940
LLC PREFETCH  ACCESS:          0  HIT:          0  MISS:          0
LLC WRITEBACK ACCESS:       2681  HIT:       2659  MISS:         22
Heartbeat CPU 0 instructions: 70000003 cycles: 45371876 heartbeat IPC: 0.763412 cumulative IPC: 0.762439 (Simulation time: 1 hr 13 min 52 sec) 

Region of Interest Statistics
cpu0_DTLB TOTAL     ACCESS:    5476101  HIT:    5468211  MISS:       7890
cpu0_DTLB LOAD      ACCESS:    4843084  HIT:    4835226  MISS:       7858
cpu0_DTLB RFO       ACCESS:     633017  HIT:     632985  MISS:         32
cpu0_DTLB PREFETCH  ACCESS:          0  HIT:          0  MISS:          0
cpu0_DTLB WRITEBACK ACCESS:          0  HIT:          0  MISS:          0
cpu0_ITLB TOTAL     ACCESS:      30976  HIT:      30976  MISS:          0
cpu0_ITLB LOAD      ACCESS:      30976  HIT:      30976  MISS:          0
cpu0_ITLB RFO       ACCESS:          0  HIT:          0  MISS:          0
cpu0_ITLB PREFETCH  ACCESS:          0  HIT:          0  MISS:          0
cpu0_ITLB WRITEBACK ACCESS:          0  HIT:          0  MISS:          0
cpu0_STLB TOTAL     ACCESS:       7890  HIT:       1321  MISS:       6569
cpu0_STLB LOAD      ACCESS:       7858  HIT:       1321  MISS:       6537
cpu0_STLB RFO       ACCESS:         32  HIT:          0  MISS:         32
cpu0_STLB PREFETCH  ACCESS:          0  HIT:          0  MISS:          0
cpu0_STLB WRITEBACK ACCESS:          0  HIT:          0  MISS:          0
cpu0_L1D TOTAL     ACCESS:    4737936  HIT:    4476914  MISS:     261022
cpu0_L1D LOAD      ACCESS:    4061582  HIT:    3804377  MISS:     257205
cpu0_L1D RFO       ACCESS:     669791  HIT:     667707  MISS:       2084
cpu0_L1D PREFETCH  ACCESS:          0  HIT:          0  MISS:          0
cpu0_L1D WRITEBACK ACCESS:          0  HIT:          0  MISS:          0
cpu0_L2C TOTAL     ACCESS:     264738  HIT:       2978  MISS:     261760
cpu0_L2C LOAD      ACCESS:     257201  HIT:       1996  MISS:     255205
cpu0_L2C RFO       ACCESS:       2084  HIT:          0  MISS:       2084
cpu0_L2C PREFETCH  ACCESS:          0  HIT:          0  MISS:          0
cpu0_L2C WRITEBACK ACCESS:       3720  HIT:        981  MISS:       2739
LLC TOTAL     ACCESS:     262037  HIT:      47332  MISS:     214705
LLC LOAD      ACCESS:     255205  HIT:      42601  MISS:     212604
LLC RFO       ACCESS:       2084  HIT:         16  MISS:       2068
LLC PREFETCH  ACCESS:          0  HIT:          0  MISS:          0
LLC WRITEBACK ACCESS:       3016  HIT:       2993  MISS:         23
Heartbeat CPU 0 instructions: 72000000 cycles: 47997468 heartbeat IPC: 0.761732 cumulative IPC: 0.762374 (Simulation time: 1 hr 17 min 6 sec) 

Region of Interest Statistics
cpu0_DTLB TOTAL     ACCESS:    6023261  HIT:    6014574  MISS:       8687
cpu0_DTLB LOAD      ACCESS:    5326949  HIT:    5318298  MISS:       8651
cpu0_DTLB RFO       ACCESS:     696312  HIT:     696276  MISS:         36
cpu0_DTLB PREFETCH  ACCESS:          0  HIT:          0  MISS:          0
cpu0_DTLB WRITEBACK ACCESS:          0  HIT:          0  MISS:          0
cpu0_ITLB TOTAL     ACCESS:      34118  HIT:      34118  MISS:          0
cpu0_ITLB LOAD      ACCESS:      34118  HIT:      34118  MISS:          0
cpu0_ITLB RFO       ACCESS:          0  HIT:          0  MISS:          0
cpu0_ITLB PREFETCH  ACCESS:          0  HIT:          0  MISS:          0
cpu0_ITLB WRITEBACK ACCESS:          0  HIT:          0  MISS:          0
cpu0_STLB TOTAL     ACCESS:       8687  HIT:       1455  MISS:       7232
cpu0_STLB LOAD      ACCESS:       8651  HIT:       1455  MISS:       7196
cpu0_STLB RFO       ACCESS:         36  HIT:          0  MISS:         36
cpu0_STLB PREFETCH  ACCESS:          0  HIT:          0  MISS:          0
cpu0_STLB WRITEBACK ACCESS:          0  HIT:          0  MISS:          0
cpu0_L1D TOTAL     ACCESS:    5211309  HIT:    4924098  MISS:     287211
cpu0_L1D LOAD      ACCESS:    4467324  HIT:    4184368  MISS:     282956
cpu0_L1D RFO       ACCESS:     736759  HIT:     734414  MISS:       2345
cpu0_L1D PREFETCH  ACCESS:          0  HIT:          0  MISS:          0
cpu0_L1D WRITEBACK ACCESS:          0  HIT:          0  MISS:          0
cpu0_L2C TOTAL     ACCESS:     291354  HIT:       3287  MISS:     288067
cpu0_L2C LOAD      ACCESS:     282951  HIT:       2197  MISS:     280754
cpu0_L2C RFO       ACCESS:       2345  HIT:          0  MISS:       2345
cpu0_L2C PREFETCH  ACCESS:          0  HIT:          0  MISS:          0
cpu0_L2C WRITEBACK ACCESS:       4148  HIT:       1089  MISS:       3059
LLC TOTAL     ACCESS:     288275  HIT:      52026  MISS:     236249
LLC LOAD      ACCESS:     280754  HIT:      46868  MISS:     233886
LLC RFO       ACCESS:       2345  HIT:         18  MISS:       2327
LLC PREFETCH  ACCESS:          0  HIT:          0  MISS:          0
LLC WRITEBACK ACCESS:       3267  HIT:       3241  MISS:         26
Heartbeat CPU 0 instructions: 74000001 cycles: 50633058 heartbeat IPC: 0.758844 cumulative IPC: 0.762079 (Simulation time: 1 hr 20 min 21 sec) 

Region of Interest Statistics
cpu0_DTLB TOTAL     ACCESS:    6571575  HIT:    6562095  MISS:       9480
cpu0_DTLB LOAD      ACCESS:    5812009  HIT:    5802567  MISS:       9442
cpu0_DTLB RFO       ACCESS:     759566  HIT:     759528  MISS:         38
cpu0_DTLB PREFETCH  ACCESS:          0  HIT:          0  MISS:          0
cpu0_DTLB WRITEBACK ACCESS:          0  HIT:          0  MISS:          0
cpu0_ITLB TOTAL     ACCESS:      37175  HIT:      37175  MISS:          0
cpu0_ITLB LOAD      ACCESS:      37175  HIT:      37175  MISS:          0
cpu0_ITLB RFO       ACCESS:          0  HIT:          0  MISS:          0
cpu0_ITLB PREFETCH  ACCESS:          0  HIT:          0  MISS:          0
cpu0_ITLB WRITEBACK ACCESS:          0  HIT:          0  MISS:          0
cpu0_STLB TOTAL     ACCESS:       9480  HIT:       1592  MISS:       7888
cpu0_STLB LOAD      ACCESS:       9442  HIT:       1592  MISS:       7850
cpu0_STLB RFO       ACCESS:         38  HIT:          0  MISS:         38
cpu0_STLB PREFETCH  ACCESS:          0  HIT:          0  MISS:          0
cpu0_STLB WRITEBACK ACCESS:          0  HIT:          0  MISS:          0
cpu0_L1D TOTAL     ACCESS:    5685247  HIT:    5372063  MISS:     313184
cpu0_L1D LOAD      ACCESS:    4873610  HIT:    4564981  MISS:     308629
cpu0_L1D RFO       ACCESS:     803756  HIT:     801280  MISS:       2476
cpu0_L1D PREFETCH  ACCESS:          0  HIT:          0  MISS:          0
cpu0_L1D WRITEBACK ACCESS:          0  HIT:          0  MISS:          0
cpu0_L2C TOTAL     ACCESS:     317624  HIT:       3561  MISS:     314063
cpu0_L2C LOAD      ACCESS:     308623  HIT:       2389  MISS:     306234
cpu0_L2C RFO       ACCESS:       2476  HIT:          0  MISS:       2476
cpu0_L2C PREFETCH  ACCESS:          0  HIT:          0  MISS:          0
cpu0_L2C WRITEBACK ACCESS:       4446  HIT:       1171  MISS:       3275
LLC TOTAL     ACCESS:     314389  HIT:      56649  MISS:     257740
LLC LOAD      ACCESS:     306234  HIT:      50987  MISS:     255247
LLC RFO       ACCESS:       2476  HIT:         19  MISS:       2457
LLC PREFETCH  ACCESS:          0  HIT:          0  MISS:          0
LLC WRITEBACK ACCESS:       3601  HIT:       3575  MISS:         26
Heartbeat CPU 0 instructions: 76000000 cycles: 53259305 heartbeat IPC: 0.761543 cumulative IPC: 0.762038 (Simulation time: 1 hr 23 min 35 sec) 

Region of Interest Statistics
cpu0_DTLB TOTAL     ACCESS:    7118833  HIT:    7108564  MISS:      10269
cpu0_DTLB LOAD      ACCESS:    6295970  HIT:    6285743  MISS:      10227
cpu0_DTLB RFO       ACCESS:     822863  HIT:     822821  MISS:         42
cpu0_DTLB PREFETCH  ACCESS:          0  HIT:          0  MISS:          0
cpu0_DTLB WRITEBACK ACCESS:          0  HIT:          0  MISS:          0
cpu0_ITLB TOTAL     ACCESS:      40280  HIT:      40280  MISS:          0
cpu0_ITLB LOAD      ACCESS:      40280  HIT:      40280  MISS:          0
cpu0_ITLB RFO       ACCESS:          0  HIT:          0  MISS:          0
cpu0_ITLB PREFETCH  ACCESS:          0  HIT:          0  MISS:          0
cpu0_ITLB WRITEBACK ACCESS:          0  HIT:          0  MISS:          0
cpu0_STLB TOTAL     ACCESS:      10269  HIT:       1727  MISS:       8542
cpu0_STLB LOAD      ACCESS:      10227  HIT:       1727  MISS:       8500
cpu0_STLB RFO       ACCESS:         42  HIT:          0  MISS:         42
cpu0_STLB PREFETCH  ACCESS:          0  HIT:          0  MISS:          0
cpu0_STLB WRITEBACK ACCESS:          0  HIT:          0  MISS:          0
cpu0_L1D TOTAL     ACCESS:    6158453  HIT:    5819074  MISS:     339379
cpu0_L1D LOAD      ACCESS:    5279198  HIT:    4944807  MISS:     334391
cpu0_L1D RFO       ACCESS:     870720  HIT:     867985  MISS:       2735
cpu0_L1D PREFETCH  ACCESS:          0  HIT:          0  MISS:          0
cpu0_L1D WRITEBACK ACCESS:          0  HIT:          0  MISS:          0
cpu0_L2C TOTAL     ACCESS:     344249  HIT:       3894  MISS:     340355
cpu0_L2C LOAD      ACCESS:     334384  HIT:       2603  MISS:     331781
cpu0_L2C RFO       ACCESS:       2735  HIT:          0  MISS:       2735
cpu0_L2C PREFETCH  ACCESS:          0  HIT:          0  MISS:          0
cpu0_L2C WRITEBACK ACCESS:       4877  HIT:       1290  MISS:       3587
LLC TOTAL     ACCESS:     340708  HIT:      61401  MISS:     279307
LLC LOAD      ACCESS:     331782  HIT:      55238  MISS:     276544
LLC RFO       ACCESS:       2735  HIT:         21  MISS:       2714
LLC PREFETCH  ACCESS:          0  HIT:          0  MISS:          0
LLC WRITEBACK ACCESS:       3939  HIT:       3901  MISS:         38
Heartbeat CPU 0 instructions: 78000004 cycles: 55883702 heartbeat IPC: 0.762081 cumulative IPC: 0.762041 (Simulation time: 1 hr 26 min 55 sec) 

Region of Interest Statistics
cpu0_DTLB TOTAL     ACCESS:    7666022  HIT:    7654958  MISS:      11064
cpu0_DTLB LOAD      ACCESS:    6779878  HIT:    6768861  MISS:      11017
cpu0_DTLB RFO       ACCESS:     886144  HIT:     886097  MISS:         47
cpu0_DTLB PREFETCH  ACCESS:          0  HIT:          0  MISS:          0
cpu0_DTLB WRITEBACK ACCESS:          0  HIT:          0  MISS:          0
cpu0_ITLB TOTAL     ACCESS:      43419  HIT:      43419  MISS:          0
cpu0_ITLB LOAD      ACCESS:      43419  HIT:      43419  MISS:          0
cpu0_ITLB RFO       ACCESS:          0  HIT:          0  MISS:          0
cpu0_ITLB PREFETCH  ACCESS:          0  HIT:          0  MISS:          0
cpu0_ITLB WRITEBACK ACCESS:          0  HIT:          0  MISS:          0
cpu0_STLB TOTAL     ACCESS:      11064  HIT:       1862  MISS:       9202
cpu0_STLB LOAD      ACCESS:      11017  HIT:       1862  MISS:       9155
cpu0_STLB RFO       ACCESS:         47  HIT:          0  MISS:         47
cpu0_STLB PREFETCH  ACCESS:          0  HIT:          0  MISS:          0
cpu0_STLB WRITEBACK ACCESS:          0  HIT:          0  MISS:          0
cpu0_L1D TOTAL     ACCESS:    6631841  HIT:    6266290  MISS:     365551
cpu0_L1D LOAD      ACCESS:    5684957  HIT:    5324832  MISS:     360125
cpu0_L1D RFO       ACCESS:     937690  HIT:     934693  MISS:       2997
cpu0_L1D PREFETCH  ACCESS:          0  HIT:          0  MISS:          0
cpu0_L1D WRITEBACK ACCESS:          0  HIT:          0  MISS:          0
cpu0_L2C TOTAL     ACCESS:     370836  HIT:       4167  MISS:     366669
cpu0_L2C LOAD      ACCESS:     360118  HIT:       2786  MISS:     357332
cpu0_L2C RFO       ACCESS:       2997  HIT:          0  MISS:       2997
cpu0_L2C PREFETCH  ACCESS:          0  HIT:          0  MISS:          0
cpu0_L2C WRITEBACK ACCESS:       5292  HIT:       1380  MISS:       3912
LLC TOTAL     ACCESS:     366969  HIT:      66099  MISS:     300870
LLC LOAD      ACCESS:     357331  HIT:      59502  MISS:     297829
LLC RFO       ACCESS:       2997  HIT:         23  MISS:       2974
LLC PREFETCH  ACCESS:          0  HIT:          0  MISS:          0
LLC WRITEBACK ACCESS:       4213  HIT:       4157  MISS:         56
Heartbeat CPU 0 instructions: 80000002 cycles: 58502053 heartbeat IPC: 0.763839 cumulative IPC: 0.76216 (Simulation time: 1 hr 30 min 13 sec) 

Region of Interest Statistics
cpu0_DTLB TOTAL     ACCESS:    8214201  HIT:    8202350  MISS:      11851
cpu0_DTLB LOAD      ACCESS:    7264761  HIT:    7252959  MISS:      11802
cpu0_DTLB RFO       ACCESS:     949440  HIT:     949391  MISS:         49
cpu0_DTLB PREFETCH  ACCESS:          0  HIT:          0  MISS:          0
cpu0_DTLB WRITEBACK ACCESS:          0  HIT:          0  MISS:          0
cpu0_ITLB TOTAL     ACCESS:      46481  HIT:      46481  MISS:          0
cpu0_ITLB LOAD      ACCESS:      46481  HIT:      46481  MISS:          0
cpu0_ITLB RFO       ACCESS:          0  HIT:          0  MISS:          0
cpu0_ITLB PREFETCH  ACCESS:          0  HIT:          0  MISS:          0
cpu0_ITLB WRITEBACK ACCESS:          0  HIT:          0  MISS:          0
cpu0_STLB TOTAL     ACCESS:      11851  HIT:       1992  MISS:       9859
cpu0_STLB LOAD      ACCESS:      11802  HIT:       1992  MISS:       9810
cpu0_STLB RFO       ACCESS:         49  HIT:          0  MISS:         49
cpu0_STLB PREFETCH  ACCESS:          0  HIT:          0  MISS:          0
cpu0_STLB WRITEBACK ACCESS:          0  HIT:          0  MISS:          0
cpu0_L1D TOTAL     ACCESS:    7106410  HIT:    6714866  MISS:     391544
cpu0_L1D LOAD      ACCESS:    6091871  HIT:    5706053  MISS:     385818
cpu0_L1D RFO       ACCESS:    1004688  HIT:    1001562  MISS:       3126
cpu0_L1D PREFETCH  ACCESS:          0  HIT:          0  MISS:          0
cpu0_L1D WRITEBACK ACCESS:          0  HIT:          0  MISS:          0
cpu0_L2C TOTAL     ACCESS:     397132  HIT:       4461  MISS:     392671
cpu0_L2C LOAD      ACCESS:     385811  HIT:       2994  MISS:     382817
cpu0_L2C RFO       ACCESS:       3126  HIT:          0  MISS:       3126
cpu0_L2C PREFETCH  ACCESS:          0  HIT:          0  MISS:          0
cpu0_L2C WRITEBACK ACCESS:       5595  HIT:       1466  MISS:       4129
LLC TOTAL     ACCESS:     393087  HIT:      70874  MISS:     322213
LLC LOAD      ACCESS:     382816  HIT:      63785  MISS:     319031
LLC RFO       ACCESS:       3126  HIT:         24  MISS:       3102
LLC PREFETCH  ACCESS:          0  HIT:          0  MISS:          0
LLC WRITEBACK ACCESS:       4546  HIT:       4478  MISS:         68
Heartbeat CPU 0 instructions: 82000000 cycles: 61139403 heartbeat IPC: 0.758336 cumulative IPC: 0.76192 (Simulation time: 1 hr 33 min 31 sec) 

Region of Interest Statistics
cpu0_DTLB TOTAL     ACCESS:    8761423  HIT:    8748783  MISS:      12640
cpu0_DTLB LOAD      ACCESS:    7748698  HIT:    7736111  MISS:      12587
cpu0_DTLB RFO       ACCESS:    1012725  HIT:    1012672  MISS:         53
cpu0_DTLB PREFETCH  ACCESS:          0  HIT:          0  MISS:          0
cpu0_DTLB WRITEBACK ACCESS:          0  HIT:          0  MISS:          0
cpu0_ITLB TOTAL     ACCESS:      49626  HIT:      49626  MISS:          0
cpu0_ITLB LOAD      ACCESS:      49626  HIT:      49626  MISS:          0
cpu0_ITLB RFO       ACCESS:          0  HIT:          0  MISS:          0
cpu0_ITLB PREFETCH  ACCESS:          0  HIT:          0  MISS:          0
cpu0_ITLB WRITEBACK ACCESS:          0  HIT:          0  MISS:          0
cpu0_STLB TOTAL     ACCESS:      12640  HIT:       2121  MISS:      10519
cpu0_STLB LOAD      ACCESS:      12587  HIT:       2121  MISS:      10466
cpu0_STLB RFO       ACCESS:         53  HIT:          0  MISS:         53
cpu0_STLB PREFETCH  ACCESS:          0  HIT:          0  MISS:          0
cpu0_STLB WRITEBACK ACCESS:          0  HIT:          0  MISS:          0
cpu0_L1D TOTAL     ACCESS:    7579255  HIT:    7161500  MISS:     417755
cpu0_L1D LOAD      ACCESS:    6497088  HIT:    6085497  MISS:     411591
cpu0_L1D RFO       ACCESS:    1071657  HIT:    1068270  MISS:       3387
cpu0_L1D PREFETCH  ACCESS:          0  HIT:          0  MISS:          0
cpu0_L1D WRITEBACK ACCESS:          0  HIT:          0  MISS:          0
cpu0_L2C TOTAL     ACCESS:     423781  HIT:       4842  MISS:     418939
cpu0_L2C LOAD      ACCESS:     411583  HIT:       3224  MISS:     408359
cpu0_L2C RFO       ACCESS:       3387  HIT:          0  MISS:       3387
cpu0_L2C PREFETCH  ACCESS:          0  HIT:          0  MISS:          0
cpu0_L2C WRITEBACK ACCESS:       6034  HIT:       1617  MISS:       4417
LLC TOTAL     ACCESS:     419399  HIT:      75539  MISS:     343860
LLC LOAD      ACCESS:     408358  HIT:      67939  MISS:     340419
LLC RFO       ACCESS:       3387  HIT:         26  MISS:       3361
LLC PREFETCH  ACCESS:          0  HIT:          0  MISS:          0
LLC WRITEBACK ACCESS:       4878  HIT:       4810  MISS:         68
Heartbeat CPU 0 instructions: 84000004 cycles: 63762442 heartbeat IPC: 0.762476 cumulative IPC: 0.761953 (Simulation time: 1 hr 36 min 50 sec) 

Region of Interest Statistics
cpu0_DTLB TOTAL     ACCESS:    9309529  HIT:    9296104  MISS:      13425
cpu0_DTLB LOAD      ACCESS:    8233552  HIT:    8220182  MISS:      13370
cpu0_DTLB RFO       ACCESS:    1075977  HIT:    1075922  MISS:         55
cpu0_DTLB PREFETCH  ACCESS:          0  HIT:          0  MISS:          0
cpu0_DTLB WRITEBACK ACCESS:          0  HIT:          0  MISS:          0
cpu0_ITLB TOTAL     ACCESS:      52639  HIT:      52639  MISS:          0
cpu0_ITLB LOAD      ACCESS:      52639  HIT:      52639  MISS:          0
cpu0_ITLB RFO       ACCESS:          0  HIT:          0  MISS:          0
cpu0_ITLB PREFETCH  ACCESS:          0  HIT:          0  MISS:          0
cpu0_ITLB WRITEBACK ACCESS:          0  HIT:          0  MISS:          0
cpu0_STLB TOTAL     ACCESS:      13425  HIT:       2255  MISS:      11170
cpu0_STLB LOAD      ACCESS:      13370  HIT:       2255  MISS:      11115
cpu0_STLB RFO       ACCESS:         55  HIT:          0  MISS:         55
cpu0_STLB PREFETCH  ACCESS:          0  HIT:          0  MISS:          0
cpu0_STLB WRITEBACK ACCESS:          0  HIT:          0  MISS:          0
cpu0_L1D TOTAL     ACCESS:    8053523  HIT:    7609799  MISS:     443724
cpu0_L1D LOAD      ACCESS:    6903713  HIT:    6466451  MISS:     437262
cpu0_L1D RFO       ACCESS:    1138649  HIT:    1135131  MISS:       3518
cpu0_L1D PREFETCH  ACCESS:          0  HIT:          0  MISS:          0
cpu0_L1D WRITEBACK ACCESS:          0  HIT:          0  MISS:          0
cpu0_L2C TOTAL     ACCESS:     450041  HIT:       5123  MISS:     444918
cpu0_L2C LOAD      ACCESS:     437254  HIT:       3429  MISS:     433825
cpu0_L2C RFO       ACCESS:       3518  HIT:          0  MISS:       3518
cpu0_L2C PREFETCH  ACCESS:          0  HIT:          0  MISS:          0
cpu0_L2C WRITEBACK ACCESS:       6325  HIT:       1693  MISS:       4632
LLC TOTAL     ACCESS:     445418  HIT:      80173  MISS:     365245
LLC LOAD      ACCESS:     433824  HIT:      72152  MISS:     361672
LLC RFO       ACCESS:       3518  HIT:         27  MISS:       3491
LLC PREFETCH  ACCESS:          0  HIT:          0  MISS:          0
LLC WRITEBACK ACCESS:       5133  HIT:       5063  MISS:         70
Heartbeat CPU 0 instructions: 86000002 cycles: 66388273 heartbeat IPC: 0.761663 cumulative IPC: 0.761937 (Simulation time: 1 hr 40 min 6 sec) 

Region of Interest Statistics
cpu0_DTLB TOTAL     ACCESS:    9856729  HIT:    9842495  MISS:      14234
cpu0_DTLB LOAD      ACCESS:    8717464  HIT:    8703289  MISS:      14175
cpu0_DTLB RFO       ACCESS:    1139265  HIT:    1139206  MISS:         59
cpu0_DTLB PREFETCH  ACCESS:          0  HIT:          0  MISS:          0
cpu0_DTLB WRITEBACK ACCESS:          0  HIT:          0  MISS:          0
cpu0_ITLB TOTAL     ACCESS:      55780  HIT:      55780  MISS:          0
cpu0_ITLB LOAD      ACCESS:      55780  HIT:      55780  MISS:          0
cpu0_ITLB RFO       ACCESS:          0  HIT:          0  MISS:          0
cpu0_ITLB PREFETCH  ACCESS:          0  HIT:          0  MISS:          0
cpu0_ITLB WRITEBACK ACCESS:          0  HIT:          0  MISS:          0
cpu0_STLB TOTAL     ACCESS:      14234  HIT:       2400  MISS:      11834
cpu0_STLB LOAD      ACCESS:      14175  HIT:       2400  MISS:      11775
cpu0_STLB RFO       ACCESS:         59  HIT:          0  MISS:         59
cpu0_STLB PREFETCH  ACCESS:          0  HIT:          0  MISS:          0
cpu0_STLB WRITEBACK ACCESS:          0  HIT:          0  MISS:          0
cpu0_L1D TOTAL     ACCESS:    8526924  HIT:    8056997  MISS:     469927
cpu0_L1D LOAD      ACCESS:    7309485  HIT:    6846456  MISS:     463029
cpu0_L1D RFO       ACCESS:    1205615  HIT:    1201838  MISS:       3777
cpu0_L1D PREFETCH  ACCESS:          0  HIT:          0  MISS:          0
cpu0_L1D WRITEBACK ACCESS:          0  HIT:          0  MISS:          0
cpu0_L2C TOTAL     ACCESS:     476683  HIT:       5474  MISS:     471209
cpu0_L2C LOAD      ACCESS:     463020  HIT:       3652  MISS:     459368
cpu0_L2C RFO       ACCESS:       3777  HIT:          0  MISS:       3777
cpu0_L2C PREFETCH  ACCESS:          0  HIT:          0  MISS:          0
cpu0_L2C WRITEBACK ACCESS:       6765  HIT:       1821  MISS:       4944
LLC TOTAL     ACCESS:     471759  HIT:      84968  MISS:     386791
LLC LOAD      ACCESS:     459367  HIT:      76409  MISS:     382958
LLC RFO       ACCESS:       3777  HIT:         29  MISS:       3748
LLC PREFETCH  ACCESS:          0  HIT:          0  MISS:          0
LLC WRITEBACK ACCESS:       5495  HIT:       5423  MISS:         72
Heartbeat CPU 0 instructions: 88000004 cycles: 69014758 heartbeat IPC: 0.761475 cumulative IPC: 0.761912 (Simulation time: 1 hr 43 min 18 sec) 

Region of Interest Statistics
cpu0_DTLB TOTAL     ACCESS:   10403925  HIT:   10388897  MISS:      15028
cpu0_DTLB LOAD      ACCESS:    9201356  HIT:    9186391  MISS:      14965
cpu0_DTLB RFO       ACCESS:    1202569  HIT:    1202506  MISS:         63
cpu0_DTLB PREFETCH  ACCESS:          0  HIT:          0  MISS:          0
cpu0_DTLB WRITEBACK ACCESS:          0  HIT:          0  MISS:          0
cpu0_ITLB TOTAL     ACCESS:      58928  HIT:      58928  MISS:          0
cpu0_ITLB LOAD      ACCESS:      58928  HIT:      58928  MISS:          0
cpu0_ITLB RFO       ACCESS:          0  HIT:          0  MISS:          0
cpu0_ITLB PREFETCH  ACCESS:          0  HIT:          0  MISS:          0
cpu0_ITLB WRITEBACK ACCESS:          0  HIT:          0  MISS:          0
cpu0_STLB TOTAL     ACCESS:      15028  HIT:       2536  MISS:      12492
cpu0_STLB LOAD      ACCESS:      14965  HIT:       2536  MISS:      12429
cpu0_STLB RFO       ACCESS:         63  HIT:          0  MISS:         63
cpu0_STLB PREFETCH  ACCESS:          0  HIT:          0  MISS:          0
cpu0_STLB WRITEBACK ACCESS:          0  HIT:          0  MISS:          0
cpu0_L1D TOTAL     ACCESS:    9000194  HIT:    8504056  MISS:     496138
cpu0_L1D LOAD      ACCESS:    7715127  HIT:    7226328  MISS:     488799
cpu0_L1D RFO       ACCESS:    1272585  HIT:    1268546  MISS:       4039
cpu0_L1D PREFETCH  ACCESS:          0  HIT:          0  MISS:          0
cpu0_L1D WRITEBACK ACCESS:          0  HIT:          0  MISS:          0
cpu0_L2C TOTAL     ACCESS:     503330  HIT:       5821  MISS:     497509
cpu0_L2C LOAD      ACCESS:     488790  HIT:       3876  MISS:     484914
cpu0_L2C RFO       ACCESS:       4039  HIT:          0  MISS:       4039
cpu0_L2C PREFETCH  ACCESS:          0  HIT:          0  MISS:          0
cpu0_L2C WRITEBACK ACCESS:       7201  HIT:       1944  MISS:       5257
LLC TOTAL     ACCESS:     498066  HIT:      89707  MISS:     408359
LLC LOAD      ACCESS:     484913  HIT:      80650  MISS:     404263
LLC RFO       ACCESS:       4039  HIT:         31  MISS:       4008
LLC PREFETCH  ACCESS:          0  HIT:          0  MISS:          0
LLC WRITEBACK ACCESS:       5815  HIT:       5742  MISS:         73
Heartbeat CPU 0 instructions: 90000004 cycles: 71639915 heartbeat IPC: 0.761859 cumulative IPC: 0.76191 (Simulation time: 1 hr 46 min 31 sec) 

Region of Interest Statistics
cpu0_DTLB TOTAL     ACCESS:   10952128  HIT:   10936298  MISS:      15830
cpu0_DTLB LOAD      ACCESS:    9686279  HIT:    9670514  MISS:      15765
cpu0_DTLB RFO       ACCESS:    1265849  HIT:    1265784  MISS:         65
cpu0_DTLB PREFETCH  ACCESS:          0  HIT:          0  MISS:          0
cpu0_DTLB WRITEBACK ACCESS:          0  HIT:          0  MISS:          0
cpu0_ITLB TOTAL     ACCESS:      61960  HIT:      61960  MISS:          0
cpu0_ITLB LOAD      ACCESS:      61960  HIT:      61960  MISS:          0
cpu0_ITLB RFO       ACCESS:          0  HIT:          0  MISS:          0
cpu0_ITLB PREFETCH  ACCESS:          0  HIT:          0  MISS:          0
cpu0_ITLB WRITEBACK ACCESS:          0  HIT:          0  MISS:          0
cpu0_STLB TOTAL     ACCESS:      15830  HIT:       2681  MISS:      13149
cpu0_STLB LOAD      ACCESS:      15765  HIT:       2681  MISS:      13084
cpu0_STLB RFO       ACCESS:         65  HIT:          0  MISS:         65
cpu0_STLB PREFETCH  ACCESS:          0  HIT:          0  MISS:          0
cpu0_STLB WRITEBACK ACCESS:          0  HIT:          0  MISS:          0
cpu0_L1D TOTAL     ACCESS:    9474459  HIT:    8952339  MISS:     522120
cpu0_L1D LOAD      ACCESS:    8121739  HIT:    7607259  MISS:     514480
cpu0_L1D RFO       ACCESS:    1339582  HIT:    1335414  MISS:       4168
cpu0_L1D PREFETCH  ACCESS:          0  HIT:          0  MISS:          0
cpu0_L1D WRITEBACK ACCESS:          0  HIT:          0  MISS:          0
cpu0_L2C TOTAL     ACCESS:     529615  HIT:       6119  MISS:     523496
cpu0_L2C LOAD      ACCESS:     514470  HIT:       4081  MISS:     510389
cpu0_L2C RFO       ACCESS:       4168  HIT:          0  MISS:       4168
cpu0_L2C PREFETCH  ACCESS:          0  HIT:          0  MISS:          0
cpu0_L2C WRITEBACK ACCESS:       7505  HIT:       2037  MISS:       5468
LLC TOTAL     ACCESS:     524120  HIT:      94331  MISS:     429789
LLC LOAD      ACCESS:     510388  HIT:      84836  MISS:     425552
LLC RFO       ACCESS:       4168  HIT:         32  MISS:       4136
LLC PREFETCH  ACCESS:          0  HIT:          0  MISS:          0
LLC WRITEBACK ACCESS:       6093  HIT:       6017  MISS:         76
Heartbeat CPU 0 instructions: 92000002 cycles: 74264313 heartbeat IPC: 0.762079 cumulative IPC: 0.761918 (Simulation time: 1 hr 49 min 49 sec) 

Region of Interest Statistics
cpu0_DTLB TOTAL     ACCESS:   11499293  HIT:   11482667  MISS:      16626
cpu0_DTLB LOAD      ACCESS:   10170109  HIT:   10153552  MISS:      16557
cpu0_DTLB RFO       ACCESS:    1329184  HIT:    1329115  MISS:         69
cpu0_DTLB PREFETCH  ACCESS:          0  HIT:          0  MISS:          0
cpu0_DTLB WRITEBACK ACCESS:          0  HIT:          0  MISS:          0
cpu0_ITLB TOTAL     ACCESS:      65061  HIT:      65061  MISS:          0
cpu0_ITLB LOAD      ACCESS:      65061  HIT:      65061  MISS:          0
cpu0_ITLB RFO       ACCESS:          0  HIT:          0  MISS:          0
cpu0_ITLB PREFETCH  ACCESS:          0  HIT:          0  MISS:          0
cpu0_ITLB WRITEBACK ACCESS:          0  HIT:          0  MISS:          0
cpu0_STLB TOTAL     ACCESS:      16626  HIT:       2822  MISS:      13804
cpu0_STLB LOAD      ACCESS:      16557  HIT:       2822  MISS:      13735
cpu0_STLB RFO       ACCESS:         69  HIT:          0  MISS:         69
cpu0_STLB PREFETCH  ACCESS:          0  HIT:          0  MISS:          0
cpu0_STLB WRITEBACK ACCESS:          0  HIT:          0  MISS:          0
cpu0_L1D TOTAL     ACCESS:    9947763  HIT:    9399453  MISS:     548310
cpu0_L1D LOAD      ACCESS:    8527425  HIT:    7987192  MISS:     540233
cpu0_L1D RFO       ACCESS:    1406545  HIT:    1402116  MISS:       4429
cpu0_L1D PREFETCH  ACCESS:          0  HIT:          0  MISS:          0
cpu0_L1D WRITEBACK ACCESS:          0  HIT:          0  MISS:          0
cpu0_L2C TOTAL     ACCESS:     556236  HIT:       6441  MISS:     549795
cpu0_L2C LOAD      ACCESS:     540223  HIT:       4298  MISS:     535925
cpu0_L2C RFO       ACCESS:       4429  HIT:          0  MISS:       4429
cpu0_L2C PREFETCH  ACCESS:          0  HIT:          0  MISS:          0
cpu0_L2C WRITEBACK ACCESS:       7936  HIT:       2142  MISS:       5794
LLC TOTAL     ACCESS:     550461  HIT:      99111  MISS:     451350
LLC LOAD      ACCESS:     535924  HIT:      89079  MISS:     446845
LLC RFO       ACCESS:       4429  HIT:         34  MISS:       4395
LLC PREFETCH  ACCESS:          0  HIT:          0  MISS:          0
LLC WRITEBACK ACCESS:       6461  HIT:       6376  MISS:         85
Heartbeat CPU 0 instructions: 94000000 cycles: 76888983 heartbeat IPC: 0.762 cumulative IPC: 0.761921 (Simulation time: 1 hr 53 min 5 sec) 

Region of Interest Statistics
cpu0_DTLB TOTAL     ACCESS:   12046566  HIT:   12029144  MISS:      17422
cpu0_DTLB LOAD      ACCESS:   10654002  HIT:   10636653  MISS:      17349
cpu0_DTLB RFO       ACCESS:    1392564  HIT:    1392491  MISS:         73
cpu0_DTLB PREFETCH  ACCESS:          0  HIT:          0  MISS:          0
cpu0_DTLB WRITEBACK ACCESS:          0  HIT:          0  MISS:          0
cpu0_ITLB TOTAL     ACCESS:      68206  HIT:      68206  MISS:          0
cpu0_ITLB LOAD      ACCESS:      68206  HIT:      68206  MISS:          0
cpu0_ITLB RFO       ACCESS:          0  HIT:          0  MISS:          0
cpu0_ITLB PREFETCH  ACCESS:          0  HIT:          0  MISS:          0
cpu0_ITLB WRITEBACK ACCESS:          0  HIT:          0  MISS:          0
cpu0_STLB TOTAL     ACCESS:      17422  HIT:       2957  MISS:      14465
cpu0_STLB LOAD      ACCESS:      17349  HIT:       2957  MISS:      14392
cpu0_STLB RFO       ACCESS:         73  HIT:          0  MISS:         73
cpu0_STLB PREFETCH  ACCESS:          0  HIT:          0  MISS:          0
cpu0_STLB WRITEBACK ACCESS:          0  HIT:          0  MISS:          0
cpu0_L1D TOTAL     ACCESS:   10421241  HIT:    9846750  MISS:     574491
cpu0_L1D LOAD      ACCESS:    8933271  HIT:    8367295  MISS:     565976
cpu0_L1D RFO       ACCESS:    1473517  HIT:    1468828  MISS:       4689
cpu0_L1D PREFETCH  ACCESS:          0  HIT:          0  MISS:          0
cpu0_L1D WRITEBACK ACCESS:          0  HIT:          0  MISS:          0
cpu0_L2C TOTAL     ACCESS:     582834  HIT:       6724  MISS:     576110
cpu0_L2C LOAD      ACCESS:     565966  HIT:       4485  MISS:     561481
cpu0_L2C RFO       ACCESS:       4689  HIT:          0  MISS:       4689
cpu0_L2C PREFETCH  ACCESS:          0  HIT:          0  MISS:          0
cpu0_L2C WRITEBACK ACCESS:       8353  HIT:       2238  MISS:       6115
LLC TOTAL     ACCESS:     576702  HIT:     103806  MISS:     472896
LLC LOAD      ACCESS:     561480  HIT:      93353  MISS:     468127
LLC RFO       ACCESS:       4689  HIT:         36  MISS:       4653
LLC PREFETCH  ACCESS:          0  HIT:          0  MISS:          0
LLC WRITEBACK ACCESS:       6708  HIT:       6617  MISS:         91
Heartbeat CPU 0 instructions: 96000004 cycles: 79510201 heartbeat IPC: 0.763006 cumulative IPC: 0.761969 (Simulation time: 1 hr 56 min 22 sec) 

Region of Interest Statistics
cpu0_DTLB TOTAL     ACCESS:   12594708  HIT:   12576476  MISS:      18232
cpu0_DTLB LOAD      ACCESS:   11138873  HIT:   11120716  MISS:      18157
cpu0_DTLB RFO       ACCESS:    1455835  HIT:    1455760  MISS:         75
cpu0_DTLB PREFETCH  ACCESS:          0  HIT:          0  MISS:          0
cpu0_DTLB WRITEBACK ACCESS:          0  HIT:          0  MISS:          0
cpu0_ITLB TOTAL     ACCESS:      71261  HIT:      71261  MISS:          0
cpu0_ITLB LOAD      ACCESS:      71261  HIT:      71261  MISS:          0
cpu0_ITLB RFO       ACCESS:          0  HIT:          0  MISS:          0
cpu0_ITLB PREFETCH  ACCESS:          0  HIT:          0  MISS:          0
cpu0_ITLB WRITEBACK ACCESS:          0  HIT:          0  MISS:          0
cpu0_STLB TOTAL     ACCESS:      18232  HIT:       3110  MISS:      15122
cpu0_STLB LOAD      ACCESS:      18157  HIT:       3110  MISS:      15047
cpu0_STLB RFO       ACCESS:         75  HIT:          0  MISS:         75
cpu0_STLB PREFETCH  ACCESS:          0  HIT:          0  MISS:          0
cpu0_STLB WRITEBACK ACCESS:          0  HIT:          0  MISS:          0
cpu0_L1D TOTAL     ACCESS:   10895700  HIT:   10295213  MISS:     600487
cpu0_L1D LOAD      ACCESS:    9340078  HIT:    8748408  MISS:     591670
cpu0_L1D RFO       ACCESS:    1540513  HIT:    1535694  MISS:       4819
cpu0_L1D PREFETCH  ACCESS:          0  HIT:          0  MISS:          0
cpu0_L1D WRITEBACK ACCESS:          0  HIT:          0  MISS:          0
cpu0_L2C TOTAL     ACCESS:     609132  HIT:       7033  MISS:     602099
cpu0_L2C LOAD      ACCESS:     591660  HIT:       4705  MISS:     586955
cpu0_L2C RFO       ACCESS:       4819  HIT:          0  MISS:       4819
cpu0_L2C PREFETCH  ACCESS:          0  HIT:          0  MISS:          0
cpu0_L2C WRITEBACK ACCESS:       8655  HIT:       2327  MISS:       6328
LLC TOTAL     ACCESS:     602837  HIT:     108574  MISS:     494263
LLC LOAD      ACCESS:     586954  HIT:      97599  MISS:     489355
LLC RFO       ACCESS:       4819  HIT:         37  MISS:       4782
LLC PREFETCH  ACCESS:          0  HIT:          0  MISS:          0
LLC WRITEBACK ACCESS:       7067  HIT:       6973  MISS:         94
Heartbeat CPU 0 instructions: 98000003 cycles: 82134004 heartbeat IPC: 0.762252 cumulative IPC: 0.76198 (Simulation time: 1 hr 59 min 40 sec) 

Region of Interest Statistics
cpu0_DTLB TOTAL     ACCESS:   13141854  HIT:   13122820  MISS:      19034
cpu0_DTLB LOAD      ACCESS:   11622714  HIT:   11603760  MISS:      18954
cpu0_DTLB RFO       ACCESS:    1519140  HIT:    1519060  MISS:         80
cpu0_DTLB PREFETCH  ACCESS:          0  HIT:          0  MISS:          0
cpu0_DTLB WRITEBACK ACCESS:          0  HIT:          0  MISS:          0
cpu0_ITLB TOTAL     ACCESS:      74355  HIT:      74355  MISS:          0
cpu0_ITLB LOAD      ACCESS:      74355  HIT:      74355  MISS:          0
cpu0_ITLB RFO       ACCESS:          0  HIT:          0  MISS:          0
cpu0_ITLB PREFETCH  ACCESS:          0  HIT:          0  MISS:          0
cpu0_ITLB WRITEBACK ACCESS:          0  HIT:          0  MISS:          0
cpu0_STLB TOTAL     ACCESS:      19034  HIT:       3260  MISS:      15774
cpu0_STLB LOAD      ACCESS:      18954  HIT:       3259  MISS:      15695
cpu0_STLB RFO       ACCESS:         80  HIT:          1  MISS:         79
cpu0_STLB PREFETCH  ACCESS:          0  HIT:          0  MISS:          0
cpu0_STLB WRITEBACK ACCESS:          0  HIT:          0  MISS:          0
cpu0_L1D TOTAL     ACCESS:   11368902  HIT:   10742226  MISS:     626676
cpu0_L1D LOAD      ACCESS:    9745663  HIT:    9128242  MISS:     617421
cpu0_L1D RFO       ACCESS:    1607478  HIT:    1602397  MISS:       5081
cpu0_L1D PREFETCH  ACCESS:          0  HIT:          0  MISS:          0
cpu0_L1D WRITEBACK ACCESS:          0  HIT:          0  MISS:          0
cpu0_L2C TOTAL     ACCESS:     635748  HIT:       7360  MISS:     628388
cpu0_L2C LOAD      ACCESS:     617411  HIT:       4937  MISS:     612474
cpu0_L2C RFO       ACCESS:       5081  HIT:          0  MISS:       5081
cpu0_L2C PREFETCH  ACCESS:          0  HIT:          0  MISS:          0
cpu0_L2C WRITEBACK ACCESS:       9082  HIT:       2422  MISS:       6660
LLC TOTAL     ACCESS:     629175  HIT:     113366  MISS:     515809
LLC LOAD      ACCESS:     612473  HIT:     101834  MISS:     510639
LLC RFO       ACCESS:       5081  HIT:         39  MISS:       5042
LLC PREFETCH  ACCESS:          0  HIT:          0  MISS:          0
LLC WRITEBACK ACCESS:       7448  HIT:       7352  MISS:         96
Heartbeat CPU 0 instructions: 100000001 cycles: 84754103 heartbeat IPC: 0.763329 cumulative IPC: 0.762034 (Simulation time: 2 hr 2 min 58 sec) 

Region of Interest Statistics
cpu0_DTLB TOTAL     ACCESS:   13689998  HIT:   13670172  MISS:      19826
cpu0_DTLB LOAD      ACCESS:   12107610  HIT:   12087866  MISS:      19744
cpu0_DTLB RFO       ACCESS:    1582388  HIT:    1582306  MISS:         82
cpu0_DTLB PREFETCH  ACCESS:          0  HIT:          0  MISS:          0
cpu0_DTLB WRITEBACK ACCESS:          0  HIT:          0  MISS:          0
cpu0_ITLB TOTAL     ACCESS:      77412  HIT:      77412  MISS:          0
cpu0_ITLB LOAD      ACCESS:      77412  HIT:      77412  MISS:          0
cpu0_ITLB RFO       ACCESS:          0  HIT:          0  MISS:          0
cpu0_ITLB PREFETCH  ACCESS:          0  HIT:          0  MISS:          0
cpu0_ITLB WRITEBACK ACCESS:          0  HIT:          0  MISS:          0
cpu0_STLB TOTAL     ACCESS:      19826  HIT:       3395  MISS:      16431
cpu0_STLB LOAD      ACCESS:      19744  HIT:       3394  MISS:      16350
cpu0_STLB RFO       ACCESS:         82  HIT:          1  MISS:         81
cpu0_STLB PREFETCH  ACCESS:          0  HIT:          0  MISS:          0
cpu0_STLB WRITEBACK ACCESS:          0  HIT:          0  MISS:          0
cpu0_L1D TOTAL     ACCESS:   11843462  HIT:   11190803  MISS:     652659
cpu0_L1D LOAD      ACCESS:   10152570  HIT:    9509467  MISS:     643103
cpu0_L1D RFO       ACCESS:    1674475  HIT:    1669265  MISS:       5210
cpu0_L1D PREFETCH  ACCESS:          0  HIT:          0  MISS:          0
cpu0_L1D WRITEBACK ACCESS:          0  HIT:          0  MISS:          0
cpu0_L2C TOTAL     ACCESS:     662019  HIT:       7625  MISS:     654394
cpu0_L2C LOAD      ACCESS:     643093  HIT:       5128  MISS:     637965
cpu0_L2C RFO       ACCESS:       5210  HIT:          0  MISS:       5210
cpu0_L2C PREFETCH  ACCESS:          0  HIT:          0  MISS:          0
cpu0_L2C WRITEBACK ACCESS:       9370  HIT:       2496  MISS:       6874
LLC TOTAL     ACCESS:     655210  HIT:     118052  MISS:     537158
LLC LOAD      ACCESS:     637964  HIT:     106106  MISS:     531858
LLC RFO       ACCESS:       5210  HIT:         40  MISS:       5170
LLC PREFETCH  ACCESS:          0  HIT:          0  MISS:          0
LLC WRITEBACK ACCESS:       7691  HIT:       7594  MISS:         97
Heartbeat CPU 0 instructions: 102000004 cycles: 87383636 heartbeat IPC: 0.760592 cumulative IPC: 0.761979 (Simulation time: 2 hr 6 min 15 sec) 

Region of Interest Statistics
cpu0_DTLB TOTAL     ACCESS:   14237128  HIT:   14216506  MISS:      20622
cpu0_DTLB LOAD      ACCESS:   12591439  HIT:   12570903  MISS:      20536
cpu0_DTLB RFO       ACCESS:    1645689  HIT:    1645603  MISS:         86
cpu0_DTLB PREFETCH  ACCESS:          0  HIT:          0  MISS:          0
cpu0_DTLB WRITEBACK ACCESS:          0  HIT:          0  MISS:          0
cpu0_ITLB TOTAL     ACCESS:      80542  HIT:      80542  MISS:          0
cpu0_ITLB LOAD      ACCESS:      80542  HIT:      80542  MISS:          0
cpu0_ITLB RFO       ACCESS:          0  HIT:          0  MISS:          0
cpu0_ITLB PREFETCH  ACCESS:          0  HIT:          0  MISS:          0
cpu0_ITLB WRITEBACK ACCESS:          0  HIT:          0  MISS:          0
cpu0_STLB TOTAL     ACCESS:      20622  HIT:       3528  MISS:      17094
cpu0_STLB LOAD      ACCESS:      20536  HIT:       3527  MISS:      17009
cpu0_STLB RFO       ACCESS:         86  HIT:          1  MISS:         85
cpu0_STLB PREFETCH  ACCESS:          0  HIT:          0  MISS:          0
cpu0_STLB WRITEBACK ACCESS:          0  HIT:          0  MISS:          0
cpu0_L1D TOTAL     ACCESS:   12316645  HIT:   11637785  MISS:     678860
cpu0_L1D LOAD      ACCESS:   10558122  HIT:    9889257  MISS:     668865
cpu0_L1D RFO       ACCESS:    1741443  HIT:    1735972  MISS:       5471
cpu0_L1D PREFETCH  ACCESS:          0  HIT:          0  MISS:          0
cpu0_L1D WRITEBACK ACCESS:          0  HIT:          0  MISS:          0
cpu0_L2C TOTAL     ACCESS:     688645  HIT:       7944  MISS:     680701
cpu0_L2C LOAD      ACCESS:     668854  HIT:       5336  MISS:     663518
cpu0_L2C RFO       ACCESS:       5471  HIT:          0  MISS:       5471
cpu0_L2C PREFETCH  ACCESS:          0  HIT:          0  MISS:          0
cpu0_L2C WRITEBACK ACCESS:       9796  HIT:       2607  MISS:       7189
LLC TOTAL     ACCESS:     681566  HIT:     122810  MISS:     558756
LLC LOAD      ACCESS:     663517  HIT:     110338  MISS:     553179
LLC RFO       ACCESS:       5471  HIT:         42  MISS:       5429
LLC PREFETCH  ACCESS:          0  HIT:          0  MISS:          0
LLC WRITEBACK ACCESS:       8055  HIT:       7942  MISS:        113
Heartbeat CPU 0 instructions: 104000003 cycles: 90012360 heartbeat IPC: 0.760825 cumulative IPC: 0.761936 (Simulation time: 2 hr 9 min 32 sec) 

Region of Interest Statistics
cpu0_DTLB TOTAL     ACCESS:   14784353  HIT:   14762936  MISS:      21417
cpu0_DTLB LOAD      ACCESS:   13075328  HIT:   13054001  MISS:      21327
cpu0_DTLB RFO       ACCESS:    1709025  HIT:    1708935  MISS:         90
cpu0_DTLB PREFETCH  ACCESS:          0  HIT:          0  MISS:          0
cpu0_DTLB WRITEBACK ACCESS:          0  HIT:          0  MISS:          0
cpu0_ITLB TOTAL     ACCESS:      83668  HIT:      83668  MISS:          0
cpu0_ITLB LOAD      ACCESS:      83668  HIT:      83668  MISS:          0
cpu0_ITLB RFO       ACCESS:          0  HIT:          0  MISS:          0
cpu0_ITLB PREFETCH  ACCESS:          0  HIT:          0  MISS:          0
cpu0_ITLB WRITEBACK ACCESS:          0  HIT:          0  MISS:          0
cpu0_STLB TOTAL     ACCESS:      21417  HIT:       3663  MISS:      17754
cpu0_STLB LOAD      ACCESS:      21327  HIT:       3662  MISS:      17665
cpu0_STLB RFO       ACCESS:         90  HIT:          1  MISS:         89
cpu0_STLB PREFETCH  ACCESS:          0  HIT:          0  MISS:          0
cpu0_STLB WRITEBACK ACCESS:          0  HIT:          0  MISS:          0
cpu0_L1D TOTAL     ACCESS:   12789871  HIT:   12084831  MISS:     705040
cpu0_L1D LOAD      ACCESS:   10963718  HIT:   10269112  MISS:     694606
cpu0_L1D RFO       ACCESS:    1808414  HIT:    1802683  MISS:       5731
cpu0_L1D PREFETCH  ACCESS:          0  HIT:          0  MISS:          0
cpu0_L1D WRITEBACK ACCESS:          0  HIT:          0  MISS:          0
cpu0_L2C TOTAL     ACCESS:     715242  HIT:       8243  MISS:     706999
cpu0_L2C LOAD      ACCESS:     694594  HIT:       5534  MISS:     689060
cpu0_L2C RFO       ACCESS:       5731  HIT:          0  MISS:       5731
cpu0_L2C PREFETCH  ACCESS:          0  HIT:          0  MISS:          0
cpu0_L2C WRITEBACK ACCESS:      10214  HIT:       2708  MISS:       7506
LLC TOTAL     ACCESS:     707791  HIT:     127406  MISS:     580385
LLC LOAD      ACCESS:     689059  HIT:     114555  MISS:     574504
LLC RFO       ACCESS:       5731  HIT:         44  MISS:       5687
LLC PREFETCH  ACCESS:          0  HIT:          0  MISS:          0
LLC WRITEBACK ACCESS:       8299  HIT:       8143  MISS:        156
Heartbeat CPU 0 instructions: 106000002 cycles: 92633260 heartbeat IPC: 0.763096 cumulative IPC: 0.761977 (Simulation time: 2 hr 12 min 49 sec) 

Region of Interest Statistics
cpu0_DTLB TOTAL     ACCESS:   15332511  HIT:   15310300  MISS:      22211
cpu0_DTLB LOAD      ACCESS:   13560200  HIT:   13538081  MISS:      22119
cpu0_DTLB RFO       ACCESS:    1772311  HIT:    1772219  MISS:         92
cpu0_DTLB PREFETCH  ACCESS:          0  HIT:          0  MISS:          0
cpu0_DTLB WRITEBACK ACCESS:          0  HIT:          0  MISS:          0
cpu0_ITLB TOTAL     ACCESS:      86676  HIT:      86676  MISS:          0
cpu0_ITLB LOAD      ACCESS:      86676  HIT:      86676  MISS:          0
cpu0_ITLB RFO       ACCESS:          0  HIT:          0  MISS:          0
cpu0_ITLB PREFETCH  ACCESS:          0  HIT:          0  MISS:          0
cpu0_ITLB WRITEBACK ACCESS:          0  HIT:          0  MISS:          0
cpu0_STLB TOTAL     ACCESS:      22211  HIT:       3806  MISS:      18405
cpu0_STLB LOAD      ACCESS:      22119  HIT:       3805  MISS:      18314
cpu0_STLB RFO       ACCESS:         92  HIT:          1  MISS:         91
cpu0_STLB PREFETCH  ACCESS:          0  HIT:          0  MISS:          0
cpu0_STLB WRITEBACK ACCESS:          0  HIT:          0  MISS:          0
cpu0_L1D TOTAL     ACCESS:   13264263  HIT:   12533245  MISS:     731018
cpu0_L1D LOAD      ACCESS:   11370469  HIT:   10650184  MISS:     720285
cpu0_L1D RFO       ACCESS:    1875404  HIT:    1869543  MISS:       5861
cpu0_L1D PREFETCH  ACCESS:          0  HIT:          0  MISS:          0
cpu0_L1D WRITEBACK ACCESS:          0  HIT:          0  MISS:          0
cpu0_L2C TOTAL     ACCESS:     741515  HIT:       8523  MISS:     732992
cpu0_L2C LOAD      ACCESS:     720272  HIT:       5731  MISS:     714541
cpu0_L2C RFO       ACCESS:       5861  HIT:          0  MISS:       5861
cpu0_L2C PREFETCH  ACCESS:          0  HIT:          0  MISS:          0
cpu0_L2C WRITEBACK ACCESS:      10510  HIT:       2791  MISS:       7719
LLC TOTAL     ACCESS:     733912  HIT:     132165  MISS:     601747
LLC LOAD      ACCESS:     714540  HIT:     118814  MISS:     595726
LLC RFO       ACCESS:       5861  HIT:         45  MISS:       5816
LLC PREFETCH  ACCESS:          0  HIT:          0  MISS:          0
LLC WRITEBACK ACCESS:       8640  HIT:       8473  MISS:        167
Heartbeat CPU 0 instructions: 108000004 cycles: 95257876 heartbeat IPC: 0.762017 cumulative IPC: 0.761979 (Simulation time: 2 hr 16 min 6 sec) 

Region of Interest Statistics
cpu0_DTLB TOTAL     ACCESS:   15879769  HIT:   15856757  MISS:      23012
cpu0_DTLB LOAD      ACCESS:   14044119  HIT:   14021203  MISS:      22916
cpu0_DTLB RFO       ACCESS:    1835650  HIT:    1835554  MISS:         96
cpu0_DTLB PREFETCH  ACCESS:          0  HIT:          0  MISS:          0
cpu0_DTLB WRITEBACK ACCESS:          0  HIT:          0  MISS:          0
cpu0_ITLB TOTAL     ACCESS:      89819  HIT:      89819  MISS:          0
cpu0_ITLB LOAD      ACCESS:      89819  HIT:      89819  MISS:          0
cpu0_ITLB RFO       ACCESS:          0  HIT:          0  MISS:          0
cpu0_ITLB PREFETCH  ACCESS:          0  HIT:          0  MISS:          0
cpu0_ITLB WRITEBACK ACCESS:          0  HIT:          0  MISS:          0
cpu0_STLB TOTAL     ACCESS:      23012  HIT:       3944  MISS:      19068
cpu0_STLB LOAD      ACCESS:      22916  HIT:       3943  MISS:      18973
cpu0_STLB RFO       ACCESS:         96  HIT:          1  MISS:         95
cpu0_STLB PREFETCH  ACCESS:          0  HIT:          0  MISS:          0
cpu0_STLB WRITEBACK ACCESS:          0  HIT:          0  MISS:          0
cpu0_L1D TOTAL     ACCESS:   13737672  HIT:   12980454  MISS:     757218
cpu0_L1D LOAD      ACCESS:   11776245  HIT:   11030201  MISS:     746044
cpu0_L1D RFO       ACCESS:    1942375  HIT:    1936252  MISS:       6123
cpu0_L1D PREFETCH  ACCESS:          0  HIT:          0  MISS:          0
cpu0_L1D WRITEBACK ACCESS:          0  HIT:          0  MISS:          0
cpu0_L2C TOTAL     ACCESS:     768150  HIT:       8885  MISS:     759265
cpu0_L2C LOAD      ACCESS:     746031  HIT:       5955  MISS:     740076
cpu0_L2C RFO       ACCESS:       6123  HIT:          0  MISS:       6123
cpu0_L2C PREFETCH  ACCESS:          0  HIT:          0  MISS:          0
cpu0_L2C WRITEBACK ACCESS:      10945  HIT:       2929  MISS:       8016
LLC TOTAL     ACCESS:     760234  HIT:     136943  MISS:     623291
LLC LOAD      ACCESS:     740075  HIT:     123073  MISS:     617002
LLC RFO       ACCESS:       6123  HIT:         47  MISS:       6076
LLC PREFETCH  ACCESS:          0  HIT:          0  MISS:          0
LLC WRITEBACK ACCESS:       8986  HIT:       8812  MISS:        174
Heartbeat CPU 0 instructions: 110000003 cycles: 97885368 heartbeat IPC: 0.761182 cumulative IPC: 0.761952 (Simulation time: 2 hr 19 min 20 sec) 

Region of Interest Statistics
cpu0_DTLB TOTAL     ACCESS:   16427052  HIT:   16403233  MISS:      23819
cpu0_DTLB LOAD      ACCESS:   14528042  HIT:   14504323  MISS:      23719
cpu0_DTLB RFO       ACCESS:    1899010  HIT:    1898910  MISS:        100
cpu0_DTLB PREFETCH  ACCESS:          0  HIT:          0  MISS:          0
cpu0_DTLB WRITEBACK ACCESS:          0  HIT:          0  MISS:          0
cpu0_ITLB TOTAL     ACCESS:      92953  HIT:      92953  MISS:          0
cpu0_ITLB LOAD      ACCESS:      92953  HIT:      92953  MISS:          0
cpu0_ITLB RFO       ACCESS:          0  HIT:          0  MISS:          0
cpu0_ITLB PREFETCH  ACCESS:          0  HIT:          0  MISS:          0
cpu0_ITLB WRITEBACK ACCESS:          0  HIT:          0  MISS:          0
cpu0_STLB TOTAL     ACCESS:      23819  HIT:       4092  MISS:      19727
cpu0_STLB LOAD      ACCESS:      23719  HIT:       4091  MISS:      19628
cpu0_STLB RFO       ACCESS:        100  HIT:          1  MISS:         99
cpu0_STLB PREFETCH  ACCESS:          0  HIT:          0  MISS:          0
cpu0_STLB WRITEBACK ACCESS:          0  HIT:          0  MISS:          0
cpu0_L1D TOTAL     ACCESS:   14210921  HIT:   13427509  MISS:     783412
cpu0_L1D LOAD      ACCESS:   12181866  HIT:   11410065  MISS:     771801
cpu0_L1D RFO       ACCESS:    2009344  HIT:    2002962  MISS:       6382
cpu0_L1D PREFETCH  ACCESS:          0  HIT:          0  MISS:          0
cpu0_L1D WRITEBACK ACCESS:          0  HIT:          0  MISS:          0
cpu0_L2C TOTAL     ACCESS:     794769  HIT:       9201  MISS:     785568
cpu0_L2C LOAD      ACCESS:     771788  HIT:       6160  MISS:     765628
cpu0_L2C RFO       ACCESS:       6382  HIT:          0  MISS:       6382
cpu0_L2C PREFETCH  ACCESS:          0  HIT:          0  MISS:          0
cpu0_L2C WRITEBACK ACCESS:      11370  HIT:       3040  MISS:       8330
LLC TOTAL     ACCESS:     786473  HIT:     141618  MISS:     644855
LLC LOAD      ACCESS:     765627  HIT:     127319  MISS:     638308
LLC RFO       ACCESS:       6382  HIT:         49  MISS:       6333
LLC PREFETCH  ACCESS:          0  HIT:          0  MISS:          0
LLC WRITEBACK ACCESS:       9236  HIT:       9061  MISS:        175
Heartbeat CPU 0 instructions: 112000001 cycles: 100506308 heartbeat IPC: 0.763084 cumulative IPC: 0.761989 (Simulation time: 2 hr 22 min 39 sec) 

Region of Interest Statistics
cpu0_DTLB TOTAL     ACCESS:   16975127  HIT:   16950363  MISS:      24764
cpu0_DTLB LOAD      ACCESS:   15012852  HIT:   14988201  MISS:      24651
cpu0_DTLB RFO       ACCESS:    1962275  HIT:    1962162  MISS:        113
cpu0_DTLB PREFETCH  ACCESS:          0  HIT:          0  MISS:          0
cpu0_DTLB WRITEBACK ACCESS:          0  HIT:          0  MISS:          0
cpu0_ITLB TOTAL     ACCESS:      96003  HIT:      96003  MISS:          0
cpu0_ITLB LOAD      ACCESS:      96003  HIT:      96003  MISS:          0
cpu0_ITLB RFO       ACCESS:          0  HIT:          0  MISS:          0
cpu0_ITLB PREFETCH  ACCESS:          0  HIT:          0  MISS:          0
cpu0_ITLB WRITEBACK ACCESS:          0  HIT:          0  MISS:          0
cpu0_STLB TOTAL     ACCESS:      24764  HIT:       4382  MISS:      20382
cpu0_STLB LOAD      ACCESS:      24651  HIT:       4370  MISS:      20281
cpu0_STLB RFO       ACCESS:        113  HIT:         12  MISS:        101
cpu0_STLB PREFETCH  ACCESS:          0  HIT:          0  MISS:          0
cpu0_STLB WRITEBACK ACCESS:          0  HIT:          0  MISS:          0
cpu0_L1D TOTAL     ACCESS:   14685382  HIT:   13875975  MISS:     809407
cpu0_L1D LOAD      ACCESS:   12588676  HIT:   11791183  MISS:     797493
cpu0_L1D RFO       ACCESS:    2076341  HIT:    2069828  MISS:       6513
cpu0_L1D PREFETCH  ACCESS:          0  HIT:          0  MISS:          0
cpu0_L1D WRITEBACK ACCESS:          0  HIT:          0  MISS:          0
cpu0_L2C TOTAL     ACCESS:     821070  HIT:       9517  MISS:     811553
cpu0_L2C LOAD      ACCESS:     797478  HIT:       6371  MISS:     791107
cpu0_L2C RFO       ACCESS:       6513  HIT:          0  MISS:       6513
cpu0_L2C PREFETCH  ACCESS:          0  HIT:          0  MISS:          0
cpu0_L2C WRITEBACK ACCESS:      11678  HIT:       3145  MISS:       8533
LLC TOTAL     ACCESS:     812602  HIT:     146384  MISS:     666218
LLC LOAD      ACCESS:     791106  HIT:     131568  MISS:     659538
LLC RFO       ACCESS:       6513  HIT:         50  MISS:       6463
LLC PREFETCH  ACCESS:          0  HIT:          0  MISS:          0
LLC WRITEBACK ACCESS:       9583  HIT:       9406  MISS:        177
Heartbeat CPU 0 instructions: 114000004 cycles: 103132700 heartbeat IPC: 0.761502 cumulative IPC: 0.761973 (Simulation time: 2 hr 25 min 59 sec) 

Region of Interest Statistics
cpu0_DTLB TOTAL     ACCESS:   17522231  HIT:   17496676  MISS:      25555
cpu0_DTLB LOAD      ACCESS:   15496645  HIT:   15471207  MISS:      25438
cpu0_DTLB RFO       ACCESS:    2025586  HIT:    2025469  MISS:        117
cpu0_DTLB PREFETCH  ACCESS:          0  HIT:          0  MISS:          0
cpu0_DTLB WRITEBACK ACCESS:          0  HIT:          0  MISS:          0
cpu0_ITLB TOTAL     ACCESS:      99079  HIT:      99079  MISS:          0
cpu0_ITLB LOAD      ACCESS:      99079  HIT:      99079  MISS:          0
cpu0_ITLB RFO       ACCESS:          0  HIT:          0  MISS:          0
cpu0_ITLB PREFETCH  ACCESS:          0  HIT:          0  MISS:          0
cpu0_ITLB WRITEBACK ACCESS:          0  HIT:          0  MISS:          0
cpu0_STLB TOTAL     ACCESS:      25555  HIT:       4516  MISS:      21039
cpu0_STLB LOAD      ACCESS:      25438  HIT:       4504  MISS:      20934
cpu0_STLB RFO       ACCESS:        117  HIT:         12  MISS:        105
cpu0_STLB PREFETCH  ACCESS:          0  HIT:          0  MISS:          0
cpu0_STLB WRITEBACK ACCESS:          0  HIT:          0  MISS:          0
cpu0_L1D TOTAL     ACCESS:   15158695  HIT:   14323118  MISS:     835577
cpu0_L1D LOAD      ACCESS:   12994366  HIT:   12171138  MISS:     823228
cpu0_L1D RFO       ACCESS:    2143307  HIT:    2136534  MISS:       6773
cpu0_L1D PREFETCH  ACCESS:          0  HIT:          0  MISS:          0
cpu0_L1D WRITEBACK ACCESS:          0  HIT:          0  MISS:          0
cpu0_L2C TOTAL     ACCESS:     847666  HIT:       9831  MISS:     837835
cpu0_L2C LOAD      ACCESS:     823213  HIT:       6575  MISS:     816638
cpu0_L2C RFO       ACCESS:       6773  HIT:          0  MISS:       6773
cpu0_L2C PREFETCH  ACCESS:          0  HIT:          0  MISS:          0
cpu0_L2C WRITEBACK ACCESS:      12104  HIT:       3255  MISS:       8849
LLC TOTAL     ACCESS:     838866  HIT:     151081  MISS:     687785
LLC LOAD      ACCESS:     816637  HIT:     135801  MISS:     680836
LLC RFO       ACCESS:       6773  HIT:         52  MISS:       6721
LLC PREFETCH  ACCESS:          0  HIT:          0  MISS:          0
LLC WRITEBACK ACCESS:       9881  HIT:       9696  MISS:        185
Heartbeat CPU 0 instructions: 116000003 cycles: 105753719 heartbeat IPC: 0.763062 cumulative IPC: 0.762006 (Simulation time: 2 hr 29 min 19 sec) 

Region of Interest Statistics
cpu0_DTLB TOTAL     ACCESS:   18070241  HIT:   18043731  MISS:      26510
cpu0_DTLB LOAD      ACCESS:   15981429  HIT:   15955051  MISS:      26378
cpu0_DTLB RFO       ACCESS:    2088812  HIT:    2088680  MISS:        132
[...]
cpu0_DTLB LOAD      ACCESS:  278361614  HIT:  277399184  MISS:     962430
cpu0_DTLB RFO       ACCESS:   70094505  HIT:   69524767  MISS:     569738
cpu0_DTLB PREFETCH  ACCESS:          0  HIT:          0  MISS:          0
cpu0_DTLB WRITEBACK ACCESS:          0  HIT:          0  MISS:          0
cpu0_ITLB TOTAL     ACCESS:   58935198  HIT:   58935112  MISS:         86
cpu0_ITLB LOAD      ACCESS:   58935198  HIT:   58935112  MISS:         86
cpu0_ITLB RFO       ACCESS:          0  HIT:          0  MISS:          0
cpu0_ITLB PREFETCH  ACCESS:          0  HIT:          0  MISS:          0
cpu0_ITLB WRITEBACK ACCESS:          0  HIT:          0  MISS:          0
cpu0_L1I TOTAL     ACCESS:  126359039  HIT:  126357596  MISS:       1443
cpu0_L1I LOAD      ACCESS:  126359039  HIT:  126357596  MISS:       1443
cpu0_L1I RFO       ACCESS:          0  HIT:          0  MISS:          0
cpu0_L1I PREFETCH  ACCESS:          0  HIT:          0  MISS:          0
cpu0_L1I WRITEBACK ACCESS:          0  HIT:          0  MISS:          0
cpu0_STLB TOTAL     ACCESS:    1532254  HIT:    1334255  MISS:     197999
cpu0_STLB LOAD      ACCESS:     962516  HIT:     766848  MISS:     195668
cpu0_STLB RFO       ACCESS:     569738  HIT:     567407  MISS:       2331
cpu0_STLB PREFETCH  ACCESS:          0  HIT:          0  MISS:          0
cpu0_STLB WRITEBACK ACCESS:          0  HIT:          0  MISS:          0
cpu0_L1D TOTAL     ACCESS:  377103679  HIT:  368000758  MISS:    9102921
cpu0_L1D LOAD      ACCESS:  261004394  HIT:  252523445  MISS:    8480949
cpu0_L1D RFO       ACCESS:  115901642  HIT:  115332166  MISS:     569476
cpu0_L1D PREFETCH  ACCESS:          0  HIT:          0  MISS:          0
cpu0_L1D WRITEBACK ACCESS:          0  HIT:          0  MISS:          0
cpu0_L2C TOTAL     ACCESS:    9896999  HIT:    1988696  MISS:    7908303
cpu0_L2C LOAD      ACCESS:    8482278  HIT:     863873  MISS:    7618405
cpu0_L2C RFO       ACCESS:     569476  HIT:     408638  MISS:     160838
cpu0_L2C PREFETCH  ACCESS:          0  HIT:          0  MISS:          0
cpu0_L2C WRITEBACK ACCESS:     792749  HIT:     713015  MISS:      79734
LLC TOTAL     ACCESS:    8017115  HIT:    1471752  MISS:    6545363
LLC LOAD      ACCESS:    7618404  HIT:    1225192  MISS:    6393212
LLC RFO       ACCESS:     160838  HIT:      12890  MISS:     147948
LLC PREFETCH  ACCESS:          0  HIT:          0  MISS:          0
LLC WRITEBACK ACCESS:     188547  HIT:     184752  MISS:       3795
Heartbeat CPU 0 instructions: 1550000004 cycles: 1567435202 heartbeat IPC: 1.1767 cumulative IPC: 0.968808 (Simulation time: 20 hr 7 min 24 sec) 

Region of Interest Statistics
cpu0_DTLB TOTAL     ACCESS:  348859904  HIT:  347327320  MISS:    1532584
cpu0_DTLB LOAD      ACCESS:  278654465  HIT:  277691827  MISS:     962638
cpu0_DTLB RFO       ACCESS:   70205439  HIT:   69635493  MISS:     569946
cpu0_DTLB PREFETCH  ACCESS:          0  HIT:          0  MISS:          0
cpu0_DTLB WRITEBACK ACCESS:          0  HIT:          0  MISS:          0
cpu0_ITLB TOTAL     ACCESS:   59065436  HIT:   59065350  MISS:         86
cpu0_ITLB LOAD      ACCESS:   59065436  HIT:   59065350  MISS:         86
cpu0_ITLB RFO       ACCESS:          0  HIT:          0  MISS:          0
cpu0_ITLB PREFETCH  ACCESS:          0  HIT:          0  MISS:          0
cpu0_ITLB WRITEBACK ACCESS:          0  HIT:          0  MISS:          0
cpu0_L1I TOTAL     ACCESS:  126637332  HIT:  126635889  MISS:       1443
cpu0_L1I LOAD      ACCESS:  126637332  HIT:  126635889  MISS:       1443
cpu0_L1I RFO       ACCESS:          0  HIT:          0  MISS:          0
cpu0_L1I PREFETCH  ACCESS:          0  HIT:          0  MISS:          0
cpu0_L1I WRITEBACK ACCESS:          0  HIT:          0  MISS:          0
cpu0_STLB TOTAL     ACCESS:    1532670  HIT:    1334671  MISS:     197999
cpu0_STLB LOAD      ACCESS:     962724  HIT:     767056  MISS:     195668
cpu0_STLB RFO       ACCESS:     569946  HIT:     567615  MISS:       2331
cpu0_STLB PREFETCH  ACCESS:          0  HIT:          0  MISS:          0
cpu0_STLB WRITEBACK ACCESS:          0  HIT:          0  MISS:          0
cpu0_L1D TOTAL     ACCESS:  377609456  HIT:  368504215  MISS:    9105241
cpu0_L1D LOAD      ACCESS:  261304352  HIT:  252821508  MISS:    8482844
cpu0_L1D RFO       ACCESS:  116107461  HIT:  115537560  MISS:     569901
cpu0_L1D PREFETCH  ACCESS:          0  HIT:          0  MISS:          0
cpu0_L1D WRITEBACK ACCESS:          0  HIT:          0  MISS:          0
cpu0_L2C TOTAL     ACCESS:    9900593  HIT:    1992155  MISS:    7908438
cpu0_L2C LOAD      ACCESS:    8484173  HIT:     865673  MISS:    7618500
cpu0_L2C RFO       ACCESS:     569901  HIT:     409023  MISS:     160878
cpu0_L2C PREFETCH  ACCESS:          0  HIT:          0  MISS:          0
cpu0_L2C WRITEBACK ACCESS:     794023  HIT:     714289  MISS:      79734
LLC TOTAL     ACCESS:    8017294  HIT:    1471838  MISS:    6545456
LLC LOAD      ACCESS:    7618499  HIT:    1225220  MISS:    6393279
LLC RFO       ACCESS:     160878  HIT:      12904  MISS:     147974
LLC PREFETCH  ACCESS:          0  HIT:          0  MISS:          0
LLC WRITEBACK ACCESS:     188591  HIT:     184796  MISS:       3795
Finished CPU 0 instructions: 1500000000 cycles: 1548294946 cumulative IPC: 0.968808 (Simulation time: 20 hr 7 min 24 sec) 

ChampSim completed all CPUs

Region of Interest Statistics

CPU 0 cumulative IPC: 0.968808 instructions: 1500000000 cycles: 1548294946
cpu0_DTLB TOTAL     ACCESS:  348859904  HIT:  347327320  MISS:    1532584
cpu0_DTLB LOAD      ACCESS:  278654465  HIT:  277691827  MISS:     962638
cpu0_DTLB RFO       ACCESS:   70205439  HIT:   69635493  MISS:     569946
cpu0_DTLB PREFETCH  ACCESS:          0  HIT:          0  MISS:          0
cpu0_DTLB WRITEBACK ACCESS:          0  HIT:          0  MISS:          0
cpu0_DTLB TRANSLATION ACCESS:          0  HIT:          0  MISS:          0
cpu0_DTLB PREFETCH  REQUESTED:          0  ISSUED:          0  USEFUL:          0  USELESS:          0
cpu0_DTLB AVERAGE MISS LATENCY: 36.9393 cycles
cpu0_ITLB TOTAL     ACCESS:   59065436  HIT:   59065350  MISS:         86
cpu0_ITLB LOAD      ACCESS:   59065436  HIT:   59065350  MISS:         86
cpu0_ITLB RFO       ACCESS:          0  HIT:          0  MISS:          0
cpu0_ITLB PREFETCH  ACCESS:          0  HIT:          0  MISS:          0
cpu0_ITLB WRITEBACK ACCESS:          0  HIT:          0  MISS:          0
cpu0_ITLB TRANSLATION ACCESS:          0  HIT:          0  MISS:          0
cpu0_ITLB PREFETCH  REQUESTED:          0  ISSUED:          0  USEFUL:          0  USELESS:          0
cpu0_ITLB AVERAGE MISS LATENCY: 191.372 cycles
cpu0_L1I TOTAL     ACCESS:  126637332  HIT:  126635889  MISS:       1443
cpu0_L1I LOAD      ACCESS:  126637332  HIT:  126635889  MISS:       1443
cpu0_L1I RFO       ACCESS:          0  HIT:          0  MISS:          0
cpu0_L1I PREFETCH  ACCESS:          0  HIT:          0  MISS:          0
cpu0_L1I WRITEBACK ACCESS:          0  HIT:          0  MISS:          0
cpu0_L1I TRANSLATION ACCESS:          0  HIT:          0  MISS:          0
cpu0_L1I PREFETCH  REQUESTED:          0  ISSUED:          0  USEFUL:          0  USELESS:          0
cpu0_L1I AVERAGE MISS LATENCY: 146.123 cycles
cpu0_STLB TOTAL     ACCESS:    1532670  HIT:    1334671  MISS:     197999
cpu0_STLB LOAD      ACCESS:     962724  HIT:     767056  MISS:     195668
cpu0_STLB RFO       ACCESS:     569946  HIT:     567615  MISS:       2331
cpu0_STLB PREFETCH  ACCESS:          0  HIT:          0  MISS:          0
cpu0_STLB WRITEBACK ACCESS:          0  HIT:          0  MISS:          0
cpu0_STLB TRANSLATION ACCESS:          0  HIT:          0  MISS:          0
cpu0_STLB PREFETCH  REQUESTED:          0  ISSUED:          0  USEFUL:          0  USELESS:          0
cpu0_STLB AVERAGE MISS LATENCY: 216.035 cycles
cpu0_L1D TOTAL     ACCESS:  377609456  HIT:  368504215  MISS:    9105241
cpu0_L1D LOAD      ACCESS:  261304352  HIT:  252821508  MISS:    8482844
cpu0_L1D RFO       ACCESS:  116107461  HIT:  115537560  MISS:     569901
cpu0_L1D PREFETCH  ACCESS:          0  HIT:          0  MISS:          0
cpu0_L1D WRITEBACK ACCESS:          0  HIT:          0  MISS:          0
cpu0_L1D TRANSLATION ACCESS:     197643  HIT:     145147  MISS:      52496
cpu0_L1D PREFETCH  REQUESTED:          0  ISSUED:          0  USEFUL:          0  USELESS:          0
cpu0_L1D AVERAGE MISS LATENCY: 268.498 cycles
cpu0_L2C TOTAL     ACCESS:    9900593  HIT:    1992155  MISS:    7908438
cpu0_L2C LOAD      ACCESS:    8484173  HIT:     865673  MISS:    7618500
cpu0_L2C RFO       ACCESS:     569901  HIT:     409023  MISS:     160878
cpu0_L2C PREFETCH  ACCESS:          0  HIT:          0  MISS:          0
cpu0_L2C WRITEBACK ACCESS:     794023  HIT:     714289  MISS:      79734
cpu0_L2C TRANSLATION ACCESS:      52496  HIT:       3170  MISS:      49326
cpu0_L2C PREFETCH  REQUESTED:          0  ISSUED:          0  USEFUL:          0  USELESS:          0
cpu0_L2C AVERAGE MISS LATENCY: 296.351 cycles
LLC TOTAL     ACCESS:    8017294  HIT:    1471838  MISS:    6545456
LLC LOAD      ACCESS:    7618499  HIT:    1225220  MISS:    6393279
LLC RFO       ACCESS:     160878  HIT:      12904  MISS:     147974
LLC PREFETCH  ACCESS:          0  HIT:          0  MISS:          0
LLC WRITEBACK ACCESS:     188591  HIT:     184796  MISS:       3795
LLC TRANSLATION ACCESS:      49326  HIT:      48918  MISS:        408
LLC PREFETCH  REQUESTED:          0  ISSUED:          0  USEFUL:          0  USELESS:          0
LLC AVERAGE MISS LATENCY: 332.944 cycles
~~~~~~~~~~Reuse Distance Profiler output~~~~~~~~~~
0	0	0
1	0	0
2	0	0
3	0	0
4	0	0
5	0	0
6	0	0
7	0	0
8	0	0
9	0	0
10	0	0
11	0	0
12	0	0
13	0	0
14	0	0
15	0	0
16	0	0
17	0	0
18	0	0
19	0	0
20	0	0
21	0	0
22	0	0
23	0	0
24	0	0
25	0	0
26	0	0
27	0	0
28	0	0
29	0	0
30	0	0
31	0	0
32	0	0
33	0	0
34	0	0
35	0	0
36	0	0
37	0	0
38	0	0
39	0	0
40	0	0
41	0	0
42	0	0
43	0	0
44	0	0
45	0	0
46	0	0
47	0	0
48	0	0
49	0	0
50	0	0
51	0	0
52	0	0
53	0	0
54	0	0
55	0	0
56	0	0
57	0	0
58	0	0
59	0	0
60	0	0
61	0	0
62	0	0
63	0	0
64	0	0
66	0	0
68	0	0
70	0	0
72	0	0
74	0	0
76	0	0
78	0	0
80	0	0
82	0	0
84	0	0
86	0	0
88	0	0
90	0	0
92	0	0
94	0	0
96	0	0
98	0	0
100	0	0
102	0	0
104	0	0
106	0	0
108	0	0
110	0	0
112	0	0
114	0	0
116	0	0
118	0	0
120	0	0
122	0	0
124	0	0
126	0	0
128	0	0
132	0	0
136	0	0
140	0	0
144	0	0
148	0	0
152	0	0
156	0	0
160	0	0
164	0	0
168	0	0
172	0	0
176	0	0
180	0	0
184	0	0
188	0	0
192	0	0
196	0	0
200	0	0
204	0	0
208	0	0
212	0	0
216	0	0
220	0	0
224	0	0
228	0	0
232	0	0
236	0	0
240	0	0
244	0	0
248	0	0
252	0	0
256	0	0
264	0	0
272	0	0
280	0	0
288	0	0
296	0	0
304	0	0
312	0	0
320	0	0
328	0	0
336	0	0
344	0	0
352	0	0
360	0	0
368	0	0
376	0	0
384	0	0
392	0	0
400	0	0
408	0	0
416	0	0
424	0	0
432	0	0
440	0	0
448	0	0
456	0	0
464	0	0
472	0	0
480	0	0
488	0	0
496	0	0
504	0	0
512	0	0
528	0	0
544	0	0
560	0	0
576	0	0
592	0	0
608	0	0
624	0	0
640	0	0
656	0	0
672	0	0
688	0	0
704	0	0
720	0	0
736	0	0
752	0	0
768	0	0
784	0	0
800	0	0
816	0	0
832	0	0
848	0	0
864	0	0
880	0	0
896	0	0
912	0	0
928	0	0
944	0	0
960	0	0
976	0	0
992	0	0
1008	0	0
1024	0	0
1056	0	0
1088	0	0
1120	0	0
1152	0	0
1184	0	0
1216	0	0
1248	0	0
1280	0	0
1312	0	0
1344	0	0
1376	0	0
1408	0	0
1440	0	0
1472	0	0
1504	0	0
1536	0	0
1568	0	0
1600	0	0
1632	0	0
1664	0	0
1696	0	0
1728	0	0
1760	0	0
1792	0	0
1824	0	0
1856	0	0
1888	0	0
1920	0	0
1952	0	0
1984	0	0
2016	0	0
2048	0	0
2112	0	0
2176	0	0
2240	0	0
2304	0	0
2368	0	0
2432	0	0
2496	0	0
2560	0	0
2624	0	0
2688	0	0
2752	0	0
2816	0	0
2880	0	0
2944	0	0
3008	0	0
3072	0	0
3136	0	0
3200	0	0
3264	0	0
3328	0	0
3392	0	0
3456	0	0
3520	0	0
3584	0	0
3648	0	0
3712	0	0
3776	0	0
3840	0	0
3904	0	0
3968	0	0
4032	0	0
4096	0	0
4224	0	0
4352	0	0
4480	0	0
4608	0	0
4736	0	0
4864	0	0
4992	0	0
5120	0	0
5248	0	0
5376	0	0
5504	0	0
5632	0	0
5760	0	0
5888	0	0
6016	0	0
6144	0	0
6272	0	0
6400	0	0
6528	0	0
6656	0	0
6784	0	0
6912	0	0
7040	0	0
7168	0	0
7296	0	0
7424	0	0
7552	0	0
7680	0	0
7808	0	0
7936	0	0
8064	0	0
8192	0	0
8448	0	0
8704	0	0
8960	0	0
9216	0	0
9472	0	0
9728	0	0
9984	0	0
10240	0	0
10496	0	0
10752	0	0
11008	0	0
11264	0	0
11520	0	0
11776	0	0
12032	0	0
12288	0	0
12544	0	0
12800	0	0
13056	0	0
13312	0	0
13568	0	0
13824	0	0
14080	0	0
14336	0	0
14592	0	0
14848	0	0
15104	0	0
15360	0	0
15616	0	0
15872	0	0
16128	0	0
16384	0	0
16896	0	0
17408	0	0
17920	0	0
18432	0	0
18944	0	0
19456	0	0
19968	0	0
20480	0	0
20992	0	0
21504	0	0
22016	0	0
22528	0	0
23040	0	0
23552	0	0
24064	0	0
24576	0	0
25088	0	0
25600	0	0
26112	0	0
26624	0	0
27136	0	0
27648	0	0
28160	0	0
28672	0	0
29184	0	0
29696	0	0
30208	0	0
30720	0	0
31232	0	0
31744	0	0
32256	0	0
32768	0	0
33792	0	0
34816	0	0
35840	0	0
36864	0	0
37888	0	0
38912	0	0
39936	0	0
40960	0	0
41984	0	0
43008	0	0
44032	0	0
45056	0	0
46080	0	0
47104	0	0
48128	0	0
49152	0	0
50176	0	0
51200	0	0
52224	0	0
53248	0	0
54272	0	0
55296	0	0
56320	0	0
57344	0	0
58368	0	0
59392	0	0
60416	0	0
61440	0	0
62464	0	0
63488	0	0
64512	0	0
65536	0	0
67584	0	0
69632	0	0
71680	0	0
73728	0	0
75776	0	0
77824	0	0
79872	0	0
81920	0	0
83968	0	0
86016	0	0
88064	0	0
90112	0	0
92160	0	0
94208	0	0
96256	0	0
98304	0	0
100352	0	0
102400	0	0
104448	0	0
106496	0	0
108544	0	0
110592	0	0
112640	0	0
114688	0	0
116736	0	0
118784	0	0
120832	0	0
122880	0	0
124928	0	0
126976	0	0
129024	0	0
131072	0	0
135168	0	0
139264	0	0
143360	0	0
147456	0	0
151552	0	0
155648	0	0
159744	0	0
163840	0	0
167936	0	0
172032	0	0
176128	0	0
180224	0	0
184320	0	0
188416	0	0
192512	0	0
196608	0	0
200704	0	0
204800	0	0
208896	0	0
212992	0	0
217088	0	0
221184	0	0
225280	0	0
229376	0	0
233472	0	0
237568	0	0
241664	0	0
245760	0	0
249856	0	0
253952	0	0
258048	0	0
262144	0	0
270336	0	0
278528	0	0
286720	0	0
294912	0	0
303104	0	0
311296	0	0
319488	0	0
327680	0	0
335872	0	0
344064	0	0
352256	0	0
360448	0	0
368640	0	0
376832	0	0
385024	0	0
393216	0	0
401408	0	0
409600	0	0
417792	0	0
425984	0	0
434176	0	0
442368	0	0
450560	0	0
458752	0	0
466944	0	0
475136	0	0
483328	0	0
491520	0	0
499712	0	0
507904	0	0
516096	0	0
524288	0	0
540672	0	0
557056	0	0
573440	0	0
589824	0	0
606208	0	0
622592	0	0
638976	0	0
655360	0	0
671744	0	0
688128	0	0
704512	0	0
720896	0	0
737280	0	0
753664	0	0
770048	0	0
786432	0	0
802816	0	0
819200	0	0
835584	0	0
851968	0	0
868352	0	0
884736	0	0
901120	0	0
917504	0	0
933888	0	0
950272	0	0
966656	0	0
983040	0	0
999424	0	0
1015808	0	0
1032192	0	0
1048576	0	0
1081344	0	0
1114112	0	0
1146880	0	0
1179648	0	0
1212416	0	0
1245184	0	0
1277952	0	0
1310720	0	0
1343488	0	0
1376256	0	0
1409024	0	0
1441792	0	0
1474560	0	0
1507328	0	0
1540096	0	0
1572864	0	0
1605632	0	0
1638400	0	0
1671168	0	0
1703936	0	0
1736704	0	0
1769472	0	0
1802240	0	0
1835008	0	0
1867776	0	0
1900544	0	0
1933312	0	0
1966080	0	0
1998848	0	0
2031616	0	0
2064384	0	0
2097152	0	0
2162688	0	0
2228224	0	0
2293760	0	0
2359296	0	0
2424832	0	0
2490368	0	0
2555904	0	0
2621440	0	0
2686976	0	0
2752512	0	0
2818048	0	0
2883584	0	0
2949120	0	0
3014656	0	0
3080192	0	0
3145728	0	0
3211264	0	0
3276800	0	0
3342336	0	0
3407872	0	0
3473408	0	0
3538944	0	0
3604480	0	0
3670016	0	0
3735552	0	0
3801088	0	0
3866624	0	0
3932160	0	0
3997696	0	0
4063232	0	0
4128768	0	0
4194304	0	0
4325376	0	0
4456448	0	0
4587520	0	0
4718592	0	0
4849664	0	0
4980736	0	0
5111808	0	0
5242880	0	0
5373952	0	0
5505024	0	0
5636096	0	0
5767168	0	0
5898240	0	0
6029312	0	0
6160384	0	0
6291456	0	0
6422528	0	0
6553600	0	0
6684672	0	0
6815744	0	0
6946816	0	0
7077888	0	0
7208960	0	0
7340032	0	0
7471104	0	0
7602176	0	0
7733248	0	0
7864320	0	0
7995392	0	0
8126464	0	0
8257536	0	0
8388608	0	0
8650752	0	0
8912896	0	0
9175040	0	0
9437184	0	0
9699328	0	0
9961472	0	0
10223616	0	0
10485760	0	0
10747904	0	0
11010048	0	0
11272192	0	0
11534336	0	0
11796480	0	0
12058624	0	0
12320768	0	0
12582912	0	0
12845056	0	0
13107200	0	0
13369344	0	0
13631488	0	0
13893632	0	0
14155776	0	0
14417920	0	0
14680064	0	0
14942208	0	0
15204352	0	0
15466496	0	0
15728640	0	0
15990784	0	0
16252928	0	0
16515072	0	0
16777216	0	0
17301504	0	0
17825792	0	0
18350080	0	0
18874368	0	0
19398656	0	0
19922944	0	0
20447232	0	0
20971520	0	0
21495808	0	0
22020096	0	0
22544384	0	0
23068672	0	0
23592960	0	0
24117248	0	0
24641536	0	0
25165824	0	0
25690112	0	0
26214400	0	0
26738688	0	0
27262976	0	0
27787264	0	0
28311552	0	0
28835840	0	0
29360128	0	0
29884416	0	0
30408704	0	0
30932992	0	0
31457280	0	0
31981568	0	0
32505856	0	0
33030144	0	0
33554432	0	0
34603008	0	0
35651584	0	0
36700160	0	0
37748736	0	0
38797312	0	0
39845888	0	0
40894464	0	0
41943040	0	0
42991616	0	0
44040192	0	0
45088768	0	0
46137344	0	0
47185920	0	0
48234496	0	0
49283072	0	0
50331648	0	0
51380224	0	0
52428800	0	0
53477376	0	0
54525952	0	0
55574528	0	0
56623104	0	0
57671680	0	0
58720256	0	0
59768832	0	0
60817408	0	0
61865984	0	0
62914560	0	0
63963136	0	0
65011712	0	0
66060288	0	0
67108864	0	0
69206016	0	0
71303168	0	0
73400320	0	0
75497472	0	0
77594624	0	0
79691776	0	0
81788928	0	0
83886080	0	0
85983232	0	0
88080384	0	0
90177536	0	0
92274688	0	0
94371840	0	0
96468992	0	0
98566144	0	0
100663296	0	0
102760448	0	0
104857600	0	0
106954752	0	0
109051904	0	0
111149056	0	0
113246208	0	0
115343360	0	0
117440512	0	0
119537664	0	0
121634816	0	0
123731968	0	0
125829120	0	0
127926272	0	0
130023424	0	0
132120576	0	0
134217728	0	0
138412032	0	0
142606336	0	0
146800640	0	0
150994944	0	0
155189248	0	0
159383552	0	0
163577856	0	0
167772160	0	0
171966464	0	0
176160768	0	0
180355072	0	0
184549376	0	0
188743680	0	0
192937984	0	0
197132288	0	0
201326592	0	0
205520896	0	0
209715200	0	0
213909504	0	0
218103808	0	0
222298112	0	0
226492416	0	0
230686720	0	0
234881024	0	0
239075328	0	0
243269632	0	0
247463936	0	0
251658240	0	0
255852544	0	0
260046848	0	0
264241152	0	0
268435456	0	0
276824064	0	0
285212672	0	0
293601280	0	0
301989888	0	0
310378496	0	0
318767104	0	0
327155712	0	0
335544320	0	0
343932928	0	0
352321536	0	0
360710144	0	0
369098752	0	0
377487360	0	0
385875968	0	0
394264576	0	0
402653184	0	0
411041792	0	0
419430400	0	0
427819008	0	0
436207616	0	0
444596224	0	0
452984832	0	0
461373440	0	0
469762048	0	0
478150656	0	0
486539264	0	0
494927872	0	0
503316480	0	0
511705088	0	0
520093696	0	0
528482304	0	0
536870912	0	0
553648128	0	0
570425344	0	0
587202560	0	0
603979776	0	0
620756992	0	0
637534208	0	0
654311424	0	0
671088640	0	0
687865856	0	0
704643072	0	0
721420288	0	0
738197504	0	0
754974720	0	0
771751936	0	0
788529152	0	0
805306368	0	0
822083584	0	0
838860800	0	0
855638016	0	0
872415232	0	0
889192448	0	0
905969664	0	0
922746880	0	0
939524096	0	0
956301312	0	0
973078528	0	0
989855744	0	0
1006632960	0	0
1023410176	0	0
1040187392	0	0
1056964608	0	0
1073741824	0	0
1107296256	0	0
1140850688	0	0
1174405120	0	0
1207959552	0	0
1241513984	0	0
1275068416	0	0
1308622848	0	0
1342177280	0	0
1375731712	0	0
1409286144	0	0
1442840576	0	0
1476395008	0	0
1509949440	0	0
1543503872	0	0
1577058304	0	0
1610612736	0	0
1644167168	0	0
1677721600	0	0
1711276032	0	0
1744830464	0	0
1778384896	0	0
1811939328	0	0
1845493760	0	0
1879048192	0	0
1912602624	0	0
1946157056	0	0
1979711488	0	0
2013265920	0	0
2046820352	0	0
2080374784	0	0
2113929216	0	0
2147483648	0	0
2214592512	0	0
2281701376	0	0
2348810240	0	0
2415919104	0	0
2483027968	0	0
2550136832	0	0
2617245696	0	0
2684354560	0	0
2751463424	0	0
2818572288	0	0
2885681152	0	0
2952790016	0	0
3019898880	0	0
3087007744	0	0
3154116608	0	0
3221225472	0	0
3288334336	0	0
3355443200	0	0
3422552064	0	0
3489660928	0	0
3556769792	0	0
3623878656	0	0
3690987520	0	0
3758096384	0	0
3825205248	0	0
3892314112	0	0
3959422976	0	0
4026531840	0	0
4093640704	0	0
4160749568	0	0
4227858432	0	0
~~~~~~~~~~Reuse Distance Profiler output end~~~~~~~~~~

Sampler size:0

DRAM Statistics
 CHANNEL 0
 RQ ROW_BUFFER_HIT:      50418  ROW_BUFFER_MISS:    6491197
 DBUS AVG_CONGESTED_CYCLE:    3.89074
 WQ ROW_BUFFER_HIT:      53276  ROW_BUFFER_MISS:      84366  FULL:          0


CPU 0 Branch Prediction Accuracy: 97.7465% MPKI: 2.09555 Average ROB Occupancy at Mispredict: 133.889
Branch type MPKI
BRANCH_DIRECT_JUMP: 0.000136667
BRANCH_INDIRECT: 4.26667e-05
BRANCH_CONDITIONAL: 2.09503
BRANCH_DIRECT_CALL: 0.000174667
BRANCH_INDIRECT_CALL: 6.66667e-06
BRANCH_RETURN: 0.000156

