
*** ChampSim Multicore Out-of-Order Simulator ***

Warmup Instructions: 50000000
Simulation Instructions: 1500000000
Number of CPUs: 1
Off-chip DRAM Size: 4 GiB Channels: 1 Width: 64-bit Data Rate: 3200 MT/s

VirtualMemory physical capacity: 8588881920 num_ppages: 2096895
VirtualMemory page size: 4096 log2_page_size: 12

CPU 0 runs traces/429.mcf-192B.champsimtrace.xz
CPU 0 Bimodal branch predictor
Basic BTB sets: 1024 ways: 8 indirect buffer size: 4096 RAS size: 64
Initializing LRU.
Initializing LRU.
Initializing LRU.
Initializing LRU.
Initializing rdLRU.
Initializing LRU.
Initializing LRU.
Heartbeat CPU 0 instructions: 2000002 cycles: 621202 heartbeat IPC: 3.21957 cumulative IPC: 3.21957 (Simulation time: 0 hr 0 min 53 sec) 
Heartbeat CPU 0 instructions: 4000001 cycles: 1242137 heartbeat IPC: 3.22095 cumulative IPC: 3.22026 (Simulation time: 0 hr 1 min 46 sec) 
Heartbeat CPU 0 instructions: 6000003 cycles: 1862125 heartbeat IPC: 3.22587 cumulative IPC: 3.22213 (Simulation time: 0 hr 2 min 43 sec) 
Heartbeat CPU 0 instructions: 8000004 cycles: 2483246 heartbeat IPC: 3.21999 cumulative IPC: 3.22159 (Simulation time: 0 hr 3 min 38 sec) 
Heartbeat CPU 0 instructions: 10000000 cycles: 3103909 heartbeat IPC: 3.22235 cumulative IPC: 3.22174 (Simulation time: 0 hr 4 min 29 sec) 
Heartbeat CPU 0 instructions: 12000000 cycles: 3722526 heartbeat IPC: 3.23302 cumulative IPC: 3.22362 (Simulation time: 0 hr 5 min 31 sec) 
Heartbeat CPU 0 instructions: 14000003 cycles: 4343025 heartbeat IPC: 3.22322 cumulative IPC: 3.22356 (Simulation time: 0 hr 6 min 37 sec) 
Heartbeat CPU 0 instructions: 16000003 cycles: 4964225 heartbeat IPC: 3.21957 cumulative IPC: 3.22306 (Simulation time: 0 hr 7 min 39 sec) 
Heartbeat CPU 0 instructions: 18000003 cycles: 5585572 heartbeat IPC: 3.21881 cumulative IPC: 3.22259 (Simulation time: 0 hr 8 min 43 sec) 
Heartbeat CPU 0 instructions: 20000004 cycles: 6205915 heartbeat IPC: 3.22402 cumulative IPC: 3.22273 (Simulation time: 0 hr 9 min 49 sec) 
Heartbeat CPU 0 instructions: 22000001 cycles: 6826299 heartbeat IPC: 3.2238 cumulative IPC: 3.22283 (Simulation time: 0 hr 10 min 56 sec) 
Heartbeat CPU 0 instructions: 24000000 cycles: 7446709 heartbeat IPC: 3.22367 cumulative IPC: 3.2229 (Simulation time: 0 hr 11 min 57 sec) 
Heartbeat CPU 0 instructions: 26000002 cycles: 8066197 heartbeat IPC: 3.22848 cumulative IPC: 3.22333 (Simulation time: 0 hr 13 min 3 sec) 
Heartbeat CPU 0 instructions: 28000004 cycles: 8686328 heartbeat IPC: 3.22513 cumulative IPC: 3.22346 (Simulation time: 0 hr 14 min 6 sec) 
Heartbeat CPU 0 instructions: 30000004 cycles: 9308908 heartbeat IPC: 3.21244 cumulative IPC: 3.22272 (Simulation time: 0 hr 15 min 15 sec) 
Heartbeat CPU 0 instructions: 32000001 cycles: 9929839 heartbeat IPC: 3.22096 cumulative IPC: 3.22261 (Simulation time: 0 hr 16 min 23 sec) 
Heartbeat CPU 0 instructions: 34000001 cycles: 10550186 heartbeat IPC: 3.224 cumulative IPC: 3.22269 (Simulation time: 0 hr 17 min 29 sec) 
Heartbeat CPU 0 instructions: 36000002 cycles: 11171257 heartbeat IPC: 3.22025 cumulative IPC: 3.22256 (Simulation time: 0 hr 18 min 35 sec) 
Heartbeat CPU 0 instructions: 38000000 cycles: 11792263 heartbeat IPC: 3.22058 cumulative IPC: 3.22245 (Simulation time: 0 hr 19 min 35 sec) 
Heartbeat CPU 0 instructions: 40000001 cycles: 12413287 heartbeat IPC: 3.22049 cumulative IPC: 3.22235 (Simulation time: 0 hr 20 min 30 sec) 
Heartbeat CPU 0 instructions: 42000000 cycles: 13035145 heartbeat IPC: 3.21617 cumulative IPC: 3.22206 (Simulation time: 0 hr 21 min 25 sec) 
Heartbeat CPU 0 instructions: 44000002 cycles: 13654599 heartbeat IPC: 3.22865 cumulative IPC: 3.22236 (Simulation time: 0 hr 22 min 17 sec) 
Heartbeat CPU 0 instructions: 46000003 cycles: 14274042 heartbeat IPC: 3.22871 cumulative IPC: 3.22263 (Simulation time: 0 hr 23 min 11 sec) 
Heartbeat CPU 0 instructions: 48000003 cycles: 14894189 heartbeat IPC: 3.22504 cumulative IPC: 3.22273 (Simulation time: 0 hr 24 min 4 sec) 
Heartbeat CPU 0 instructions: 50000000 cycles: 15514488 heartbeat IPC: 3.22425 cumulative IPC: 3.22279 (Simulation time: 0 hr 24 min 55 sec) 

Warmup complete CPU 0 instructions: 50000002 cycles: 15514489 (Simulation time: 0 hr 24 min 55 sec) 

Heartbeat CPU 0 instructions: 52000000 cycles: 39820953 heartbeat IPC: 0.0822826 cumulative IPC: 0.0822826 (Simulation time: 0 hr 29 min 33 sec) 

Region of Interest Statistics
cpu0_DTLB TOTAL     ACCESS:     414571  HIT:     120198  MISS:     294373
cpu0_DTLB LOAD      ACCESS:     414567  HIT:     120196  MISS:     294371
cpu0_DTLB RFO       ACCESS:          4  HIT:          2  MISS:          2
cpu0_DTLB PREFETCH  ACCESS:          0  HIT:          0  MISS:          0
cpu0_DTLB WRITEBACK ACCESS:          0  HIT:          0  MISS:          0
cpu0_ITLB TOTAL     ACCESS:     219524  HIT:     219524  MISS:          0
cpu0_ITLB LOAD      ACCESS:     219524  HIT:     219524  MISS:          0
cpu0_ITLB RFO       ACCESS:          0  HIT:          0  MISS:          0
cpu0_ITLB PREFETCH  ACCESS:          0  HIT:          0  MISS:          0
cpu0_ITLB WRITEBACK ACCESS:          0  HIT:          0  MISS:          0
cpu0_STLB TOTAL     ACCESS:     294373  HIT:     289783  MISS:       4590
cpu0_STLB LOAD      ACCESS:     294371  HIT:     289783  MISS:       4588
cpu0_STLB RFO       ACCESS:          2  HIT:          0  MISS:          2
cpu0_STLB PREFETCH  ACCESS:          0  HIT:          0  MISS:          0
cpu0_STLB WRITEBACK ACCESS:          0  HIT:          0  MISS:          0
cpu0_L1D TOTAL     ACCESS:     418035  HIT:     142431  MISS:     275604
cpu0_L1D LOAD      ACCESS:     413440  HIT:     139510  MISS:     273930
cpu0_L1D RFO       ACCESS:          5  HIT:          0  MISS:          5
cpu0_L1D PREFETCH  ACCESS:          0  HIT:          0  MISS:          0
cpu0_L1D WRITEBACK ACCESS:          0  HIT:          0  MISS:          0
cpu0_L2C TOTAL     ACCESS:     275609  HIT:      74317  MISS:     201292
cpu0_L2C LOAD      ACCESS:     273930  HIT:      74143  MISS:     199787
cpu0_L2C RFO       ACCESS:          5  HIT:          0  MISS:          5
cpu0_L2C PREFETCH  ACCESS:          0  HIT:          0  MISS:          0
cpu0_L2C WRITEBACK ACCESS:          5  HIT:          5  MISS:          0
LLC TOTAL     ACCESS:     201298  HIT:      80971  MISS:     120327
LLC LOAD      ACCESS:     199787  HIT:      79466  MISS:     120321
LLC RFO       ACCESS:          5  HIT:          0  MISS:          5
LLC PREFETCH  ACCESS:          0  HIT:          0  MISS:          0
LLC WRITEBACK ACCESS:          6  HIT:          6  MISS:          0
Heartbeat CPU 0 instructions: 54000000 cycles: 64029334 heartbeat IPC: 0.082616 cumulative IPC: 0.082449 (Simulation time: 0 hr 34 min 19 sec) 

Region of Interest Statistics
cpu0_DTLB TOTAL     ACCESS:     829261  HIT:     240167  MISS:     589094
cpu0_DTLB LOAD      ACCESS:     829256  HIT:     240165  MISS:     589091
cpu0_DTLB RFO       ACCESS:          5  HIT:          2  MISS:          3
cpu0_DTLB PREFETCH  ACCESS:          0  HIT:          0  MISS:          0
cpu0_DTLB WRITEBACK ACCESS:          0  HIT:          0  MISS:          0
cpu0_ITLB TOTAL     ACCESS:     438771  HIT:     438771  MISS:          0
cpu0_ITLB LOAD      ACCESS:     438771  HIT:     438771  MISS:          0
cpu0_ITLB RFO       ACCESS:          0  HIT:          0  MISS:          0
cpu0_ITLB PREFETCH  ACCESS:          0  HIT:          0  MISS:          0
cpu0_ITLB WRITEBACK ACCESS:          0  HIT:          0  MISS:          0
cpu0_STLB TOTAL     ACCESS:     589094  HIT:     579744  MISS:       9350
cpu0_STLB LOAD      ACCESS:     589091  HIT:     579744  MISS:       9347
cpu0_STLB RFO       ACCESS:          3  HIT:          0  MISS:          3
cpu0_STLB PREFETCH  ACCESS:          0  HIT:          0  MISS:          0
cpu0_STLB WRITEBACK ACCESS:          0  HIT:          0  MISS:          0
cpu0_L1D TOTAL     ACCESS:     836168  HIT:     283151  MISS:     553017
cpu0_L1D LOAD      ACCESS:     826813  HIT:     277140  MISS:     549673
cpu0_L1D RFO       ACCESS:          6  HIT:          0  MISS:          6
cpu0_L1D PREFETCH  ACCESS:          0  HIT:          0  MISS:          0
cpu0_L1D WRITEBACK ACCESS:          0  HIT:          0  MISS:          0
cpu0_L2C TOTAL     ACCESS:     553023  HIT:     149315  MISS:     403708
cpu0_L2C LOAD      ACCESS:     549673  HIT:     148927  MISS:     400746
cpu0_L2C RFO       ACCESS:          6  HIT:          0  MISS:          6
cpu0_L2C PREFETCH  ACCESS:          0  HIT:          0  MISS:          0
cpu0_L2C WRITEBACK ACCESS:          6  HIT:          6  MISS:          0
LLC TOTAL     ACCESS:     403715  HIT:     162569  MISS:     241146
LLC LOAD      ACCESS:     400746  HIT:     159608  MISS:     241138
LLC RFO       ACCESS:          6  HIT:          0  MISS:          6
LLC PREFETCH  ACCESS:          0  HIT:          0  MISS:          0
LLC WRITEBACK ACCESS:          7  HIT:          7  MISS:          0
Heartbeat CPU 0 instructions: 56000000 cycles: 88311152 heartbeat IPC: 0.0823662 cumulative IPC: 0.0824213 (Simulation time: 0 hr 39 min 12 sec) 

Region of Interest Statistics
cpu0_DTLB TOTAL     ACCESS:    1244445  HIT:     359979  MISS:     884466
cpu0_DTLB LOAD      ACCESS:    1244438  HIT:     359977  MISS:     884461
cpu0_DTLB RFO       ACCESS:          7  HIT:          2  MISS:          5
cpu0_DTLB PREFETCH  ACCESS:          0  HIT:          0  MISS:          0
cpu0_DTLB WRITEBACK ACCESS:          0  HIT:          0  MISS:          0
cpu0_ITLB TOTAL     ACCESS:     658417  HIT:     658417  MISS:          0
cpu0_ITLB LOAD      ACCESS:     658417  HIT:     658417  MISS:          0
cpu0_ITLB RFO       ACCESS:          0  HIT:          0  MISS:          0
cpu0_ITLB PREFETCH  ACCESS:          0  HIT:          0  MISS:          0
cpu0_ITLB WRITEBACK ACCESS:          0  HIT:          0  MISS:          0
cpu0_STLB TOTAL     ACCESS:     884466  HIT:     870512  MISS:      13954
cpu0_STLB LOAD      ACCESS:     884461  HIT:     870511  MISS:      13950
cpu0_STLB RFO       ACCESS:          5  HIT:          1  MISS:          4
cpu0_STLB PREFETCH  ACCESS:          0  HIT:          0  MISS:          0
cpu0_STLB WRITEBACK ACCESS:          0  HIT:          0  MISS:          0
cpu0_L1D TOTAL     ACCESS:    1254244  HIT:     421161  MISS:     833083
cpu0_L1D LOAD      ACCESS:    1240284  HIT:     412218  MISS:     828066
cpu0_L1D RFO       ACCESS:          8  HIT:          0  MISS:          8
cpu0_L1D PREFETCH  ACCESS:          0  HIT:          0  MISS:          0
cpu0_L1D WRITEBACK ACCESS:          0  HIT:          0  MISS:          0
cpu0_L2C TOTAL     ACCESS:     833091  HIT:     225972  MISS:     607119
cpu0_L2C LOAD      ACCESS:     828066  HIT:     225397  MISS:     602669
cpu0_L2C RFO       ACCESS:          8  HIT:          0  MISS:          8
cpu0_L2C PREFETCH  ACCESS:          0  HIT:          0  MISS:          0
cpu0_L2C WRITEBACK ACCESS:          8  HIT:          8  MISS:          0
LLC TOTAL     ACCESS:     607128  HIT:     244918  MISS:     362210
LLC LOAD      ACCESS:     602669  HIT:     240470  MISS:     362199
LLC RFO       ACCESS:          8  HIT:          0  MISS:          8
LLC PREFETCH  ACCESS:          0  HIT:          0  MISS:          0
LLC WRITEBACK ACCESS:          9  HIT:          9  MISS:          0
Heartbeat CPU 0 instructions: 58000000 cycles: 112553647 heartbeat IPC: 0.0824998 cumulative IPC: 0.0824409 (Simulation time: 0 hr 44 min 35 sec) 

Region of Interest Statistics
cpu0_DTLB TOTAL     ACCESS:    1659958  HIT:     479791  MISS:    1180167
cpu0_DTLB LOAD      ACCESS:    1659947  HIT:     479789  MISS:    1180158
cpu0_DTLB RFO       ACCESS:         11  HIT:          2  MISS:          9
cpu0_DTLB PREFETCH  ACCESS:          0  HIT:          0  MISS:          0
cpu0_DTLB WRITEBACK ACCESS:          0  HIT:          0  MISS:          0
cpu0_ITLB TOTAL     ACCESS:     878109  HIT:     878109  MISS:          0
cpu0_ITLB LOAD      ACCESS:     878109  HIT:     878109  MISS:          0
cpu0_ITLB RFO       ACCESS:          0  HIT:          0  MISS:          0
cpu0_ITLB PREFETCH  ACCESS:          0  HIT:          0  MISS:          0
cpu0_ITLB WRITEBACK ACCESS:          0  HIT:          0  MISS:          0
cpu0_STLB TOTAL     ACCESS:    1180167  HIT:    1161573  MISS:      18594
cpu0_STLB LOAD      ACCESS:    1180158  HIT:    1161572  MISS:      18586
cpu0_STLB RFO       ACCESS:          9  HIT:          1  MISS:          8
cpu0_STLB PREFETCH  ACCESS:          0  HIT:          0  MISS:          0
cpu0_STLB WRITEBACK ACCESS:          0  HIT:          0  MISS:          0
cpu0_L1D TOTAL     ACCESS:    1672478  HIT:     556999  MISS:    1115479
cpu0_L1D LOAD      ACCESS:    1653875  HIT:     545094  MISS:    1108781
cpu0_L1D RFO       ACCESS:         12  HIT:          0  MISS:         12
cpu0_L1D PREFETCH  ACCESS:          0  HIT:          0  MISS:          0
cpu0_L1D WRITEBACK ACCESS:          0  HIT:          0  MISS:          0
cpu0_L2C TOTAL     ACCESS:    1115491  HIT:     304089  MISS:     811402
cpu0_L2C LOAD      ACCESS:    1108781  HIT:     303319  MISS:     805462
cpu0_L2C RFO       ACCESS:         12  HIT:          0  MISS:         12
cpu0_L2C PREFETCH  ACCESS:          0  HIT:          0  MISS:          0
cpu0_L2C WRITEBACK ACCESS:         12  HIT:         12  MISS:          0
LLC TOTAL     ACCESS:     811415  HIT:     328358  MISS:     483057
LLC LOAD      ACCESS:     805462  HIT:     322421  MISS:     483041
LLC RFO       ACCESS:         12  HIT:          0  MISS:         12
LLC PREFETCH  ACCESS:          0  HIT:          0  MISS:          0
LLC WRITEBACK ACCESS:         13  HIT:         13  MISS:          0
Heartbeat CPU 0 instructions: 60000001 cycles: 136944261 heartbeat IPC: 0.0819988 cumulative IPC: 0.0823521 (Simulation time: 0 hr 50 min 7 sec) 

Region of Interest Statistics
cpu0_DTLB TOTAL     ACCESS:    2075735  HIT:     600013  MISS:    1475722
cpu0_DTLB LOAD      ACCESS:    2075452  HIT:     599755  MISS:    1475697
cpu0_DTLB RFO       ACCESS:        283  HIT:        258  MISS:         25
cpu0_DTLB PREFETCH  ACCESS:          0  HIT:          0  MISS:          0
cpu0_DTLB WRITEBACK ACCESS:          0  HIT:          0  MISS:          0
cpu0_ITLB TOTAL     ACCESS:    1098948  HIT:    1098948  MISS:          0
cpu0_ITLB LOAD      ACCESS:    1098948  HIT:    1098948  MISS:          0
cpu0_ITLB RFO       ACCESS:          0  HIT:          0  MISS:          0
cpu0_ITLB PREFETCH  ACCESS:          0  HIT:          0  MISS:          0
cpu0_ITLB WRITEBACK ACCESS:          0  HIT:          0  MISS:          0
cpu0_STLB TOTAL     ACCESS:    1475722  HIT:    1452232  MISS:      23490
cpu0_STLB LOAD      ACCESS:    1475697  HIT:    1452225  MISS:      23472
cpu0_STLB RFO       ACCESS:         25  HIT:          7  MISS:         18
cpu0_STLB PREFETCH  ACCESS:          0  HIT:          0  MISS:          0
cpu0_STLB WRITEBACK ACCESS:          0  HIT:          0  MISS:          0
cpu0_L1D TOTAL     ACCESS:    2092054  HIT:     693737  MISS:    1398317
cpu0_L1D LOAD      ACCESS:    2068080  HIT:     678210  MISS:    1389870
cpu0_L1D RFO       ACCESS:        487  HIT:        455  MISS:         32
cpu0_L1D PREFETCH  ACCESS:          0  HIT:          0  MISS:          0
cpu0_L1D WRITEBACK ACCESS:          0  HIT:          0  MISS:          0
cpu0_L2C TOTAL     ACCESS:    1398434  HIT:     382658  MISS:    1015776
cpu0_L2C LOAD      ACCESS:    1389870  HIT:     381557  MISS:    1008313
cpu0_L2C RFO       ACCESS:         32  HIT:          1  MISS:         31
cpu0_L2C PREFETCH  ACCESS:          0  HIT:          0  MISS:          0
cpu0_L2C WRITEBACK ACCESS:        117  HIT:        117  MISS:          0
LLC TOTAL     ACCESS:    1015891  HIT:     412182  MISS:     603709
LLC LOAD      ACCESS:    1008313  HIT:     404641  MISS:     603672
LLC RFO       ACCESS:         31  HIT:          1  MISS:         30
LLC PREFETCH  ACCESS:          0  HIT:          0  MISS:          0
LLC WRITEBACK ACCESS:        115  HIT:        115  MISS:          0
Heartbeat CPU 0 instructions: 62000000 cycles: 161384628 heartbeat IPC: 0.0818318 cumulative IPC: 0.0822649 (Simulation time: 0 hr 55 min 24 sec) 

Region of Interest Statistics
cpu0_DTLB TOTAL     ACCESS:    2491980  HIT:     721254  MISS:    1770726
cpu0_DTLB LOAD      ACCESS:    2491226  HIT:     720547  MISS:    1770679
cpu0_DTLB RFO       ACCESS:        754  HIT:        707  MISS:         47
cpu0_DTLB PREFETCH  ACCESS:          0  HIT:          0  MISS:          0
cpu0_DTLB WRITEBACK ACCESS:          0  HIT:          0  MISS:          0
cpu0_ITLB TOTAL     ACCESS:    1320610  HIT:    1320610  MISS:          0
cpu0_ITLB LOAD      ACCESS:    1320610  HIT:    1320610  MISS:          0
cpu0_ITLB RFO       ACCESS:          0  HIT:          0  MISS:          0
cpu0_ITLB PREFETCH  ACCESS:          0  HIT:          0  MISS:          0
cpu0_ITLB WRITEBACK ACCESS:          0  HIT:          0  MISS:          0
cpu0_STLB TOTAL     ACCESS:    1770726  HIT:    1742328  MISS:      28398
cpu0_STLB LOAD      ACCESS:    1770679  HIT:    1742308  MISS:      28371
cpu0_STLB RFO       ACCESS:         47  HIT:         20  MISS:         27
cpu0_STLB PREFETCH  ACCESS:          0  HIT:          0  MISS:          0
cpu0_STLB WRITEBACK ACCESS:          0  HIT:          0  MISS:          0
cpu0_L1D TOTAL     ACCESS:    2512743  HIT:     830044  MISS:    1682699
cpu0_L1D LOAD      ACCESS:    2482967  HIT:     810446  MISS:    1672521
cpu0_L1D RFO       ACCESS:       1381  HIT:       1319  MISS:         62
cpu0_L1D PREFETCH  ACCESS:          0  HIT:          0  MISS:          0
cpu0_L1D WRITEBACK ACCESS:          0  HIT:          0  MISS:          0
cpu0_L2C TOTAL     ACCESS:    1683009  HIT:     461512  MISS:    1221497
cpu0_L2C LOAD      ACCESS:    1672521  HIT:     459989  MISS:    1212532
cpu0_L2C RFO       ACCESS:         62  HIT:         10  MISS:         52
cpu0_L2C PREFETCH  ACCESS:          0  HIT:          0  MISS:          0
cpu0_L2C WRITEBACK ACCESS:        310  HIT:        310  MISS:          0
LLC TOTAL     ACCESS:    1221732  HIT:     497201  MISS:     724531
LLC LOAD      ACCESS:    1212532  HIT:     488045  MISS:     724487
LLC RFO       ACCESS:         52  HIT:         16  MISS:         36
LLC PREFETCH  ACCESS:          0  HIT:          0  MISS:          0
LLC WRITEBACK ACCESS:        235  HIT:        234  MISS:          1
Heartbeat CPU 0 instructions: 64000000 cycles: 186102716 heartbeat IPC: 0.0809124 cumulative IPC: 0.082069 (Simulation time: 1 hr 0 min 34 sec) 

Region of Interest Statistics
cpu0_DTLB TOTAL     ACCESS:    2908530  HIT:     842980  MISS:    2065550
cpu0_DTLB LOAD      ACCESS:    2907225  HIT:     841814  MISS:    2065411
cpu0_DTLB RFO       ACCESS:       1305  HIT:       1166  MISS:        139
cpu0_DTLB PREFETCH  ACCESS:          0  HIT:          0  MISS:          0
cpu0_DTLB WRITEBACK ACCESS:          0  HIT:          0  MISS:          0
cpu0_ITLB TOTAL     ACCESS:    1543085  HIT:    1543085  MISS:          0
cpu0_ITLB LOAD      ACCESS:    1543085  HIT:    1543085  MISS:          0
cpu0_ITLB RFO       ACCESS:          0  HIT:          0  MISS:          0
cpu0_ITLB PREFETCH  ACCESS:          0  HIT:          0  MISS:          0
cpu0_ITLB WRITEBACK ACCESS:          0  HIT:          0  MISS:          0
cpu0_STLB TOTAL     ACCESS:    2065550  HIT:    2032336  MISS:      33214
cpu0_STLB LOAD      ACCESS:    2065411  HIT:    2032235  MISS:      33176
cpu0_STLB RFO       ACCESS:        139  HIT:        101  MISS:         38
cpu0_STLB PREFETCH  ACCESS:          0  HIT:          0  MISS:          0
cpu0_STLB WRITEBACK ACCESS:          0  HIT:          0  MISS:          0
cpu0_L1D TOTAL     ACCESS:    2934011  HIT:     966883  MISS:    1967128
cpu0_L1D LOAD      ACCESS:    2898446  HIT:     943232  MISS:    1955214
cpu0_L1D RFO       ACCESS:       2356  HIT:       2269  MISS:         87
cpu0_L1D PREFETCH  ACCESS:          0  HIT:          0  MISS:          0
cpu0_L1D WRITEBACK ACCESS:          0  HIT:          0  MISS:          0
cpu0_L2C TOTAL     ACCESS:    1967730  HIT:     539770  MISS:    1427960
cpu0_L2C LOAD      ACCESS:    1955214  HIT:     537748  MISS:    1417466
cpu0_L2C RFO       ACCESS:         87  HIT:         11  MISS:         76
cpu0_L2C PREFETCH  ACCESS:          0  HIT:          0  MISS:          0
cpu0_L2C WRITEBACK ACCESS:        602  HIT:        602  MISS:          0
LLC TOTAL     ACCESS:    1428485  HIT:     582956  MISS:     845529
LLC LOAD      ACCESS:    1417466  HIT:     572005  MISS:     845461
LLC RFO       ACCESS:         76  HIT:         20  MISS:         56
LLC PREFETCH  ACCESS:          0  HIT:          0  MISS:          0
LLC WRITEBACK ACCESS:        525  HIT:        524  MISS:          1
Heartbeat CPU 0 instructions: 66000001 cycles: 210915604 heartbeat IPC: 0.0806033 cumulative IPC: 0.0818828 (Simulation time: 1 hr 5 min 56 sec) 

Region of Interest Statistics
cpu0_DTLB TOTAL     ACCESS:    3324895  HIT:     962790  MISS:    2362105
cpu0_DTLB LOAD      ACCESS:    3323590  HIT:     961624  MISS:    2361966
cpu0_DTLB RFO       ACCESS:       1305  HIT:       1166  MISS:        139
cpu0_DTLB PREFETCH  ACCESS:          0  HIT:          0  MISS:          0
cpu0_DTLB WRITEBACK ACCESS:          0  HIT:          0  MISS:          0
cpu0_ITLB TOTAL     ACCESS:    1765660  HIT:    1765660  MISS:          0
cpu0_ITLB LOAD      ACCESS:    1765660  HIT:    1765660  MISS:          0
cpu0_ITLB RFO       ACCESS:          0  HIT:          0  MISS:          0
cpu0_ITLB PREFETCH  ACCESS:          0  HIT:          0  MISS:          0
cpu0_ITLB WRITEBACK ACCESS:          0  HIT:          0  MISS:          0
cpu0_STLB TOTAL     ACCESS:    2362105  HIT:    2324197  MISS:      37908
cpu0_STLB LOAD      ACCESS:    2361966  HIT:    2324096  MISS:      37870
cpu0_STLB RFO       ACCESS:        139  HIT:        101  MISS:         38
cpu0_STLB PREFETCH  ACCESS:          0  HIT:          0  MISS:          0
cpu0_STLB WRITEBACK ACCESS:          0  HIT:          0  MISS:          0
cpu0_L1D TOTAL     ACCESS:    3354021  HIT:    1100015  MISS:    2254006
cpu0_L1D LOAD      ACCESS:    3313762  HIT:    1073341  MISS:    2240421
cpu0_L1D RFO       ACCESS:       2356  HIT:       2269  MISS:         87
cpu0_L1D PREFETCH  ACCESS:          0  HIT:          0  MISS:          0
cpu0_L1D WRITEBACK ACCESS:          0  HIT:          0  MISS:          0
cpu0_L2C TOTAL     ACCESS:    2254608  HIT:     619734  MISS:    1634874
cpu0_L2C LOAD      ACCESS:    2240421  HIT:     617530  MISS:    1622891
cpu0_L2C RFO       ACCESS:         87  HIT:         11  MISS:         76
cpu0_L2C PREFETCH  ACCESS:          0  HIT:          0  MISS:          0
cpu0_L2C WRITEBACK ACCESS:        602  HIT:        602  MISS:          0
LLC TOTAL     ACCESS:    1635400  HIT:     668273  MISS:     967127
LLC LOAD      ACCESS:    1622891  HIT:     655834  MISS:     967057
LLC RFO       ACCESS:         76  HIT:         20  MISS:         56
LLC PREFETCH  ACCESS:          0  HIT:          0  MISS:          0
LLC WRITEBACK ACCESS:        526  HIT:        524  MISS:          2
Heartbeat CPU 0 instructions: 68000000 cycles: 235406773 heartbeat IPC: 0.081662 cumulative IPC: 0.0818583 (Simulation time: 1 hr 11 min 3 sec) 

Region of Interest Statistics
cpu0_DTLB TOTAL     ACCESS:    3740870  HIT:    1085093  MISS:    2655777
cpu0_DTLB LOAD      ACCESS:    3738597  HIT:    1083002  MISS:    2655595
cpu0_DTLB RFO       ACCESS:       2273  HIT:       2091  MISS:        182
cpu0_DTLB PREFETCH  ACCESS:          0  HIT:          0  MISS:          0
cpu0_DTLB WRITEBACK ACCESS:          0  HIT:          0  MISS:          0
cpu0_ITLB TOTAL     ACCESS:    1987312  HIT:    1987312  MISS:          0
cpu0_ITLB LOAD      ACCESS:    1987312  HIT:    1987312  MISS:          0
cpu0_ITLB RFO       ACCESS:          0  HIT:          0  MISS:          0
cpu0_ITLB PREFETCH  ACCESS:          0  HIT:          0  MISS:          0
cpu0_ITLB WRITEBACK ACCESS:          0  HIT:          0  MISS:          0
cpu0_STLB TOTAL     ACCESS:    2655777  HIT:    2613005  MISS:      42772
cpu0_STLB LOAD      ACCESS:    2655595  HIT:    2612870  MISS:      42725
cpu0_STLB RFO       ACCESS:        182  HIT:        135  MISS:         47
cpu0_STLB PREFETCH  ACCESS:          0  HIT:          0  MISS:          0
cpu0_STLB WRITEBACK ACCESS:          0  HIT:          0  MISS:          0
cpu0_L1D TOTAL     ACCESS:    3775352  HIT:    1235662  MISS:    2539690
cpu0_L1D LOAD      ACCESS:    3728490  HIT:    1204132  MISS:    2524358
cpu0_L1D RFO       ACCESS:       4096  HIT:       3969  MISS:        127
cpu0_L1D PREFETCH  ACCESS:          0  HIT:          0  MISS:          0
cpu0_L1D WRITEBACK ACCESS:          0  HIT:          0  MISS:          0
cpu0_L2C TOTAL     ACCESS:    2540655  HIT:     700393  MISS:    1840262
cpu0_L2C LOAD      ACCESS:    2524358  HIT:     697610  MISS:    1826748
cpu0_L2C RFO       ACCESS:        127  HIT:         33  MISS:         94
cpu0_L2C PREFETCH  ACCESS:          0  HIT:          0  MISS:          0
cpu0_L2C WRITEBACK ACCESS:        965  HIT:        965  MISS:          0
LLC TOTAL     ACCESS:    1840948  HIT:     753814  MISS:    1087134
LLC LOAD      ACCESS:    1826748  HIT:     739703  MISS:    1087045
LLC RFO       ACCESS:         94  HIT:         21  MISS:         73
LLC PREFETCH  ACCESS:          0  HIT:          0  MISS:          0
LLC WRITEBACK ACCESS:        686  HIT:        684  MISS:          2
Heartbeat CPU 0 instructions: 70000000 cycles: 259908565 heartbeat IPC: 0.0816267 cumulative IPC: 0.081835 (Simulation time: 1 hr 16 min 19 sec) 

Region of Interest Statistics
cpu0_DTLB TOTAL     ACCESS:    4157513  HIT:    1213194  MISS:    2944319
cpu0_DTLB LOAD      ACCESS:    4150523  HIT:    1207803  MISS:    2942720
cpu0_DTLB RFO       ACCESS:       6990  HIT:       5391  MISS:       1599
cpu0_DTLB PREFETCH  ACCESS:          0  HIT:          0  MISS:          0
cpu0_DTLB WRITEBACK ACCESS:          0  HIT:          0  MISS:          0
cpu0_ITLB TOTAL     ACCESS:    2210250  HIT:    2210250  MISS:          0
cpu0_ITLB LOAD      ACCESS:    2210250  HIT:    2210250  MISS:          0
cpu0_ITLB RFO       ACCESS:          0  HIT:          0  MISS:          0
cpu0_ITLB PREFETCH  ACCESS:          0  HIT:          0  MISS:          0
cpu0_ITLB WRITEBACK ACCESS:          0  HIT:          0  MISS:          0
cpu0_L1I TOTAL     ACCESS:          6  HIT:          6  MISS:          0
cpu0_L1I LOAD      ACCESS:          6  HIT:          6  MISS:          0
cpu0_L1I RFO       ACCESS:          0  HIT:          0  MISS:          0
cpu0_L1I PREFETCH  ACCESS:          0  HIT:          0  MISS:          0
cpu0_L1I WRITEBACK ACCESS:          0  HIT:          0  MISS:          0
cpu0_STLB TOTAL     ACCESS:    2944319  HIT:    2896436  MISS:      47883
cpu0_STLB LOAD      ACCESS:    2942720  HIT:    2894930  MISS:      47790
cpu0_STLB RFO       ACCESS:       1599  HIT:       1506  MISS:         93
cpu0_STLB PREFETCH  ACCESS:          0  HIT:          0  MISS:          0
cpu0_STLB WRITEBACK ACCESS:          0  HIT:          0  MISS:          0
cpu0_L1D TOTAL     ACCESS:    4201017  HIT:    1376553  MISS:    2824464
cpu0_L1D LOAD      ACCESS:    4143068  HIT:    1335739  MISS:    2807329
cpu0_L1D RFO       ACCESS:      10075  HIT:       9836  MISS:        239
cpu0_L1D PREFETCH  ACCESS:          0  HIT:          0  MISS:          0
cpu0_L1D WRITEBACK ACCESS:          0  HIT:          0  MISS:          0
cpu0_L2C TOTAL     ACCESS:    2829058  HIT:     783043  MISS:    2046015
cpu0_L2C LOAD      ACCESS:    2807329  HIT:     776372  MISS:    2030957
cpu0_L2C RFO       ACCESS:        239  HIT:         96  MISS:        143
cpu0_L2C PREFETCH  ACCESS:          0  HIT:          0  MISS:          0
cpu0_L2C WRITEBACK ACCESS:       4594  HIT:       4594  MISS:          0
LLC TOTAL     ACCESS:    2050010  HIT:     842141  MISS:    1207869
LLC LOAD      ACCESS:    2030957  HIT:     823212  MISS:    1207745
LLC RFO       ACCESS:        143  HIT:         44  MISS:         99
LLC PREFETCH  ACCESS:          0  HIT:          0  MISS:          0
LLC WRITEBACK ACCESS:       3995  HIT:       3987  MISS:          8
Heartbeat CPU 0 instructions: 72000002 cycles: 284395124 heartbeat IPC: 0.0816775 cumulative IPC: 0.0818207 (Simulation time: 1 hr 21 min 38 sec) 

Region of Interest Statistics
cpu0_DTLB TOTAL     ACCESS:    4573551  HIT:    1335713  MISS:    3237838
cpu0_DTLB LOAD      ACCESS:    4565372  HIT:    1329547  MISS:    3235825
cpu0_DTLB RFO       ACCESS:       8179  HIT:       6166  MISS:       2013
cpu0_DTLB PREFETCH  ACCESS:          0  HIT:          0  MISS:          0
cpu0_DTLB WRITEBACK ACCESS:          0  HIT:          0  MISS:          0
cpu0_ITLB TOTAL     ACCESS:    2431671  HIT:    2431671  MISS:          0
cpu0_ITLB LOAD      ACCESS:    2431671  HIT:    2431671  MISS:          0
cpu0_ITLB RFO       ACCESS:          0  HIT:          0  MISS:          0
cpu0_ITLB PREFETCH  ACCESS:          0  HIT:          0  MISS:          0
cpu0_ITLB WRITEBACK ACCESS:          0  HIT:          0  MISS:          0
cpu0_L1I TOTAL     ACCESS:          6  HIT:          6  MISS:          0
cpu0_L1I LOAD      ACCESS:          6  HIT:          6  MISS:          0
cpu0_L1I RFO       ACCESS:          0  HIT:          0  MISS:          0
cpu0_L1I PREFETCH  ACCESS:          0  HIT:          0  MISS:          0
cpu0_L1I WRITEBACK ACCESS:          0  HIT:          0  MISS:          0
cpu0_STLB TOTAL     ACCESS:    3237838  HIT:    3185099  MISS:      52739
cpu0_STLB LOAD      ACCESS:    3235825  HIT:    3183190  MISS:      52635
cpu0_STLB RFO       ACCESS:       2013  HIT:       1909  MISS:        104
cpu0_STLB PREFETCH  ACCESS:          0  HIT:          0  MISS:          0
cpu0_STLB WRITEBACK ACCESS:          0  HIT:          0  MISS:          0
cpu0_L1D TOTAL     ACCESS:    4623427  HIT:    1512846  MISS:    3110581
cpu0_L1D LOAD      ACCESS:    4558803  HIT:    1467072  MISS:    3091731
cpu0_L1D RFO       ACCESS:      11897  HIT:      11620  MISS:        277
cpu0_L1D PREFETCH  ACCESS:          0  HIT:          0  MISS:          0
cpu0_L1D WRITEBACK ACCESS:          0  HIT:          0  MISS:          0
cpu0_L2C TOTAL     ACCESS:    3115957  HIT:     863760  MISS:    2252197
cpu0_L2C LOAD      ACCESS:    3091731  HIT:     856085  MISS:    2235646
cpu0_L2C RFO       ACCESS:        277  HIT:        107  MISS:        170
cpu0_L2C PREFETCH  ACCESS:          0  HIT:          0  MISS:          0
cpu0_L2C WRITEBACK ACCESS:       5376  HIT:       5376  MISS:          0
LLC TOTAL     ACCESS:    2256785  HIT:     928134  MISS:    1328651
LLC LOAD      ACCESS:    2235646  HIT:     907147  MISS:    1328499
LLC RFO       ACCESS:        170  HIT:         51  MISS:        119
LLC PREFETCH  ACCESS:          0  HIT:          0  MISS:          0
LLC WRITEBACK ACCESS:       4588  HIT:       4575  MISS:         13
Heartbeat CPU 0 instructions: 74000001 cycles: 309050551 heartbeat IPC: 0.081118 cumulative IPC: 0.0817617 (Simulation time: 1 hr 26 min 53 sec) 

Region of Interest Statistics
cpu0_DTLB TOTAL     ACCESS:    4989724  HIT:    1457766  MISS:    3531958
cpu0_DTLB LOAD      ACCESS:    4980801  HIT:    1451129  MISS:    3529672
cpu0_DTLB RFO       ACCESS:       8923  HIT:       6637  MISS:       2286
cpu0_DTLB PREFETCH  ACCESS:          0  HIT:          0  MISS:          0
cpu0_DTLB WRITEBACK ACCESS:          0  HIT:          0  MISS:          0
cpu0_ITLB TOTAL     ACCESS:    2653600  HIT:    2653600  MISS:          0
cpu0_ITLB LOAD      ACCESS:    2653600  HIT:    2653600  MISS:          0
cpu0_ITLB RFO       ACCESS:          0  HIT:          0  MISS:          0
cpu0_ITLB PREFETCH  ACCESS:          0  HIT:          0  MISS:          0
cpu0_ITLB WRITEBACK ACCESS:          0  HIT:          0  MISS:          0
cpu0_L1I TOTAL     ACCESS:          6  HIT:          6  MISS:          0
cpu0_L1I LOAD      ACCESS:          6  HIT:          6  MISS:          0
cpu0_L1I RFO       ACCESS:          0  HIT:          0  MISS:          0
cpu0_L1I PREFETCH  ACCESS:          0  HIT:          0  MISS:          0
cpu0_L1I WRITEBACK ACCESS:          0  HIT:          0  MISS:          0
cpu0_STLB TOTAL     ACCESS:    3531958  HIT:    3474366  MISS:      57592
cpu0_STLB LOAD      ACCESS:    3529672  HIT:    3472195  MISS:      57477
cpu0_STLB RFO       ACCESS:       2286  HIT:       2171  MISS:        115
cpu0_STLB PREFETCH  ACCESS:          0  HIT:          0  MISS:          0
cpu0_STLB WRITEBACK ACCESS:          0  HIT:          0  MISS:          0
cpu0_L1D TOTAL     ACCESS:    5045022  HIT:    1647164  MISS:    3397858
cpu0_L1D LOAD      ACCESS:    4974394  HIT:    1597112  MISS:    3377282
cpu0_L1D RFO       ACCESS:      13050  HIT:      12747  MISS:        303
cpu0_L1D PREFETCH  ACCESS:          0  HIT:          0  MISS:          0
cpu0_L1D WRITEBACK ACCESS:          0  HIT:          0  MISS:          0
cpu0_L2C TOTAL     ACCESS:    3403750  HIT:     943292  MISS:    2460458
cpu0_L2C LOAD      ACCESS:    3377282  HIT:     934907  MISS:    2442375
cpu0_L2C RFO       ACCESS:        303  HIT:        108  MISS:        195
cpu0_L2C PREFETCH  ACCESS:          0  HIT:          0  MISS:          0
cpu0_L2C WRITEBACK ACCESS:       5892  HIT:       5892  MISS:          0
LLC TOTAL     ACCESS:    2465558  HIT:    1015486  MISS:    1450072
LLC LOAD      ACCESS:    2442375  HIT:     992474  MISS:    1449901
LLC RFO       ACCESS:        195  HIT:         62  MISS:        133
LLC PREFETCH  ACCESS:          0  HIT:          0  MISS:          0
LLC WRITEBACK ACCESS:       5100  HIT:       5085  MISS:         15
Heartbeat CPU 0 instructions: 76000002 cycles: 335888511 heartbeat IPC: 0.0745213 cumulative IPC: 0.0811551 (Simulation time: 1 hr 32 min 12 sec) 

Region of Interest Statistics
cpu0_DTLB TOTAL     ACCESS:    5422334  HIT:    1630394  MISS:    3791940
cpu0_DTLB LOAD      ACCESS:    5392691  HIT:    1603711  MISS:    3788980
cpu0_DTLB RFO       ACCESS:      29643  HIT:      26683  MISS:       2960
cpu0_DTLB PREFETCH  ACCESS:          0  HIT:          0  MISS:          0
cpu0_DTLB WRITEBACK ACCESS:          0  HIT:          0  MISS:          0
cpu0_ITLB TOTAL     ACCESS:    2893102  HIT:    2893101  MISS:          1
cpu0_ITLB LOAD      ACCESS:    2893102  HIT:    2893101  MISS:          1
cpu0_ITLB RFO       ACCESS:          0  HIT:          0  MISS:          0
cpu0_ITLB PREFETCH  ACCESS:          0  HIT:          0  MISS:          0
cpu0_ITLB WRITEBACK ACCESS:          0  HIT:          0  MISS:          0
cpu0_L1I TOTAL     ACCESS:         16  HIT:         13  MISS:          3
cpu0_L1I LOAD      ACCESS:         16  HIT:         13  MISS:          3
cpu0_L1I RFO       ACCESS:          0  HIT:          0  MISS:          0
cpu0_L1I PREFETCH  ACCESS:          0  HIT:          0  MISS:          0
cpu0_L1I WRITEBACK ACCESS:          0  HIT:          0  MISS:          0
cpu0_STLB TOTAL     ACCESS:    3791941  HIT:    3718167  MISS:      73774
cpu0_STLB LOAD      ACCESS:    3788981  HIT:    3715376  MISS:      73605
cpu0_STLB RFO       ACCESS:       2960  HIT:       2791  MISS:        169
cpu0_STLB PREFETCH  ACCESS:          0  HIT:          0  MISS:          0
cpu0_STLB WRITEBACK ACCESS:          0  HIT:          0  MISS:          0
cpu0_L1D TOTAL     ACCESS:    5504134  HIT:    1824110  MISS:    3680024
cpu0_L1D LOAD      ACCESS:    5394169  HIT:    1739902  MISS:    3654267
cpu0_L1D RFO       ACCESS:      36217  HIT:      33713  MISS:       2504
cpu0_L1D PREFETCH  ACCESS:          0  HIT:          0  MISS:          0
cpu0_L1D WRITEBACK ACCESS:          0  HIT:          0  MISS:          0
cpu0_L2C TOTAL     ACCESS:    3704835  HIT:    1030216  MISS:    2674619
cpu0_L2C LOAD      ACCESS:    3654270  HIT:    1000837  MISS:    2653433
cpu0_L2C RFO       ACCESS:       2504  HIT:        632  MISS:       1872
cpu0_L2C PREFETCH  ACCESS:          0  HIT:          0  MISS:          0
cpu0_L2C WRITEBACK ACCESS:      24808  HIT:      24808  MISS:          0
LLC TOTAL     ACCESS:    2695425  HIT:    1108846  MISS:    1586579
LLC LOAD      ACCESS:    2653433  HIT:    1067892  MISS:    1585541
LLC RFO       ACCESS:       1872  HIT:        884  MISS:        988
LLC PREFETCH  ACCESS:          0  HIT:          0  MISS:          0
LLC WRITEBACK ACCESS:      20806  HIT:      20781  MISS:         25
Heartbeat CPU 0 instructions: 78000000 cycles: 368840399 heartbeat IPC: 0.0606945 cumulative IPC: 0.0792469 (Simulation time: 1 hr 39 min 0 sec) 

Region of Interest Statistics
cpu0_DTLB TOTAL     ACCESS:    5873466  HIT:    1841648  MISS:    4031818
cpu0_DTLB LOAD      ACCESS:    5809303  HIT:    1781014  MISS:    4028289
cpu0_DTLB RFO       ACCESS:      64163  HIT:      60634  MISS:       3529
cpu0_DTLB PREFETCH  ACCESS:          0  HIT:          0  MISS:          0
cpu0_DTLB WRITEBACK ACCESS:          0  HIT:          0  MISS:          0
cpu0_ITLB TOTAL     ACCESS:    3152168  HIT:    3152167  MISS:          1
cpu0_ITLB LOAD      ACCESS:    3152168  HIT:    3152167  MISS:          1
cpu0_ITLB RFO       ACCESS:          0  HIT:          0  MISS:          0
cpu0_ITLB PREFETCH  ACCESS:          0  HIT:          0  MISS:          0
cpu0_ITLB WRITEBACK ACCESS:          0  HIT:          0  MISS:          0
cpu0_L1I TOTAL     ACCESS:         17  HIT:         14  MISS:          3
cpu0_L1I LOAD      ACCESS:         17  HIT:         14  MISS:          3
cpu0_L1I RFO       ACCESS:          0  HIT:          0  MISS:          0
cpu0_L1I PREFETCH  ACCESS:          0  HIT:          0  MISS:          0
cpu0_L1I WRITEBACK ACCESS:          0  HIT:          0  MISS:          0
cpu0_STLB TOTAL     ACCESS:    4031819  HIT:    3931295  MISS:     100524
cpu0_STLB LOAD      ACCESS:    4028290  HIT:    3927957  MISS:     100333
cpu0_STLB RFO       ACCESS:       3529  HIT:       3338  MISS:        191
cpu0_STLB PREFETCH  ACCESS:          0  HIT:          0  MISS:          0
cpu0_STLB WRITEBACK ACCESS:          0  HIT:          0  MISS:          0
cpu0_L1D TOTAL     ACCESS:    5990624  HIT:    2024730  MISS:    3965894
cpu0_L1D LOAD      ACCESS:    5818875  HIT:    1886730  MISS:    3932145
cpu0_L1D RFO       ACCESS:      71375  HIT:      65069  MISS:       6306
cpu0_L1D PREFETCH  ACCESS:          0  HIT:          0  MISS:          0
cpu0_L1D WRITEBACK ACCESS:          0  HIT:          0  MISS:          0
cpu0_L2C TOTAL     ACCESS:    4025103  HIT:    1121748  MISS:    2903355
cpu0_L2C LOAD      ACCESS:    3932146  HIT:    1054205  MISS:    2877941
cpu0_L2C RFO       ACCESS:       6306  HIT:       1469  MISS:       4837
cpu0_L2C PREFETCH  ACCESS:          0  HIT:          0  MISS:          0
cpu0_L2C WRITEBACK ACCESS:      59208  HIT:      59208  MISS:          0
LLC TOTAL     ACCESS:    2961188  HIT:    1202007  MISS:    1759181
LLC LOAD      ACCESS:    2877941  HIT:    1121806  MISS:    1756135
LLC RFO       ACCESS:       4837  HIT:       1905  MISS:       2932
LLC PREFETCH  ACCESS:          0  HIT:          0  MISS:          0
LLC WRITEBACK ACCESS:      57833  HIT:      57807  MISS:         26
Heartbeat CPU 0 instructions: 80000004 cycles: 393643191 heartbeat IPC: 0.0806362 cumulative IPC: 0.0793381 (Simulation time: 1 hr 44 min 17 sec) 

Region of Interest Statistics
cpu0_DTLB TOTAL     ACCESS:    6289264  HIT:    1961599  MISS:    4327665
cpu0_DTLB LOAD      ACCESS:    6225099  HIT:    1900965  MISS:    4324134
cpu0_DTLB RFO       ACCESS:      64165  HIT:      60634  MISS:       3531
cpu0_DTLB PREFETCH  ACCESS:          0  HIT:          0  MISS:          0
cpu0_DTLB WRITEBACK ACCESS:          0  HIT:          0  MISS:          0
cpu0_ITLB TOTAL     ACCESS:    3374395  HIT:    3374394  MISS:          1
cpu0_ITLB LOAD      ACCESS:    3374395  HIT:    3374394  MISS:          1
cpu0_ITLB RFO       ACCESS:          0  HIT:          0  MISS:          0
cpu0_ITLB PREFETCH  ACCESS:          0  HIT:          0  MISS:          0
cpu0_ITLB WRITEBACK ACCESS:          0  HIT:          0  MISS:          0
cpu0_L1I TOTAL     ACCESS:         17  HIT:         14  MISS:          3
cpu0_L1I LOAD      ACCESS:         17  HIT:         14  MISS:          3
cpu0_L1I RFO       ACCESS:          0  HIT:          0  MISS:          0
cpu0_L1I PREFETCH  ACCESS:          0  HIT:          0  MISS:          0
cpu0_L1I WRITEBACK ACCESS:          0  HIT:          0  MISS:          0
cpu0_STLB TOTAL     ACCESS:    4327666  HIT:    4222444  MISS:     105222
cpu0_STLB LOAD      ACCESS:    4324135  HIT:    4219106  MISS:     105029
cpu0_STLB RFO       ACCESS:       3531  HIT:       3338  MISS:        193
cpu0_STLB PREFETCH  ACCESS:          0  HIT:          0  MISS:          0
cpu0_STLB WRITEBACK ACCESS:          0  HIT:          0  MISS:          0
cpu0_L1D TOTAL     ACCESS:    6410119  HIT:    2155163  MISS:    4254956
cpu0_L1D LOAD      ACCESS:    6233669  HIT:    2014137  MISS:    4219532
cpu0_L1D RFO       ACCESS:      71378  HIT:      65069  MISS:       6309
cpu0_L1D PREFETCH  ACCESS:          0  HIT:          0  MISS:          0
cpu0_L1D WRITEBACK ACCESS:          0  HIT:          0  MISS:          0
cpu0_L2C TOTAL     ACCESS:    4314168  HIT:    1202382  MISS:    3111786
cpu0_L2C LOAD      ACCESS:    4219533  HIT:    1134669  MISS:    3084864
cpu0_L2C RFO       ACCESS:       6309  HIT:       1469  MISS:       4840
cpu0_L2C PREFETCH  ACCESS:          0  HIT:          0  MISS:          0
cpu0_L2C WRITEBACK ACCESS:      59211  HIT:      59211  MISS:          0
LLC TOTAL     ACCESS:    3169628  HIT:    1289373  MISS:    1880255
LLC LOAD      ACCESS:    3084864  HIT:    1207666  MISS:    1877198
LLC RFO       ACCESS:       4840  HIT:       1905  MISS:       2935
LLC PREFETCH  ACCESS:          0  HIT:          0  MISS:          0
LLC WRITEBACK ACCESS:      57842  HIT:      57810  MISS:         32
Heartbeat CPU 0 instructions: 82000002 cycles: 418216096 heartbeat IPC: 0.0813904 cumulative IPC: 0.0794633 (Simulation time: 1 hr 49 min 28 sec) 

Region of Interest Statistics
cpu0_DTLB TOTAL     ACCESS:    6705167  HIT:    2083408  MISS:    4621759
cpu0_DTLB LOAD      ACCESS:    6640376  HIT:    2022300  MISS:    4618076
cpu0_DTLB RFO       ACCESS:      64791  HIT:      61108  MISS:       3683
cpu0_DTLB PREFETCH  ACCESS:          0  HIT:          0  MISS:          0
cpu0_DTLB WRITEBACK ACCESS:          0  HIT:          0  MISS:          0
cpu0_ITLB TOTAL     ACCESS:    3595902  HIT:    3595901  MISS:          1
cpu0_ITLB LOAD      ACCESS:    3595902  HIT:    3595901  MISS:          1
cpu0_ITLB RFO       ACCESS:          0  HIT:          0  MISS:          0
cpu0_ITLB PREFETCH  ACCESS:          0  HIT:          0  MISS:          0
cpu0_ITLB WRITEBACK ACCESS:          0  HIT:          0  MISS:          0
cpu0_L1I TOTAL     ACCESS:         17  HIT:         14  MISS:          3
cpu0_L1I LOAD      ACCESS:         17  HIT:         14  MISS:          3
cpu0_L1I RFO       ACCESS:          0  HIT:          0  MISS:          0
cpu0_L1I PREFETCH  ACCESS:          0  HIT:          0  MISS:          0
cpu0_L1I WRITEBACK ACCESS:          0  HIT:          0  MISS:          0
cpu0_STLB TOTAL     ACCESS:    4621760  HIT:    4511545  MISS:     110215
cpu0_STLB LOAD      ACCESS:    4618077  HIT:    4508068  MISS:     110009
cpu0_STLB RFO       ACCESS:       3683  HIT:       3477  MISS:        206
cpu0_STLB PREFETCH  ACCESS:          0  HIT:          0  MISS:          0
cpu0_STLB WRITEBACK ACCESS:          0  HIT:          0  MISS:          0
cpu0_L1D TOTAL     ACCESS:    6831065  HIT:    2287661  MISS:    4543404
cpu0_L1D LOAD      ACCESS:    6648615  HIT:    2142378  MISS:    4506237
cpu0_L1D RFO       ACCESS:      72388  HIT:      66050  MISS:       6338
cpu0_L1D PREFETCH  ACCESS:          0  HIT:          0  MISS:          0
cpu0_L1D WRITEBACK ACCESS:          0  HIT:          0  MISS:          0
cpu0_L2C TOTAL     ACCESS:    4602999  HIT:    1283397  MISS:    3319602
cpu0_L2C LOAD      ACCESS:    4506238  HIT:    1215065  MISS:    3291173
cpu0_L2C RFO       ACCESS:       6338  HIT:       1471  MISS:       4867
cpu0_L2C PREFETCH  ACCESS:          0  HIT:          0  MISS:          0
cpu0_L2C WRITEBACK ACCESS:      59594  HIT:      59594  MISS:          0
LLC TOTAL     ACCESS:    3377826  HIT:    1376954  MISS:    2000872
LLC LOAD      ACCESS:    3291173  HIT:    1293379  MISS:    1997794
LLC RFO       ACCESS:       4867  HIT:       1914  MISS:       2953
LLC PREFETCH  ACCESS:          0  HIT:          0  MISS:          0
LLC WRITEBACK ACCESS:      58224  HIT:      58191  MISS:         33
Heartbeat CPU 0 instructions: 84000000 cycles: 442710047 heartbeat IPC: 0.0816527 cumulative IPC: 0.0795888 (Simulation time: 1 hr 54 min 35 sec) 

Region of Interest Statistics
cpu0_DTLB TOTAL     ACCESS:    7120659  HIT:    2205287  MISS:    4915372
cpu0_DTLB LOAD      ACCESS:    7055138  HIT:    2143501  MISS:    4911637
cpu0_DTLB RFO       ACCESS:      65521  HIT:      61786  MISS:       3735
cpu0_DTLB PREFETCH  ACCESS:          0  HIT:          0  MISS:          0
cpu0_DTLB WRITEBACK ACCESS:          0  HIT:          0  MISS:          0
cpu0_ITLB TOTAL     ACCESS:    3816985  HIT:    3816984  MISS:          1
cpu0_ITLB LOAD      ACCESS:    3816985  HIT:    3816984  MISS:          1
cpu0_ITLB RFO       ACCESS:          0  HIT:          0  MISS:          0
cpu0_ITLB PREFETCH  ACCESS:          0  HIT:          0  MISS:          0
cpu0_ITLB WRITEBACK ACCESS:          0  HIT:          0  MISS:          0
cpu0_L1I TOTAL     ACCESS:         17  HIT:         14  MISS:          3
cpu0_L1I LOAD      ACCESS:         17  HIT:         14  MISS:          3
cpu0_L1I RFO       ACCESS:          0  HIT:          0  MISS:          0
cpu0_L1I PREFETCH  ACCESS:          0  HIT:          0  MISS:          0
cpu0_L1I WRITEBACK ACCESS:          0  HIT:          0  MISS:          0
cpu0_STLB TOTAL     ACCESS:    4915373  HIT:    4800028  MISS:     115345
cpu0_STLB LOAD      ACCESS:    4911638  HIT:    4796514  MISS:     115124
cpu0_STLB RFO       ACCESS:       3735  HIT:       3514  MISS:        221
cpu0_STLB PREFETCH  ACCESS:          0  HIT:          0  MISS:          0
cpu0_STLB WRITEBACK ACCESS:          0  HIT:          0  MISS:          0
cpu0_L1D TOTAL     ACCESS:    7251800  HIT:    2420015  MISS:    4831785
cpu0_L1D LOAD      ACCESS:    7062926  HIT:    2270071  MISS:    4792855
cpu0_L1D RFO       ACCESS:      73690  HIT:      67316  MISS:       6374
cpu0_L1D PREFETCH  ACCESS:          0  HIT:          0  MISS:          0
cpu0_L1D WRITEBACK ACCESS:          0  HIT:          0  MISS:          0
cpu0_L2C TOTAL     ACCESS:    4891755  HIT:    1364169  MISS:    3527586
cpu0_L2C LOAD      ACCESS:    4792856  HIT:    1295235  MISS:    3497621
cpu0_L2C RFO       ACCESS:       6374  HIT:       1471  MISS:       4903
cpu0_L2C PREFETCH  ACCESS:          0  HIT:          0  MISS:          0
cpu0_L2C WRITEBACK ACCESS:      59969  HIT:      59969  MISS:          0
LLC TOTAL     ACCESS:    3586180  HIT:    1464632  MISS:    2121548
LLC LOAD      ACCESS:    3497621  HIT:    1379171  MISS:    2118450
LLC RFO       ACCESS:       4903  HIT:       1932  MISS:       2971
LLC PREFETCH  ACCESS:          0  HIT:          0  MISS:          0
LLC WRITEBACK ACCESS:      58594  HIT:      58561  MISS:         33
Heartbeat CPU 0 instructions: 86000004 cycles: 467051613 heartbeat IPC: 0.0821641 cumulative IPC: 0.0797277 (Simulation time: 1 hr 59 min 27 sec) 

Region of Interest Statistics
cpu0_DTLB TOTAL     ACCESS:    7536414  HIT:    2326974  MISS:    5209440
cpu0_DTLB LOAD      ACCESS:    7470371  HIT:    2264705  MISS:    5205666
cpu0_DTLB RFO       ACCESS:      66043  HIT:      62269  MISS:       3774
cpu0_DTLB PREFETCH  ACCESS:          0  HIT:          0  MISS:          0
cpu0_DTLB WRITEBACK ACCESS:          0  HIT:          0  MISS:          0
cpu0_ITLB TOTAL     ACCESS:    4037548  HIT:    4037547  MISS:          1
cpu0_ITLB LOAD      ACCESS:    4037548  HIT:    4037547  MISS:          1
cpu0_ITLB RFO       ACCESS:          0  HIT:          0  MISS:          0
cpu0_ITLB PREFETCH  ACCESS:          0  HIT:          0  MISS:          0
cpu0_ITLB WRITEBACK ACCESS:          0  HIT:          0  MISS:          0
cpu0_L1I TOTAL     ACCESS:         17  HIT:         14  MISS:          3
cpu0_L1I LOAD      ACCESS:         17  HIT:         14  MISS:          3
cpu0_L1I RFO       ACCESS:          0  HIT:          0  MISS:          0
cpu0_L1I PREFETCH  ACCESS:          0  HIT:          0  MISS:          0
cpu0_L1I WRITEBACK ACCESS:          0  HIT:          0  MISS:          0
cpu0_STLB TOTAL     ACCESS:    5209441  HIT:    5089065  MISS:     120376
cpu0_STLB LOAD      ACCESS:    5205667  HIT:    5085521  MISS:     120146
cpu0_STLB RFO       ACCESS:       3774  HIT:       3544  MISS:        230
cpu0_STLB PREFETCH  ACCESS:          0  HIT:          0  MISS:          0
cpu0_STLB WRITEBACK ACCESS:          0  HIT:          0  MISS:          0
cpu0_L1D TOTAL     ACCESS:    7672106  HIT:    2551364  MISS:    5120742
cpu0_L1D LOAD      ACCESS:    7477301  HIT:    2397210  MISS:    5080091
cpu0_L1D RFO       ACCESS:      74590  HIT:      68192  MISS:       6398
cpu0_L1D PREFETCH  ACCESS:          0  HIT:          0  MISS:          0
cpu0_L1D WRITEBACK ACCESS:          0  HIT:          0  MISS:          0
cpu0_L2C TOTAL     ACCESS:    5180991  HIT:    1446233  MISS:    3734758
cpu0_L2C LOAD      ACCESS:    5080092  HIT:    1376815  MISS:    3703277
cpu0_L2C RFO       ACCESS:       6398  HIT:       1480  MISS:       4918
cpu0_L2C PREFETCH  ACCESS:          0  HIT:          0  MISS:          0
cpu0_L2C WRITEBACK ACCESS:      60248  HIT:      60248  MISS:          0
LLC TOTAL     ACCESS:    3793545  HIT:    1551002  MISS:    2242543
LLC LOAD      ACCESS:    3703277  HIT:    1463850  MISS:    2239427
LLC RFO       ACCESS:       4918  HIT:       1933  MISS:       2985
LLC PREFETCH  ACCESS:          0  HIT:          0  MISS:          0
LLC WRITEBACK ACCESS:      58787  HIT:      58754  MISS:         33
Heartbeat CPU 0 instructions: 88000001 cycles: 490571084 heartbeat IPC: 0.0850358 cumulative IPC: 0.0799905 (Simulation time: 2 hr 4 min 11 sec) 

Region of Interest Statistics
cpu0_DTLB TOTAL     ACCESS:    7953886  HIT:    2461319  MISS:    5492567
cpu0_DTLB LOAD      ACCESS:    7883150  HIT:    2394992  MISS:    5488158
cpu0_DTLB RFO       ACCESS:      70736  HIT:      66327  MISS:       4409
cpu0_DTLB PREFETCH  ACCESS:          0  HIT:          0  MISS:          0
cpu0_DTLB WRITEBACK ACCESS:          0  HIT:          0  MISS:          0
cpu0_ITLB TOTAL     ACCESS:    4258790  HIT:    4258789  MISS:          1
cpu0_ITLB LOAD      ACCESS:    4258790  HIT:    4258789  MISS:          1
cpu0_ITLB RFO       ACCESS:          0  HIT:          0  MISS:          0
cpu0_ITLB PREFETCH  ACCESS:          0  HIT:          0  MISS:          0
cpu0_ITLB WRITEBACK ACCESS:          0  HIT:          0  MISS:          0
cpu0_L1I TOTAL     ACCESS:         17  HIT:         14  MISS:          3
cpu0_L1I LOAD      ACCESS:         17  HIT:         14  MISS:          3
cpu0_L1I RFO       ACCESS:          0  HIT:          0  MISS:          0
cpu0_L1I PREFETCH  ACCESS:          0  HIT:          0  MISS:          0
cpu0_L1I WRITEBACK ACCESS:          0  HIT:          0  MISS:          0
cpu0_STLB TOTAL     ACCESS:    5492568  HIT:    5366716  MISS:     125852
cpu0_STLB LOAD      ACCESS:    5488159  HIT:    5362578  MISS:     125581
cpu0_STLB RFO       ACCESS:       4409  HIT:       4138  MISS:        271
cpu0_STLB PREFETCH  ACCESS:          0  HIT:          0  MISS:          0
cpu0_STLB WRITEBACK ACCESS:          0  HIT:          0  MISS:          0
cpu0_L1D TOTAL     ACCESS:    8101857  HIT:    2699261  MISS:    5402596
cpu0_L1D LOAD      ACCESS:    7893610  HIT:    2533576  MISS:    5360034
cpu0_L1D RFO       ACCESS:      82566  HIT:      75970  MISS:       6596
cpu0_L1D PREFETCH  ACCESS:          0  HIT:          0  MISS:          0
cpu0_L1D WRITEBACK ACCESS:          0  HIT:          0  MISS:          0
cpu0_L2C TOTAL     ACCESS:    5465309  HIT:    1530338  MISS:    3934971
cpu0_L2C LOAD      ACCESS:    5360035  HIT:    1458019  MISS:    3902016
cpu0_L2C RFO       ACCESS:       6596  HIT:       1584  MISS:       5012
cpu0_L2C PREFETCH  ACCESS:          0  HIT:          0  MISS:          0
cpu0_L2C WRITEBACK ACCESS:      62712  HIT:      62712  MISS:          0
LLC TOTAL     ACCESS:    3994956  HIT:    1636811  MISS:    2358145
LLC LOAD      ACCESS:    3902016  HIT:    1547031  MISS:    2354985
LLC RFO       ACCESS:       5012  HIT:       1987  MISS:       3025
LLC PREFETCH  ACCESS:          0  HIT:          0  MISS:          0
LLC WRITEBACK ACCESS:      59985  HIT:      59950  MISS:         35
Heartbeat CPU 0 instructions: 90000000 cycles: 514800920 heartbeat IPC: 0.0825428 cumulative IPC: 0.0801143 (Simulation time: 2 hr 9 min 8 sec) 

Region of Interest Statistics
cpu0_DTLB TOTAL     ACCESS:    8369255  HIT:    2584443  MISS:    5784812
cpu0_DTLB LOAD      ACCESS:    8297574  HIT:    2517210  MISS:    5780364
cpu0_DTLB RFO       ACCESS:      71681  HIT:      67233  MISS:       4448
cpu0_DTLB PREFETCH  ACCESS:          0  HIT:          0  MISS:          0
cpu0_DTLB WRITEBACK ACCESS:          0  HIT:          0  MISS:          0
cpu0_ITLB TOTAL     ACCESS:    4479242  HIT:    4479241  MISS:          1
cpu0_ITLB LOAD      ACCESS:    4479242  HIT:    4479241  MISS:          1
cpu0_ITLB RFO       ACCESS:          0  HIT:          0  MISS:          0
cpu0_ITLB PREFETCH  ACCESS:          0  HIT:          0  MISS:          0
cpu0_ITLB WRITEBACK ACCESS:          0  HIT:          0  MISS:          0
cpu0_L1I TOTAL     ACCESS:         17  HIT:         14  MISS:          3
cpu0_L1I LOAD      ACCESS:         17  HIT:         14  MISS:          3
cpu0_L1I RFO       ACCESS:          0  HIT:          0  MISS:          0
cpu0_L1I PREFETCH  ACCESS:          0  HIT:          0  MISS:          0
cpu0_L1I WRITEBACK ACCESS:          0  HIT:          0  MISS:          0
cpu0_STLB TOTAL     ACCESS:    5784813  HIT:    5653826  MISS:     130987
cpu0_STLB LOAD      ACCESS:    5780365  HIT:    5649667  MISS:     130698
cpu0_STLB RFO       ACCESS:       4448  HIT:       4159  MISS:        289
cpu0_STLB PREFETCH  ACCESS:          0  HIT:          0  MISS:          0
cpu0_STLB WRITEBACK ACCESS:          0  HIT:          0  MISS:          0
cpu0_L1D TOTAL     ACCESS:    8522545  HIT:    2832180  MISS:    5690365
cpu0_L1D LOAD      ACCESS:    8307342  HIT:    2661289  MISS:    5646053
cpu0_L1D RFO       ACCESS:      84392  HIT:      77741  MISS:       6651
cpu0_L1D PREFETCH  ACCESS:          0  HIT:          0  MISS:          0
cpu0_L1D WRITEBACK ACCESS:          0  HIT:          0  MISS:          0
cpu0_L2C TOTAL     ACCESS:    5753494  HIT:    1612092  MISS:    4141402
cpu0_L2C LOAD      ACCESS:    5646054  HIT:    1539132  MISS:    4106922
cpu0_L2C RFO       ACCESS:       6651  HIT:       1584  MISS:       5067
cpu0_L2C PREFETCH  ACCESS:          0  HIT:          0  MISS:          0
cpu0_L2C WRITEBACK ACCESS:      63128  HIT:      63128  MISS:          0
LLC TOTAL     ACCESS:    4201714  HIT:    1723309  MISS:    2478405
LLC LOAD      ACCESS:    4106922  HIT:    1631703  MISS:    2475219
LLC RFO       ACCESS:       5067  HIT:       2020  MISS:       3047
LLC PREFETCH  ACCESS:          0  HIT:          0  MISS:          0
LLC WRITEBACK ACCESS:      60312  HIT:      60276  MISS:         36
Heartbeat CPU 0 instructions: 92000001 cycles: 538663005 heartbeat IPC: 0.083815 cumulative IPC: 0.0802831 (Simulation time: 2 hr 14 min 1 sec) 

Region of Interest Statistics
cpu0_DTLB TOTAL     ACCESS:    8785189  HIT:    2711913  MISS:    6073276
cpu0_DTLB LOAD      ACCESS:    8710697  HIT:    2642528  MISS:    6068169
cpu0_DTLB RFO       ACCESS:      74492  HIT:      69385  MISS:       5107
cpu0_DTLB PREFETCH  ACCESS:          0  HIT:          0  MISS:          0
cpu0_DTLB WRITEBACK ACCESS:          0  HIT:          0  MISS:          0
cpu0_ITLB TOTAL     ACCESS:    4698576  HIT:    4698575  MISS:          1
cpu0_ITLB LOAD      ACCESS:    4698576  HIT:    4698575  MISS:          1
cpu0_ITLB RFO       ACCESS:          0  HIT:          0  MISS:          0
cpu0_ITLB PREFETCH  ACCESS:          0  HIT:          0  MISS:          0
cpu0_ITLB WRITEBACK ACCESS:          0  HIT:          0  MISS:          0
cpu0_L1I TOTAL     ACCESS:         17  HIT:         14  MISS:          3
cpu0_L1I LOAD      ACCESS:         17  HIT:         14  MISS:          3
cpu0_L1I RFO       ACCESS:          0  HIT:          0  MISS:          0
cpu0_L1I PREFETCH  ACCESS:          0  HIT:          0  MISS:          0
cpu0_L1I WRITEBACK ACCESS:          0  HIT:          0  MISS:          0
cpu0_STLB TOTAL     ACCESS:    6073277  HIT:    5937034  MISS:     136243
cpu0_STLB LOAD      ACCESS:    6068170  HIT:    5932244  MISS:     135926
cpu0_STLB RFO       ACCESS:       5107  HIT:       4790  MISS:        317
cpu0_STLB PREFETCH  ACCESS:          0  HIT:          0  MISS:          0
cpu0_STLB WRITEBACK ACCESS:          0  HIT:          0  MISS:          0
cpu0_L1D TOTAL     ACCESS:    8947797  HIT:    2971836  MISS:    5975961
cpu0_L1D LOAD      ACCESS:    8722751  HIT:    2792898  MISS:    5929853
cpu0_L1D RFO       ACCESS:      88987  HIT:      82238  MISS:       6749
cpu0_L1D PREFETCH  ACCESS:          0  HIT:          0  MISS:          0
cpu0_L1D WRITEBACK ACCESS:          0  HIT:          0  MISS:          0
cpu0_L2C TOTAL     ACCESS:    6040718  HIT:    1694140  MISS:    4346578
cpu0_L2C LOAD      ACCESS:    5929854  HIT:    1619303  MISS:    4310551
cpu0_L2C RFO       ACCESS:       6749  HIT:       1605  MISS:       5144
cpu0_L2C PREFETCH  ACCESS:          0  HIT:          0  MISS:          0
cpu0_L2C WRITEBACK ACCESS:      64756  HIT:      64756  MISS:          0
LLC TOTAL     ACCESS:    4408364  HIT:    1811227  MISS:    2597137
LLC LOAD      ACCESS:    4310551  HIT:    1716619  MISS:    2593932
LLC RFO       ACCESS:       5144  HIT:       2079  MISS:       3065
LLC PREFETCH  ACCESS:          0  HIT:          0  MISS:          0
LLC WRITEBACK ACCESS:      61786  HIT:      61750  MISS:         36
Heartbeat CPU 0 instructions: 94000000 cycles: 562857325 heartbeat IPC: 0.082664 cumulative IPC: 0.0803884 (Simulation time: 2 hr 19 min 14 sec) 

Region of Interest Statistics
cpu0_DTLB TOTAL     ACCESS:    9199747  HIT:    2832610  MISS:    6367137
cpu0_DTLB LOAD      ACCESS:    9124890  HIT:    2762964  MISS:    6361926
cpu0_DTLB RFO       ACCESS:      74857  HIT:      69646  MISS:       5211
cpu0_DTLB PREFETCH  ACCESS:          0  HIT:          0  MISS:          0
cpu0_DTLB WRITEBACK ACCESS:          0  HIT:          0  MISS:          0
cpu0_ITLB TOTAL     ACCESS:    4917704  HIT:    4917703  MISS:          1
cpu0_ITLB LOAD      ACCESS:    4917704  HIT:    4917703  MISS:          1
cpu0_ITLB RFO       ACCESS:          0  HIT:          0  MISS:          0
cpu0_ITLB PREFETCH  ACCESS:          0  HIT:          0  MISS:          0
cpu0_ITLB WRITEBACK ACCESS:          0  HIT:          0  MISS:          0
cpu0_L1I TOTAL     ACCESS:         17  HIT:         14  MISS:          3
cpu0_L1I LOAD      ACCESS:         17  HIT:         14  MISS:          3
cpu0_L1I RFO       ACCESS:          0  HIT:          0  MISS:          0
cpu0_L1I PREFETCH  ACCESS:          0  HIT:          0  MISS:          0
cpu0_L1I WRITEBACK ACCESS:          0  HIT:          0  MISS:          0
cpu0_STLB TOTAL     ACCESS:    6367138  HIT:    6225945  MISS:     141193
cpu0_STLB LOAD      ACCESS:    6361927  HIT:    6221059  MISS:     140868
cpu0_STLB RFO       ACCESS:       5211  HIT:       4886  MISS:        325
cpu0_STLB PREFETCH  ACCESS:          0  HIT:          0  MISS:          0
cpu0_STLB WRITEBACK ACCESS:          0  HIT:          0  MISS:          0
cpu0_L1D TOTAL     ACCESS:    9366930  HIT:    3101816  MISS:    6265114
cpu0_L1D LOAD      ACCESS:    9136365  HIT:    2919057  MISS:    6217308
cpu0_L1D RFO       ACCESS:      89558  HIT:      82792  MISS:       6766
cpu0_L1D PREFETCH  ACCESS:          0  HIT:          0  MISS:          0
cpu0_L1D WRITEBACK ACCESS:          0  HIT:          0  MISS:          0
cpu0_L2C TOTAL     ACCESS:    6330091  HIT:    1775592  MISS:    4554499
cpu0_L2C LOAD      ACCESS:    6217309  HIT:    1700388  MISS:    4516921
cpu0_L2C RFO       ACCESS:       6766  HIT:       1607  MISS:       5159
cpu0_L2C PREFETCH  ACCESS:          0  HIT:          0  MISS:          0
cpu0_L2C WRITEBACK ACCESS:      64976  HIT:      64976  MISS:          0
LLC TOTAL     ACCESS:    4616508  HIT:    1898531  MISS:    2717977
LLC LOAD      ACCESS:    4516921  HIT:    1802153  MISS:    2714768
LLC RFO       ACCESS:       5159  HIT:       2091  MISS:       3068
LLC PREFETCH  ACCESS:          0  HIT:          0  MISS:          0
LLC WRITEBACK ACCESS:      62009  HIT:      61973  MISS:         36
Heartbeat CPU 0 instructions: 96000001 cycles: 587350008 heartbeat IPC: 0.0816571 cumulative IPC: 0.0804427 (Simulation time: 2 hr 24 min 37 sec) 

Region of Interest Statistics
cpu0_DTLB TOTAL     ACCESS:    9614941  HIT:    2952628  MISS:    6662313
cpu0_DTLB LOAD      ACCESS:    9540082  HIT:    2882982  MISS:    6657100
cpu0_DTLB RFO       ACCESS:      74859  HIT:      69646  MISS:       5213
cpu0_DTLB PREFETCH  ACCESS:          0  HIT:          0  MISS:          0
cpu0_DTLB WRITEBACK ACCESS:          0  HIT:          0  MISS:          0
cpu0_ITLB TOTAL     ACCESS:    5138241  HIT:    5138240  MISS:          1
cpu0_ITLB LOAD      ACCESS:    5138241  HIT:    5138240  MISS:          1
cpu0_ITLB RFO       ACCESS:          0  HIT:          0  MISS:          0
cpu0_ITLB PREFETCH  ACCESS:          0  HIT:          0  MISS:          0
cpu0_ITLB WRITEBACK ACCESS:          0  HIT:          0  MISS:          0
cpu0_L1I TOTAL     ACCESS:         17  HIT:         14  MISS:          3
cpu0_L1I LOAD      ACCESS:         17  HIT:         14  MISS:          3
cpu0_L1I RFO       ACCESS:          0  HIT:          0  MISS:          0
cpu0_L1I PREFETCH  ACCESS:          0  HIT:          0  MISS:          0
cpu0_L1I WRITEBACK ACCESS:          0  HIT:          0  MISS:          0
cpu0_STLB TOTAL     ACCESS:    6662314  HIT:    6516034  MISS:     146280
cpu0_STLB LOAD      ACCESS:    6657101  HIT:    6511147  MISS:     145954
cpu0_STLB RFO       ACCESS:       5213  HIT:       4887  MISS:        326
cpu0_STLB PREFETCH  ACCESS:          0  HIT:          0  MISS:          0
cpu0_STLB WRITEBACK ACCESS:          0  HIT:          0  MISS:          0
cpu0_L1D TOTAL     ACCESS:    9786268  HIT:    3229936  MISS:    6556332
cpu0_L1D LOAD      ACCESS:    9550614  HIT:    3043781  MISS:    6506833
cpu0_L1D RFO       ACCESS:      89560  HIT:      82792  MISS:       6768
cpu0_L1D PREFETCH  ACCESS:          0  HIT:          0  MISS:          0
cpu0_L1D WRITEBACK ACCESS:          0  HIT:          0  MISS:          0
cpu0_L2C TOTAL     ACCESS:    6621311  HIT:    1856943  MISS:    4764368
cpu0_L2C LOAD      ACCESS:    6506834  HIT:    1781546  MISS:    4725288
cpu0_L2C RFO       ACCESS:       6768  HIT:       1607  MISS:       5161
cpu0_L2C PREFETCH  ACCESS:          0  HIT:          0  MISS:          0
cpu0_L2C WRITEBACK ACCESS:      64978  HIT:      64978  MISS:          0
LLC TOTAL     ACCESS:    4826379  HIT:    1987056  MISS:    2839323
LLC LOAD      ACCESS:    4725288  HIT:    1889177  MISS:    2836111
LLC RFO       ACCESS:       5161  HIT:       2091  MISS:       3070
LLC PREFETCH  ACCESS:          0  HIT:          0  MISS:          0
LLC WRITEBACK ACCESS:      62011  HIT:      61975  MISS:         36
Heartbeat CPU 0 instructions: 98000003 cycles: 611837356 heartbeat IPC: 0.0816749 cumulative IPC: 0.0804933 (Simulation time: 2 hr 30 min 0 sec) 

Region of Interest Statistics
cpu0_DTLB TOTAL     ACCESS:   10029953  HIT:    3072619  MISS:    6957334
cpu0_DTLB LOAD      ACCESS:    9955092  HIT:    3002973  MISS:    6952119
cpu0_DTLB RFO       ACCESS:      74861  HIT:      69646  MISS:       5215
cpu0_DTLB PREFETCH  ACCESS:          0  HIT:          0  MISS:          0
cpu0_DTLB WRITEBACK ACCESS:          0  HIT:          0  MISS:          0
cpu0_ITLB TOTAL     ACCESS:    5358556  HIT:    5358555  MISS:          1
cpu0_ITLB LOAD      ACCESS:    5358556  HIT:    5358555  MISS:          1
cpu0_ITLB RFO       ACCESS:          0  HIT:          0  MISS:          0
cpu0_ITLB PREFETCH  ACCESS:          0  HIT:          0  MISS:          0
cpu0_ITLB WRITEBACK ACCESS:          0  HIT:          0  MISS:          0
cpu0_L1I TOTAL     ACCESS:         17  HIT:         14  MISS:          3
cpu0_L1I LOAD      ACCESS:         17  HIT:         14  MISS:          3
cpu0_L1I RFO       ACCESS:          0  HIT:          0  MISS:          0
cpu0_L1I PREFETCH  ACCESS:          0  HIT:          0  MISS:          0
cpu0_L1I WRITEBACK ACCESS:          0  HIT:          0  MISS:          0
cpu0_STLB TOTAL     ACCESS:    6957335  HIT:    6806170  MISS:     151165
cpu0_STLB LOAD      ACCESS:    6952120  HIT:    6801283  MISS:     150837
cpu0_STLB RFO       ACCESS:       5215  HIT:       4887  MISS:        328
cpu0_STLB PREFETCH  ACCESS:          0  HIT:          0  MISS:          0
cpu0_STLB WRITEBACK ACCESS:          0  HIT:          0  MISS:          0
cpu0_L1D TOTAL     ACCESS:   10205254  HIT:    3358186  MISS:    6847068
cpu0_L1D LOAD      ACCESS:    9964712  HIT:    3168826  MISS:    6795886
cpu0_L1D RFO       ACCESS:      89563  HIT:      82792  MISS:       6771
cpu0_L1D PREFETCH  ACCESS:          0  HIT:          0  MISS:          0
cpu0_L1D WRITEBACK ACCESS:          0  HIT:          0  MISS:          0
cpu0_L2C TOTAL     ACCESS:    6912050  HIT:    1937531  MISS:    4974519
cpu0_L2C LOAD      ACCESS:    6795887  HIT:    1861972  MISS:    4933915
cpu0_L2C RFO       ACCESS:       6771  HIT:       1607  MISS:       5164
cpu0_L2C PREFETCH  ACCESS:          0  HIT:          0  MISS:          0
cpu0_L2C WRITEBACK ACCESS:      64981  HIT:      64981  MISS:          0
LLC TOTAL     ACCESS:    5036531  HIT:    2075135  MISS:    2961396
LLC LOAD      ACCESS:    4933915  HIT:    1975735  MISS:    2958180
LLC RFO       ACCESS:       5164  HIT:       2091  MISS:       3073
LLC PREFETCH  ACCESS:          0  HIT:          0  MISS:          0
LLC WRITEBACK ACCESS:      62012  HIT:      61976  MISS:         36
Heartbeat CPU 0 instructions: 100000000 cycles: 636236464 heartbeat IPC: 0.0819701 cumulative IPC: 0.0805514 (Simulation time: 2 hr 35 min 25 sec) 

Region of Interest Statistics
cpu0_DTLB TOTAL     ACCESS:   10445154  HIT:    3193149  MISS:    7252005
cpu0_DTLB LOAD      ACCESS:   10370284  HIT:    3123503  MISS:    7246781
cpu0_DTLB RFO       ACCESS:      74870  HIT:      69646  MISS:       5224
cpu0_DTLB PREFETCH  ACCESS:          0  HIT:          0  MISS:          0
cpu0_DTLB WRITEBACK ACCESS:          0  HIT:          0  MISS:          0
cpu0_ITLB TOTAL     ACCESS:    5578877  HIT:    5578876  MISS:          1
cpu0_ITLB LOAD      ACCESS:    5578877  HIT:    5578876  MISS:          1
cpu0_ITLB RFO       ACCESS:          0  HIT:          0  MISS:          0
cpu0_ITLB PREFETCH  ACCESS:          0  HIT:          0  MISS:          0
cpu0_ITLB WRITEBACK ACCESS:          0  HIT:          0  MISS:          0
cpu0_L1I TOTAL     ACCESS:         17  HIT:         14  MISS:          3
cpu0_L1I LOAD      ACCESS:         17  HIT:         14  MISS:          3
cpu0_L1I RFO       ACCESS:          0  HIT:          0  MISS:          0
cpu0_L1I PREFETCH  ACCESS:          0  HIT:          0  MISS:          0
cpu0_L1I WRITEBACK ACCESS:          0  HIT:          0  MISS:          0
cpu0_STLB TOTAL     ACCESS:    7252006  HIT:    7095712  MISS:     156294
cpu0_STLB LOAD      ACCESS:    7246782  HIT:    7090822  MISS:     155960
cpu0_STLB RFO       ACCESS:       5224  HIT:       4890  MISS:        334
cpu0_STLB PREFETCH  ACCESS:          0  HIT:          0  MISS:          0
cpu0_STLB WRITEBACK ACCESS:          0  HIT:          0  MISS:          0
cpu0_L1D TOTAL     ACCESS:   10624521  HIT:    3486366  MISS:    7138155
cpu0_L1D LOAD      ACCESS:   10378839  HIT:    3293561  MISS:    7085278
cpu0_L1D RFO       ACCESS:      89574  HIT:      82792  MISS:       6782
cpu0_L1D PREFETCH  ACCESS:          0  HIT:          0  MISS:          0
cpu0_L1D WRITEBACK ACCESS:          0  HIT:          0  MISS:          0
cpu0_L2C TOTAL     ACCESS:    7203148  HIT:    2019133  MISS:    5184015
cpu0_L2C LOAD      ACCESS:    7085279  HIT:    1943387  MISS:    5141892
cpu0_L2C RFO       ACCESS:       6782  HIT:       1607  MISS:       5175
cpu0_L2C PREFETCH  ACCESS:          0  HIT:          0  MISS:          0
cpu0_L2C WRITEBACK ACCESS:      64992  HIT:      64992  MISS:          0
LLC TOTAL     ACCESS:    5246040  HIT:    2163788  MISS:    3082252
LLC LOAD      ACCESS:    5141892  HIT:    2062868  MISS:    3079024
LLC RFO       ACCESS:       5175  HIT:       2091  MISS:       3084
LLC PREFETCH  ACCESS:          0  HIT:          0  MISS:          0
LLC WRITEBACK ACCESS:      62025  HIT:      61989  MISS:         36
Heartbeat CPU 0 instructions: 102000000 cycles: 660832658 heartbeat IPC: 0.0813134 cumulative IPC: 0.0805804 (Simulation time: 2 hr 40 min 44 sec) 

Region of Interest Statistics
cpu0_DTLB TOTAL     ACCESS:   10860197  HIT:    3313233  MISS:    7546964
cpu0_DTLB LOAD      ACCESS:   10785324  HIT:    3243587  MISS:    7541737
cpu0_DTLB RFO       ACCESS:      74873  HIT:      69646  MISS:       5227
cpu0_DTLB PREFETCH  ACCESS:          0  HIT:          0  MISS:          0
cpu0_DTLB WRITEBACK ACCESS:          0  HIT:          0  MISS:          0
cpu0_ITLB TOTAL     ACCESS:    5799289  HIT:    5799288  MISS:          1
cpu0_ITLB LOAD      ACCESS:    5799289  HIT:    5799288  MISS:          1
cpu0_ITLB RFO       ACCESS:          0  HIT:          0  MISS:          0
cpu0_ITLB PREFETCH  ACCESS:          0  HIT:          0  MISS:          0
cpu0_ITLB WRITEBACK ACCESS:          0  HIT:          0  MISS:          0
cpu0_L1I TOTAL     ACCESS:         17  HIT:         14  MISS:          3
cpu0_L1I LOAD      ACCESS:         17  HIT:         14  MISS:          3
cpu0_L1I RFO       ACCESS:          0  HIT:          0  MISS:          0
cpu0_L1I PREFETCH  ACCESS:          0  HIT:          0  MISS:          0
cpu0_L1I WRITEBACK ACCESS:          0  HIT:          0  MISS:          0
cpu0_STLB TOTAL     ACCESS:    7546965  HIT:    7385693  MISS:     161272
cpu0_STLB LOAD      ACCESS:    7541738  HIT:    7380802  MISS:     160936
cpu0_STLB RFO       ACCESS:       5227  HIT:       4891  MISS:        336
cpu0_STLB PREFETCH  ACCESS:          0  HIT:          0  MISS:          0
cpu0_STLB WRITEBACK ACCESS:          0  HIT:          0  MISS:          0
cpu0_L1D TOTAL     ACCESS:   11043378  HIT:    3614456  MISS:    7428922
cpu0_L1D LOAD      ACCESS:   10792713  HIT:    3418338  MISS:    7374375
cpu0_L1D RFO       ACCESS:      89579  HIT:      82792  MISS:       6787
cpu0_L1D PREFETCH  ACCESS:          0  HIT:          0  MISS:          0
cpu0_L1D WRITEBACK ACCESS:          0  HIT:          0  MISS:          0
cpu0_L2C TOTAL     ACCESS:    7493920  HIT:    2100170  MISS:    5393750
cpu0_L2C LOAD      ACCESS:    7374376  HIT:    2024299  MISS:    5350077
cpu0_L2C RFO       ACCESS:       6787  HIT:       1607  MISS:       5180
cpu0_L2C PREFETCH  ACCESS:          0  HIT:          0  MISS:          0
cpu0_L2C WRITEBACK ACCESS:      64997  HIT:      64997  MISS:          0
LLC TOTAL     ACCESS:    5455780  HIT:    2251462  MISS:    3204318
LLC LOAD      ACCESS:    5350077  HIT:    2148992  MISS:    3201085
LLC RFO       ACCESS:       5180  HIT:       2091  MISS:       3089
LLC PREFETCH  ACCESS:          0  HIT:          0  MISS:          0
LLC WRITEBACK ACCESS:      62030  HIT:      61994  MISS:         36
Heartbeat CPU 0 instructions: 104000001 cycles: 685221251 heartbeat IPC: 0.0820056 cumulative IPC: 0.0806323 (Simulation time: 2 hr 45 min 52 sec) 

Region of Interest Statistics
cpu0_DTLB TOTAL     ACCESS:   11276528  HIT:    3437238  MISS:    7839290
cpu0_DTLB LOAD      ACCESS:   11200322  HIT:    3366585  MISS:    7833737
cpu0_DTLB RFO       ACCESS:      76206  HIT:      70653  MISS:       5553
cpu0_DTLB PREFETCH  ACCESS:          0  HIT:          0  MISS:          0
cpu0_DTLB WRITEBACK ACCESS:          0  HIT:          0  MISS:          0
cpu0_ITLB TOTAL     ACCESS:    6020784  HIT:    6020783  MISS:          1
cpu0_ITLB LOAD      ACCESS:    6020784  HIT:    6020783  MISS:          1
cpu0_ITLB RFO       ACCESS:          0  HIT:          0  MISS:          0
cpu0_ITLB PREFETCH  ACCESS:          0  HIT:          0  MISS:          0
cpu0_ITLB WRITEBACK ACCESS:          0  HIT:          0  MISS:          0
cpu0_L1I TOTAL     ACCESS:         17  HIT:         14  MISS:          3
cpu0_L1I LOAD      ACCESS:         17  HIT:         14  MISS:          3
cpu0_L1I RFO       ACCESS:          0  HIT:          0  MISS:          0
cpu0_L1I PREFETCH  ACCESS:          0  HIT:          0  MISS:          0
cpu0_L1I WRITEBACK ACCESS:          0  HIT:          0  MISS:          0
cpu0_STLB TOTAL     ACCESS:    7839291  HIT:    7672697  MISS:     166594
cpu0_STLB LOAD      ACCESS:    7833738  HIT:    7667495  MISS:     166243
cpu0_STLB RFO       ACCESS:       5553  HIT:       5202  MISS:        351
cpu0_STLB PREFETCH  ACCESS:          0  HIT:          0  MISS:          0
cpu0_STLB WRITEBACK ACCESS:          0  HIT:          0  MISS:          0
cpu0_L1D TOTAL     ACCESS:   11466567  HIT:    3748537  MISS:    7718030
cpu0_L1D LOAD      ACCESS:   11208454  HIT:    3546732  MISS:    7661722
cpu0_L1D RFO       ACCESS:      91710  HIT:      84878  MISS:       6832
cpu0_L1D PREFETCH  ACCESS:          0  HIT:          0  MISS:          0
cpu0_L1D WRITEBACK ACCESS:          0  HIT:          0  MISS:          0
cpu0_L2C TOTAL     ACCESS:    7783834  HIT:    2181159  MISS:    5602675
cpu0_L2C LOAD      ACCESS:    7661723  HIT:    2104299  MISS:    5557424
cpu0_L2C RFO       ACCESS:       6832  HIT:       1618  MISS:       5214
cpu0_L2C PREFETCH  ACCESS:          0  HIT:          0  MISS:          0
cpu0_L2C WRITEBACK ACCESS:      65803  HIT:      65803  MISS:          0
LLC TOTAL     ACCESS:    5665395  HIT:    2340710  MISS:    3324685
LLC LOAD      ACCESS:    5557424  HIT:    2235993  MISS:    3321431
LLC RFO       ACCESS:       5214  HIT:       2106  MISS:       3108
LLC PREFETCH  ACCESS:          0  HIT:          0  MISS:          0
LLC WRITEBACK ACCESS:      62720  HIT:      62684  MISS:         36
Heartbeat CPU 0 instructions: 106000000 cycles: 709916634 heartbeat IPC: 0.0809868 cumulative IPC: 0.0806449 (Simulation time: 2 hr 51 min 10 sec) 

Region of Interest Statistics
cpu0_DTLB TOTAL     ACCESS:   11692084  HIT:    3558328  MISS:    8133756
cpu0_DTLB LOAD      ACCESS:   11615571  HIT:    3487445  MISS:    8128126
cpu0_DTLB RFO       ACCESS:      76513  HIT:      70883  MISS:       5630
cpu0_DTLB PREFETCH  ACCESS:          0  HIT:          0  MISS:          0
cpu0_DTLB WRITEBACK ACCESS:          0  HIT:          0  MISS:          0
cpu0_ITLB TOTAL     ACCESS:    6242199  HIT:    6242198  MISS:          1
cpu0_ITLB LOAD      ACCESS:    6242199  HIT:    6242198  MISS:          1
cpu0_ITLB RFO       ACCESS:          0  HIT:          0  MISS:          0
cpu0_ITLB PREFETCH  ACCESS:          0  HIT:          0  MISS:          0
cpu0_ITLB WRITEBACK ACCESS:          0  HIT:          0  MISS:          0
cpu0_L1I TOTAL     ACCESS:         17  HIT:         14  MISS:          3
cpu0_L1I LOAD      ACCESS:         17  HIT:         14  MISS:          3
cpu0_L1I RFO       ACCESS:          0  HIT:          0  MISS:          0
cpu0_L1I PREFETCH  ACCESS:          0  HIT:          0  MISS:          0
cpu0_L1I WRITEBACK ACCESS:          0  HIT:          0  MISS:          0
cpu0_STLB TOTAL     ACCESS:    8133757  HIT:    7962029  MISS:     171728
cpu0_STLB LOAD      ACCESS:    8128127  HIT:    7956755  MISS:     171372
cpu0_STLB RFO       ACCESS:       5630  HIT:       5274  MISS:        356
cpu0_STLB PREFETCH  ACCESS:          0  HIT:          0  MISS:          0
cpu0_STLB WRITEBACK ACCESS:          0  HIT:          0  MISS:          0
cpu0_L1D TOTAL     ACCESS:   11886973  HIT:    3877844  MISS:    8009129
cpu0_L1D LOAD      ACCESS:   11623232  HIT:    3672111  MISS:    7951121
cpu0_L1D RFO       ACCESS:      92206  HIT:      85361  MISS:       6845
cpu0_L1D PREFETCH  ACCESS:          0  HIT:          0  MISS:          0
cpu0_L1D WRITEBACK ACCESS:          0  HIT:          0  MISS:          0
cpu0_L2C TOTAL     ACCESS:    8075117  HIT:    2261468  MISS:    5813649
cpu0_L2C LOAD      ACCESS:    7951122  HIT:    2184272  MISS:    5766850
cpu0_L2C RFO       ACCESS:       6845  HIT:       1619  MISS:       5226
cpu0_L2C PREFETCH  ACCESS:          0  HIT:          0  MISS:          0
cpu0_L2C WRITEBACK ACCESS:      65987  HIT:      65987  MISS:          0
LLC TOTAL     ACCESS:    5876483  HIT:    2429960  MISS:    3446523
LLC LOAD      ACCESS:    5766850  HIT:    2323596  MISS:    3443254
LLC RFO       ACCESS:       5226  HIT:       2106  MISS:       3120
LLC PREFETCH  ACCESS:          0  HIT:          0  MISS:          0
LLC WRITEBACK ACCESS:      62834  HIT:      62798  MISS:         36
Heartbeat CPU 0 instructions: 108000000 cycles: 734437744 heartbeat IPC: 0.0815624 cumulative IPC: 0.0806762 (Simulation time: 2 hr 56 min 35 sec) 

Region of Interest Statistics
cpu0_DTLB TOTAL     ACCESS:   12107877  HIT:    3680136  MISS:    8427741
cpu0_DTLB LOAD      ACCESS:   12030638  HIT:    3608768  MISS:    8421870
cpu0_DTLB RFO       ACCESS:      77239  HIT:      71368  MISS:       5871
cpu0_DTLB PREFETCH  ACCESS:          0  HIT:          0  MISS:          0
cpu0_DTLB WRITEBACK ACCESS:          0  HIT:          0  MISS:          0
cpu0_ITLB TOTAL     ACCESS:    6463352  HIT:    6463351  MISS:          1
cpu0_ITLB LOAD      ACCESS:    6463352  HIT:    6463351  MISS:          1
cpu0_ITLB RFO       ACCESS:          0  HIT:          0  MISS:          0
cpu0_ITLB PREFETCH  ACCESS:          0  HIT:          0  MISS:          0
cpu0_ITLB WRITEBACK ACCESS:          0  HIT:          0  MISS:          0
cpu0_L1I TOTAL     ACCESS:         17  HIT:         14  MISS:          3
cpu0_L1I LOAD      ACCESS:         17  HIT:         14  MISS:          3
cpu0_L1I RFO       ACCESS:          0  HIT:          0  MISS:          0
cpu0_L1I PREFETCH  ACCESS:          0  HIT:          0  MISS:          0
cpu0_L1I WRITEBACK ACCESS:          0  HIT:          0  MISS:          0
cpu0_STLB TOTAL     ACCESS:    8427742  HIT:    8250792  MISS:     176950
cpu0_STLB LOAD      ACCESS:    8421871  HIT:    8245286  MISS:     176585
cpu0_STLB RFO       ACCESS:       5871  HIT:       5506  MISS:        365
cpu0_STLB PREFETCH  ACCESS:          0  HIT:          0  MISS:          0
cpu0_STLB WRITEBACK ACCESS:          0  HIT:          0  MISS:          0
cpu0_L1D TOTAL     ACCESS:   12308328  HIT:    4008243  MISS:    8300085
cpu0_L1D LOAD      ACCESS:   12038278  HIT:    3797919  MISS:    8240359
cpu0_L1D RFO       ACCESS:      93296  HIT:      86428  MISS:       6868
cpu0_L1D PREFETCH  ACCESS:          0  HIT:          0  MISS:          0
cpu0_L1D WRITEBACK ACCESS:          0  HIT:          0  MISS:          0
cpu0_L2C TOTAL     ACCESS:    8366551  HIT:    2342923  MISS:    6023628
cpu0_L2C LOAD      ACCESS:    8240360  HIT:    2265050  MISS:    5975310
cpu0_L2C RFO       ACCESS:       6868  HIT:       1621  MISS:       5247
cpu0_L2C PREFETCH  ACCESS:          0  HIT:          0  MISS:          0
cpu0_L2C WRITEBACK ACCESS:      66465  HIT:      66465  MISS:          0
LLC TOTAL     ACCESS:    6087008  HIT:    2519385  MISS:    3567623
LLC LOAD      ACCESS:    5975310  HIT:    2410963  MISS:    3564347
LLC RFO       ACCESS:       5247  HIT:       2123  MISS:       3124
LLC PREFETCH  ACCESS:          0  HIT:          0  MISS:          0
LLC WRITEBACK ACCESS:      63380  HIT:      63343  MISS:         37
[...]
cpu0_DTLB LOAD      ACCESS:  311097739  HIT:   90047024  MISS:  221050715
cpu0_DTLB RFO       ACCESS:     217485  HIT:     185049  MISS:      32436
cpu0_DTLB PREFETCH  ACCESS:          0  HIT:          0  MISS:          0
cpu0_DTLB WRITEBACK ACCESS:          0  HIT:          0  MISS:          0
cpu0_ITLB TOTAL     ACCESS:  165533966  HIT:  165533965  MISS:          1
cpu0_ITLB LOAD      ACCESS:  165533966  HIT:  165533965  MISS:          1
cpu0_ITLB RFO       ACCESS:          0  HIT:          0  MISS:          0
cpu0_ITLB PREFETCH  ACCESS:          0  HIT:          0  MISS:          0
cpu0_ITLB WRITEBACK ACCESS:          0  HIT:          0  MISS:          0
cpu0_L1I TOTAL     ACCESS:         17  HIT:         14  MISS:          3
cpu0_L1I LOAD      ACCESS:         17  HIT:         14  MISS:          3
cpu0_L1I RFO       ACCESS:          0  HIT:          0  MISS:          0
cpu0_L1I PREFETCH  ACCESS:          0  HIT:          0  MISS:          0
cpu0_L1I WRITEBACK ACCESS:          0  HIT:          0  MISS:          0
cpu0_STLB TOTAL     ACCESS:  221083152  HIT:  217193946  MISS:    3889206
cpu0_STLB LOAD      ACCESS:  221050716  HIT:  217162901  MISS:    3887815
cpu0_STLB RFO       ACCESS:      32436  HIT:      31045  MISS:       1391
cpu0_STLB PREFETCH  ACCESS:          0  HIT:          0  MISS:          0
cpu0_STLB WRITEBACK ACCESS:          0  HIT:          0  MISS:          0
cpu0_L1D TOTAL     ACCESS:  314513027  HIT:   97142468  MISS:  217370559
cpu0_L1D LOAD      ACCESS:  310353619  HIT:   94262910  MISS:  216090709
cpu0_L1D RFO       ACCESS:     270812  HIT:     255644  MISS:      15168
cpu0_L1D PREFETCH  ACCESS:          0  HIT:          0  MISS:          0
cpu0_L1D WRITEBACK ACCESS:          0  HIT:          0  MISS:          0
cpu0_L2C TOTAL     ACCESS:  217552918  HIT:   60300912  MISS:  157252006
cpu0_L2C LOAD      ACCESS:  216090707  HIT:   59988404  MISS:  156102303
cpu0_L2C RFO       ACCESS:      15168  HIT:       3234  MISS:      11934
cpu0_L2C PREFETCH  ACCESS:          0  HIT:          0  MISS:          0
cpu0_L2C WRITEBACK ACCESS:     182361  HIT:     182361  MISS:          0
LLC TOTAL     ACCESS:  157428083  HIT:   66156912  MISS:   91271171
LLC LOAD      ACCESS:  156102303  HIT:   64839266  MISS:   91263037
LLC RFO       ACCESS:      11934  HIT:       4666  MISS:       7268
LLC PREFETCH  ACCESS:          0  HIT:          0  MISS:          0
LLC WRITEBACK ACCESS:     176077  HIT:     175900  MISS:        177
Heartbeat CPU 0 instructions: 1550000004 cycles: 18431673196 heartbeat IPC: 0.0810975 cumulative IPC: 0.0814502 (Simulation time: 23 hr 23 min 44 sec) 

Region of Interest Statistics
cpu0_DTLB TOTAL     ACCESS:  311730404  HIT:   90351583  MISS:  221378821
cpu0_DTLB LOAD      ACCESS:  311512919  HIT:   90166534  MISS:  221346385
cpu0_DTLB RFO       ACCESS:     217485  HIT:     185049  MISS:      32436
cpu0_DTLB PREFETCH  ACCESS:          0  HIT:          0  MISS:          0
cpu0_DTLB WRITEBACK ACCESS:          0  HIT:          0  MISS:          0
cpu0_ITLB TOTAL     ACCESS:  165754723  HIT:  165754722  MISS:          1
cpu0_ITLB LOAD      ACCESS:  165754723  HIT:  165754722  MISS:          1
cpu0_ITLB RFO       ACCESS:          0  HIT:          0  MISS:          0
cpu0_ITLB PREFETCH  ACCESS:          0  HIT:          0  MISS:          0
cpu0_ITLB WRITEBACK ACCESS:          0  HIT:          0  MISS:          0
cpu0_L1I TOTAL     ACCESS:         17  HIT:         14  MISS:          3
cpu0_L1I LOAD      ACCESS:         17  HIT:         14  MISS:          3
cpu0_L1I RFO       ACCESS:          0  HIT:          0  MISS:          0
cpu0_L1I PREFETCH  ACCESS:          0  HIT:          0  MISS:          0
cpu0_L1I WRITEBACK ACCESS:          0  HIT:          0  MISS:          0
cpu0_STLB TOTAL     ACCESS:  221378822  HIT:  217484307  MISS:    3894515
cpu0_STLB LOAD      ACCESS:  221346386  HIT:  217453262  MISS:    3893124
cpu0_STLB RFO       ACCESS:      32436  HIT:      31045  MISS:       1391
cpu0_STLB PREFETCH  ACCESS:          0  HIT:          0  MISS:          0
cpu0_STLB WRITEBACK ACCESS:          0  HIT:          0  MISS:          0
cpu0_L1D TOTAL     ACCESS:  314932385  HIT:   97270725  MISS:  217661660
cpu0_L1D LOAD      ACCESS:  310767668  HIT:   94387528  MISS:  216380140
cpu0_L1D RFO       ACCESS:     270812  HIT:     255644  MISS:      15168
cpu0_L1D PREFETCH  ACCESS:          0  HIT:          0  MISS:          0
cpu0_L1D WRITEBACK ACCESS:          0  HIT:          0  MISS:          0
cpu0_L2C TOTAL     ACCESS:  217844019  HIT:   60380108  MISS:  157463911
cpu0_L2C LOAD      ACCESS:  216380138  HIT:   60067479  MISS:  156312659
cpu0_L2C RFO       ACCESS:      15168  HIT:       3234  MISS:      11934
cpu0_L2C PREFETCH  ACCESS:          0  HIT:          0  MISS:          0
cpu0_L2C WRITEBACK ACCESS:     182361  HIT:     182361  MISS:          0
LLC TOTAL     ACCESS:  157639988  HIT:   66246451  MISS:   91393537
LLC LOAD      ACCESS:  156312659  HIT:   64927256  MISS:   91385403
LLC RFO       ACCESS:      11934  HIT:       4666  MISS:       7268
LLC PREFETCH  ACCESS:          0  HIT:          0  MISS:          0
LLC WRITEBACK ACCESS:     176077  HIT:     175900  MISS:        177
Finished CPU 0 instructions: 1500000002 cycles: 18416158707 cumulative IPC: 0.0814502 (Simulation time: 23 hr 23 min 44 sec) 

ChampSim completed all CPUs

Region of Interest Statistics

CPU 0 cumulative IPC: 0.0814502 instructions: 1500000002 cycles: 18416158707
cpu0_DTLB TOTAL     ACCESS:  311730404  HIT:   90351583  MISS:  221378821
cpu0_DTLB LOAD      ACCESS:  311512919  HIT:   90166534  MISS:  221346385
cpu0_DTLB RFO       ACCESS:     217485  HIT:     185049  MISS:      32436
cpu0_DTLB PREFETCH  ACCESS:          0  HIT:          0  MISS:          0
cpu0_DTLB WRITEBACK ACCESS:          0  HIT:          0  MISS:          0
cpu0_DTLB TRANSLATION ACCESS:          0  HIT:          0  MISS:          0
cpu0_DTLB PREFETCH  REQUESTED:          0  ISSUED:          0  USEFUL:          0  USELESS:          0
cpu0_DTLB AVERAGE MISS LATENCY: 9.66187 cycles
cpu0_ITLB TOTAL     ACCESS:  165754723  HIT:  165754722  MISS:          1
cpu0_ITLB LOAD      ACCESS:  165754723  HIT:  165754722  MISS:          1
cpu0_ITLB RFO       ACCESS:          0  HIT:          0  MISS:          0
cpu0_ITLB PREFETCH  ACCESS:          0  HIT:          0  MISS:          0
cpu0_ITLB WRITEBACK ACCESS:          0  HIT:          0  MISS:          0
cpu0_ITLB TRANSLATION ACCESS:          0  HIT:          0  MISS:          0
cpu0_ITLB PREFETCH  REQUESTED:          0  ISSUED:          0  USEFUL:          0  USELESS:          0
cpu0_ITLB AVERAGE MISS LATENCY: 217 cycles
cpu0_L1I TOTAL     ACCESS:         17  HIT:         14  MISS:          3
cpu0_L1I LOAD      ACCESS:         17  HIT:         14  MISS:          3
cpu0_L1I RFO       ACCESS:          0  HIT:          0  MISS:          0
cpu0_L1I PREFETCH  ACCESS:          0  HIT:          0  MISS:          0
cpu0_L1I WRITEBACK ACCESS:          0  HIT:          0  MISS:          0
cpu0_L1I TRANSLATION ACCESS:          0  HIT:          0  MISS:          0
cpu0_L1I PREFETCH  REQUESTED:          0  ISSUED:          0  USEFUL:          0  USELESS:          0
cpu0_L1I AVERAGE MISS LATENCY: 194.333 cycles
cpu0_STLB TOTAL     ACCESS:  221378822  HIT:  217484307  MISS:    3894515
cpu0_STLB LOAD      ACCESS:  221346386  HIT:  217453262  MISS:    3893124
cpu0_STLB RFO       ACCESS:      32436  HIT:      31045  MISS:       1391
cpu0_STLB PREFETCH  ACCESS:          0  HIT:          0  MISS:          0
cpu0_STLB WRITEBACK ACCESS:          0  HIT:          0  MISS:          0
cpu0_STLB TRANSLATION ACCESS:          0  HIT:          0  MISS:          0
cpu0_STLB PREFETCH  REQUESTED:          0  ISSUED:          0  USEFUL:          0  USELESS:          0
cpu0_STLB AVERAGE MISS LATENCY: 37.6129 cycles
cpu0_L1D TOTAL     ACCESS:  314932385  HIT:   97270725  MISS:  217661660
cpu0_L1D LOAD      ACCESS:  310767668  HIT:   94387528  MISS:  216380140
cpu0_L1D RFO       ACCESS:     270812  HIT:     255644  MISS:      15168
cpu0_L1D PREFETCH  ACCESS:          0  HIT:          0  MISS:          0
cpu0_L1D WRITEBACK ACCESS:          0  HIT:          0  MISS:          0
cpu0_L1D TRANSLATION ACCESS:    3893905  HIT:    2627553  MISS:    1266352
cpu0_L1D PREFETCH  REQUESTED:          0  ISSUED:          0  USEFUL:          0  USELESS:          0
cpu0_L1D AVERAGE MISS LATENCY: 195.367 cycles
cpu0_L2C TOTAL     ACCESS:  217844019  HIT:   60380108  MISS:  157463911
cpu0_L2C LOAD      ACCESS:  216380138  HIT:   60067479  MISS:  156312659
cpu0_L2C RFO       ACCESS:      15168  HIT:       3234  MISS:      11934
cpu0_L2C PREFETCH  ACCESS:          0  HIT:          0  MISS:          0
cpu0_L2C WRITEBACK ACCESS:     182361  HIT:     182361  MISS:          0
cpu0_L2C TRANSLATION ACCESS:    1266352  HIT:     127034  MISS:    1139318
cpu0_L2C PREFETCH  REQUESTED:          0  ISSUED:          0  USEFUL:          0  USELESS:          0
cpu0_L2C AVERAGE MISS LATENCY: 254.849 cycles
LLC TOTAL     ACCESS:  157639988  HIT:   66246451  MISS:   91393537
LLC LOAD      ACCESS:  156312659  HIT:   64927256  MISS:   91385403
LLC RFO       ACCESS:      11934  HIT:       4666  MISS:       7268
LLC PREFETCH  ACCESS:          0  HIT:          0  MISS:          0
LLC WRITEBACK ACCESS:     176077  HIT:     175900  MISS:        177
LLC TRANSLATION ACCESS:    1139318  HIT:    1138629  MISS:        689
LLC PREFETCH  REQUESTED:          0  ISSUED:          0  USEFUL:          0  USELESS:          0
LLC AVERAGE MISS LATENCY: 402.903 cycles
~~~~~~~~~~Reuse Distance Profiler output~~~~~~~~~~
0	0	0
1	0	0
2	0	0
3	0	0
4	0	0
5	0	0
6	0	0
7	0	0
8	0	0
9	0	0
10	0	0
11	0	0
12	0	0
13	0	0
14	0	0
15	0	0
16	0	0
17	0	0
18	0	0
19	0	0
20	0	0
21	0	0
22	0	0
23	0	0
24	0	0
25	0	0
26	0	0
27	0	0
28	0	0
29	0	0
30	0	0
31	0	0
32	0	0
33	0	0
34	0	0
35	0	0
36	0	0
37	0	0
38	0	0
39	0	0
40	0	0
41	0	0
42	0	0
43	0	0
44	0	0
45	0	0
46	0	0
47	0	0
48	0	0
49	0	0
50	0	0
51	0	0
52	0	0
53	0	0
54	0	0
55	0	0
56	0	0
57	0	0
58	0	0
59	0	0
60	0	0
61	0	0
62	0	0
63	0	0
64	0	0
66	0	0
68	0	0
70	0	0
72	0	0
74	0	0
76	0	0
78	0	0
80	0	0
82	0	0
84	0	0
86	0	0
88	0	0
90	0	0
92	0	0
94	0	0
96	0	0
98	0	0
100	0	0
102	0	0
104	0	0
106	0	0
108	0	0
110	0	0
112	0	0
114	0	0
116	0	0
118	0	0
120	0	0
122	0	0
124	0	0
126	0	0
128	0	0
132	0	0
136	0	0
140	0	0
144	0	0
148	0	0
152	0	0
156	0	0
160	0	0
164	0	0
168	0	0
172	0	0
176	0	0
180	0	0
184	0	0
188	0	0
192	0	0
196	0	0
200	0	0
204	0	0
208	0	0
212	0	0
216	0	0
220	0	0
224	0	0
228	0	0
232	0	0
236	0	0
240	0	0
244	0	0
248	0	0
252	0	0
256	0	0
264	0	0
272	0	0
280	0	0
288	0	0
296	0	0
304	0	0
312	0	0
320	0	0
328	0	0
336	0	0
344	0	0
352	0	0
360	0	0
368	0	0
376	0	0
384	0	0
392	0	0
400	0	0
408	0	0
416	0	0
424	0	0
432	0	0
440	0	0
448	0	0
456	0	0
464	0	0
472	0	0
480	0	0
488	0	0
496	0	0
504	0	0
512	0	0
528	0	0
544	0	0
560	0	0
576	0	0
592	0	0
608	0	0
624	0	0
640	0	0
656	0	0
672	0	0
688	0	0
704	0	0
720	0	0
736	0	0
752	0	0
768	0	0
784	0	0
800	0	0
816	0	0
832	0	0
848	0	0
864	0	0
880	0	0
896	0	0
912	0	0
928	0	0
944	0	0
960	0	0
976	0	0
992	0	0
1008	0	0
1024	0	0
1056	0	0
1088	0	0
1120	0	0
1152	0	0
1184	0	0
1216	0	0
1248	0	0
1280	0	0
1312	0	0
1344	0	0
1376	0	0
1408	0	0
1440	0	0
1472	0	0
1504	0	0
1536	0	0
1568	0	0
1600	0	0
1632	0	0
1664	0	0
1696	0	0
1728	0	0
1760	0	0
1792	0	0
1824	0	0
1856	0	0
1888	0	0
1920	0	0
1952	0	0
1984	0	0
2016	0	0
2048	0	0
2112	0	0
2176	0	0
2240	0	0
2304	0	0
2368	0	0
2432	0	0
2496	0	0
2560	0	0
2624	0	0
2688	0	0
2752	0	0
2816	0	0
2880	0	0
2944	0	0
3008	0	0
3072	0	0
3136	0	0
3200	0	0
3264	0	0
3328	0	0
3392	0	0
3456	0	0
3520	0	0
3584	0	0
3648	0	0
3712	0	0
3776	0	0
3840	0	0
3904	0	0
3968	0	0
4032	0	0
4096	0	0
4224	0	0
4352	0	0
4480	0	0
4608	0	0
4736	0	0
4864	0	0
4992	0	0
5120	0	0
5248	0	0
5376	0	0
5504	0	0
5632	0	0
5760	0	0
5888	0	0
6016	0	0
6144	0	0
6272	0	0
6400	0	0
6528	0	0
6656	0	0
6784	0	0
6912	0	0
7040	0	0
7168	0	0
7296	0	0
7424	0	0
7552	0	0
7680	0	0
7808	0	0
7936	0	0
8064	0	0
8192	0	0
8448	0	0
8704	0	0
8960	0	0
9216	0	0
9472	0	0
9728	0	0
9984	0	0
10240	0	0
10496	0	0
10752	0	0
11008	0	0
11264	0	0
11520	0	0
11776	0	0
12032	0	0
12288	0	0
12544	0	0
12800	0	0
13056	0	0
13312	0	0
13568	0	0
13824	0	0
14080	0	0
14336	0	0
14592	0	0
14848	0	0
15104	0	0
15360	0	0
15616	0	0
15872	0	0
16128	0	0
16384	0	0
16896	0	0
17408	0	0
17920	0	0
18432	0	0
18944	0	0
19456	0	0
19968	0	0
20480	0	0
20992	0	0
21504	0	0
22016	0	0
22528	0	0
23040	0	0
23552	0	0
24064	0	0
24576	0	0
25088	0	0
25600	0	0
26112	0	0
26624	0	0
27136	0	0
27648	0	0
28160	0	0
28672	0	0
29184	0	0
29696	0	0
30208	0	0
30720	0	0
31232	0	0
31744	0	0
32256	0	0
32768	0	0
33792	0	0
34816	0	0
35840	0	0
36864	0	0
37888	0	0
38912	0	0
39936	0	0
40960	0	0
41984	0	0
43008	0	0
44032	0	0
45056	0	0
46080	0	0
47104	0	0
48128	0	0
49152	0	0
50176	0	0
51200	0	0
52224	0	0
53248	0	0
54272	0	0
55296	0	0
56320	0	0
57344	0	0
58368	0	0
59392	0	0
60416	0	0
61440	0	0
62464	0	0
63488	0	0
64512	0	0
65536	0	0
67584	0	0
69632	0	0
71680	0	0
73728	0	0
75776	0	0
77824	0	0
79872	0	0
81920	0	0
83968	0	0
86016	0	0
88064	0	0
90112	0	0
92160	0	0
94208	0	0
96256	0	0
98304	0	0
100352	0	0
102400	0	0
104448	0	0
106496	0	0
108544	0	0
110592	0	0
112640	0	0
114688	0	0
116736	0	0
118784	0	0
120832	0	0
122880	0	0
124928	0	0
126976	0	0
129024	0	0
131072	0	0
135168	0	0
139264	0	0
143360	0	0
147456	0	0
151552	0	0
155648	0	0
159744	0	0
163840	0	0
167936	0	0
172032	0	0
176128	0	0
180224	0	0
184320	0	0
188416	0	0
192512	0	0
196608	0	0
200704	0	0
204800	0	0
208896	0	0
212992	0	0
217088	0	0
221184	0	0
225280	0	0
229376	0	0
233472	0	0
237568	0	0
241664	0	0
245760	0	0
249856	0	0
253952	0	0
258048	0	0
262144	0	0
270336	0	0
278528	0	0
286720	0	0
294912	0	0
303104	0	0
311296	0	0
319488	0	0
327680	0	0
335872	0	0
344064	0	0
352256	0	0
360448	0	0
368640	0	0
376832	0	0
385024	0	0
393216	0	0
401408	0	0
409600	0	0
417792	0	0
425984	0	0
434176	0	0
442368	0	0
450560	0	0
458752	0	0
466944	0	0
475136	0	0
483328	0	0
491520	0	0
499712	0	0
507904	0	0
516096	0	0
524288	0	0
540672	0	0
557056	0	0
573440	0	0
589824	0	0
606208	0	0
622592	0	0
638976	0	0
655360	0	0
671744	0	0
688128	0	0
704512	0	0
720896	0	0
737280	0	0
753664	0	0
770048	0	0
786432	0	0
802816	0	0
819200	0	0
835584	0	0
851968	0	0
868352	0	0
884736	0	0
901120	0	0
917504	0	0
933888	0	0
950272	0	0
966656	0	0
983040	0	0
999424	0	0
1015808	0	0
1032192	0	0
1048576	0	0
1081344	0	0
1114112	0	0
1146880	0	0
1179648	0	0
1212416	0	0
1245184	0	0
1277952	0	0
1310720	0	0
1343488	0	0
1376256	0	0
1409024	0	0
1441792	0	0
1474560	0	0
1507328	0	0
1540096	0	0
1572864	0	0
1605632	0	0
1638400	0	0
1671168	0	0
1703936	0	0
1736704	0	0
1769472	0	0
1802240	0	0
1835008	0	0
1867776	0	0
1900544	0	0
1933312	0	0
1966080	0	0
1998848	0	0
2031616	0	0
2064384	0	0
2097152	0	0
2162688	0	0
2228224	0	0
2293760	0	0
2359296	0	0
2424832	0	0
2490368	0	0
2555904	0	0
2621440	0	0
2686976	0	0
2752512	0	0
2818048	0	0
2883584	0	0
2949120	0	0
3014656	0	0
3080192	0	0
3145728	0	0
3211264	0	0
3276800	0	0
3342336	0	0
3407872	0	0
3473408	0	0
3538944	0	0
3604480	0	0
3670016	0	0
3735552	0	0
3801088	0	0
3866624	0	0
3932160	0	0
3997696	0	0
4063232	0	0
4128768	0	0
4194304	0	0
4325376	0	0
4456448	0	0
4587520	0	0
4718592	0	0
4849664	0	0
4980736	0	0
5111808	0	0
5242880	0	0
5373952	0	0
5505024	0	0
5636096	0	0
5767168	0	0
5898240	0	0
6029312	0	0
6160384	0	0
6291456	0	0
6422528	0	0
6553600	0	0
6684672	0	0
6815744	0	0
6946816	0	0
7077888	0	0
7208960	0	0
7340032	0	0
7471104	0	0
7602176	0	0
7733248	0	0
7864320	0	0
7995392	0	0
8126464	0	0
8257536	0	0
8388608	0	0
8650752	0	0
8912896	0	0
9175040	0	0
9437184	0	0
9699328	0	0
9961472	0	0
10223616	0	0
10485760	0	0
10747904	0	0
11010048	0	0
11272192	0	0
11534336	0	0
11796480	0	0
12058624	0	0
12320768	0	0
12582912	0	0
12845056	0	0
13107200	0	0
13369344	0	0
13631488	0	0
13893632	0	0
14155776	0	0
14417920	0	0
14680064	0	0
14942208	0	0
15204352	0	0
15466496	0	0
15728640	0	0
15990784	0	0
16252928	0	0
16515072	0	0
16777216	0	0
17301504	0	0
17825792	0	0
18350080	0	0
18874368	0	0
19398656	0	0
19922944	0	0
20447232	0	0
20971520	0	0
21495808	0	0
22020096	0	0
22544384	0	0
23068672	0	0
23592960	0	0
24117248	0	0
24641536	0	0
25165824	0	0
25690112	0	0
26214400	0	0
26738688	0	0
27262976	0	0
27787264	0	0
28311552	0	0
28835840	0	0
29360128	0	0
29884416	0	0
30408704	0	0
30932992	0	0
31457280	0	0
31981568	0	0
32505856	0	0
33030144	0	0
33554432	0	0
34603008	0	0
35651584	0	0
36700160	0	0
37748736	0	0
38797312	0	0
39845888	0	0
40894464	0	0
41943040	0	0
42991616	0	0
44040192	0	0
45088768	0	0
46137344	0	0
47185920	0	0
48234496	0	0
49283072	0	0
50331648	0	0
51380224	0	0
52428800	0	0
53477376	0	0
54525952	0	0
55574528	0	0
56623104	0	0
57671680	0	0
58720256	0	0
59768832	0	0
60817408	0	0
61865984	0	0
62914560	0	0
63963136	0	0
65011712	0	0
66060288	0	0
67108864	0	0
69206016	0	0
71303168	0	0
73400320	0	0
75497472	0	0
77594624	0	0
79691776	0	0
81788928	0	0
83886080	0	0
85983232	0	0
88080384	0	0
90177536	0	0
92274688	0	0
94371840	0	0
96468992	0	0
98566144	0	0
100663296	0	0
102760448	0	0
104857600	0	0
106954752	0	0
109051904	0	0
111149056	0	0
113246208	0	0
115343360	0	0
117440512	0	0
119537664	0	0
121634816	0	0
123731968	0	0
125829120	0	0
127926272	0	0
130023424	0	0
132120576	0	0
134217728	0	0
138412032	0	0
142606336	0	0
146800640	0	0
150994944	0	0
155189248	0	0
159383552	0	0
163577856	0	0
167772160	0	0
171966464	0	0
176160768	0	0
180355072	0	0
184549376	0	0
188743680	0	0
192937984	0	0
197132288	0	0
201326592	0	0
205520896	0	0
209715200	0	0
213909504	0	0
218103808	0	0
222298112	0	0
226492416	0	0
230686720	0	0
234881024	0	0
239075328	0	0
243269632	0	0
247463936	0	0
251658240	0	0
255852544	0	0
260046848	0	0
264241152	0	0
268435456	0	0
276824064	0	0
285212672	0	0
293601280	0	0
301989888	0	0
310378496	0	0
318767104	0	0
327155712	0	0
335544320	0	0
343932928	0	0
352321536	0	0
360710144	0	0
369098752	0	0
377487360	0	0
385875968	0	0
394264576	0	0
402653184	0	0
411041792	0	0
419430400	0	0
427819008	0	0
436207616	0	0
444596224	0	0
452984832	0	0
461373440	0	0
469762048	0	0
478150656	0	0
486539264	0	0
494927872	0	0
503316480	0	0
511705088	0	0
520093696	0	0
528482304	0	0
536870912	0	0
553648128	0	0
570425344	0	0
587202560	0	0
603979776	0	0
620756992	0	0
637534208	0	0
654311424	0	0
671088640	0	0
687865856	0	0
704643072	0	0
721420288	0	0
738197504	0	0
754974720	0	0
771751936	0	0
788529152	0	0
805306368	0	0
822083584	0	0
838860800	0	0
855638016	0	0
872415232	0	0
889192448	0	0
905969664	0	0
922746880	0	0
939524096	0	0
956301312	0	0
973078528	0	0
989855744	0	0
1006632960	0	0
1023410176	0	0
1040187392	0	0
1056964608	0	0
1073741824	0	0
1107296256	0	0
1140850688	0	0
1174405120	0	0
1207959552	0	0
1241513984	0	0
1275068416	0	0
1308622848	0	0
1342177280	0	0
1375731712	0	0
1409286144	0	0
1442840576	0	0
1476395008	0	0
1509949440	0	0
1543503872	0	0
1577058304	0	0
1610612736	0	0
1644167168	0	0
1677721600	0	0
1711276032	0	0
1744830464	0	0
1778384896	0	0
1811939328	0	0
1845493760	0	0
1879048192	0	0
1912602624	0	0
1946157056	0	0
1979711488	0	0
2013265920	0	0
2046820352	0	0
2080374784	0	0
2113929216	0	0
2147483648	0	0
2214592512	0	0
2281701376	0	0
2348810240	0	0
2415919104	0	0
2483027968	0	0
2550136832	0	0
2617245696	0	0
2684354560	0	0
2751463424	0	0
2818572288	0	0
2885681152	0	0
2952790016	0	0
3019898880	0	0
3087007744	0	0
3154116608	0	0
3221225472	0	0
3288334336	0	0
3355443200	0	0
3422552064	0	0
3489660928	0	0
3556769792	0	0
3623878656	0	0
3690987520	0	0
3758096384	0	0
3825205248	0	0
3892314112	0	0
3959422976	0	0
4026531840	0	0
4093640704	0	0
4160749568	0	0
4227858432	0	0
~~~~~~~~~~Reuse Distance Profiler output end~~~~~~~~~~


DRAM Statistics
 CHANNEL 0
 RQ ROW_BUFFER_HIT:      23826  ROW_BUFFER_MISS:   91369449
 DBUS AVG_CONGESTED_CYCLE:    3.99677
 WQ ROW_BUFFER_HIT:      26243  ROW_BUFFER_MISS:     133293  FULL:          0


CPU 0 Branch Prediction Accuracy: 91.1739% MPKI: 21.2188 Average ROB Occupancy at Mispredict: 28.5663
Branch type MPKI
BRANCH_DIRECT_JUMP: 3.33333e-06
BRANCH_INDIRECT: 0
BRANCH_CONDITIONAL: 21.2188
BRANCH_DIRECT_CALL: 6.66667e-07
BRANCH_INDIRECT_CALL: 0
BRANCH_RETURN: 6.66667e-07

