
*** ChampSim Multicore Out-of-Order Simulator ***

Warmup Instructions: 50000000
Simulation Instructions: 1500000000
Number of CPUs: 1
Off-chip DRAM Size: 4 GiB Channels: 1 Width: 64-bit Data Rate: 3200 MT/s

VirtualMemory physical capacity: 8588881920 num_ppages: 2096895
VirtualMemory page size: 4096 log2_page_size: 12

CPU 0 runs traces/433.milc-127B.champsimtrace.xz
CPU 0 Bimodal branch predictor
Basic BTB sets: 1024 ways: 8 indirect buffer size: 4096 RAS size: 64
Initializing LRU.
Initializing LRU.
Initializing LRU.
Initializing LRU.
Initializing rdLRU.
Initializing LRU.
Initializing LRU.
Heartbeat CPU 0 instructions: 2000002 cycles: 517608 heartbeat IPC: 3.86393 cumulative IPC: 3.86393 (Simulation time: 0 hr 0 min 46 sec) 
Heartbeat CPU 0 instructions: 4000000 cycles: 1035090 heartbeat IPC: 3.86486 cumulative IPC: 3.8644 (Simulation time: 0 hr 1 min 30 sec) 
Heartbeat CPU 0 instructions: 6000003 cycles: 1552573 heartbeat IPC: 3.86487 cumulative IPC: 3.86455 (Simulation time: 0 hr 2 min 14 sec) 
Heartbeat CPU 0 instructions: 8000001 cycles: 2070055 heartbeat IPC: 3.86486 cumulative IPC: 3.86463 (Simulation time: 0 hr 2 min 59 sec) 
Heartbeat CPU 0 instructions: 10000004 cycles: 2587538 heartbeat IPC: 3.86487 cumulative IPC: 3.86468 (Simulation time: 0 hr 3 min 46 sec) 
Heartbeat CPU 0 instructions: 12000002 cycles: 3105020 heartbeat IPC: 3.86486 cumulative IPC: 3.86471 (Simulation time: 0 hr 4 min 32 sec) 
Heartbeat CPU 0 instructions: 14000000 cycles: 3622502 heartbeat IPC: 3.86486 cumulative IPC: 3.86473 (Simulation time: 0 hr 5 min 19 sec) 
Heartbeat CPU 0 instructions: 16000003 cycles: 4139985 heartbeat IPC: 3.86487 cumulative IPC: 3.86475 (Simulation time: 0 hr 6 min 5 sec) 
Heartbeat CPU 0 instructions: 18000001 cycles: 4657467 heartbeat IPC: 3.86486 cumulative IPC: 3.86476 (Simulation time: 0 hr 6 min 51 sec) 
Heartbeat CPU 0 instructions: 20000000 cycles: 5267334 heartbeat IPC: 3.2794 cumulative IPC: 3.79699 (Simulation time: 0 hr 7 min 39 sec) 
Heartbeat CPU 0 instructions: 22000000 cycles: 6117928 heartbeat IPC: 2.3513 cumulative IPC: 3.59599 (Simulation time: 0 hr 9 min 3 sec) 
Heartbeat CPU 0 instructions: 24000003 cycles: 7047191 heartbeat IPC: 2.15225 cumulative IPC: 3.40561 (Simulation time: 0 hr 10 min 46 sec) 
Heartbeat CPU 0 instructions: 26000003 cycles: 7547191 heartbeat IPC: 4 cumulative IPC: 3.44499 (Simulation time: 0 hr 11 min 28 sec) 
Heartbeat CPU 0 instructions: 28000003 cycles: 8047191 heartbeat IPC: 4 cumulative IPC: 3.47948 (Simulation time: 0 hr 12 min 14 sec) 
Heartbeat CPU 0 instructions: 30000003 cycles: 8547191 heartbeat IPC: 4 cumulative IPC: 3.50993 (Simulation time: 0 hr 12 min 59 sec) 
Heartbeat CPU 0 instructions: 32000003 cycles: 9047191 heartbeat IPC: 4 cumulative IPC: 3.53701 (Simulation time: 0 hr 13 min 39 sec) 
Heartbeat CPU 0 instructions: 34000003 cycles: 9547191 heartbeat IPC: 4 cumulative IPC: 3.56126 (Simulation time: 0 hr 14 min 19 sec) 
Heartbeat CPU 0 instructions: 36000003 cycles: 10047191 heartbeat IPC: 4 cumulative IPC: 3.58309 (Simulation time: 0 hr 15 min 0 sec) 
Heartbeat CPU 0 instructions: 38000003 cycles: 10547191 heartbeat IPC: 4 cumulative IPC: 3.60286 (Simulation time: 0 hr 15 min 38 sec) 
Heartbeat CPU 0 instructions: 40000003 cycles: 11047191 heartbeat IPC: 4 cumulative IPC: 3.62083 (Simulation time: 0 hr 16 min 18 sec) 
Heartbeat CPU 0 instructions: 42000003 cycles: 11547191 heartbeat IPC: 4 cumulative IPC: 3.63725 (Simulation time: 0 hr 16 min 59 sec) 
Heartbeat CPU 0 instructions: 44000003 cycles: 12047191 heartbeat IPC: 4 cumulative IPC: 3.6523 (Simulation time: 0 hr 17 min 37 sec) 
Heartbeat CPU 0 instructions: 46000003 cycles: 12547191 heartbeat IPC: 4 cumulative IPC: 3.66616 (Simulation time: 0 hr 18 min 19 sec) 
Heartbeat CPU 0 instructions: 48000003 cycles: 13047191 heartbeat IPC: 4 cumulative IPC: 3.67895 (Simulation time: 0 hr 18 min 59 sec) 
Heartbeat CPU 0 instructions: 50000003 cycles: 13547191 heartbeat IPC: 4 cumulative IPC: 3.6908 (Simulation time: 0 hr 19 min 37 sec) 

Warmup complete CPU 0 instructions: 50000003 cycles: 13547191 (Simulation time: 0 hr 19 min 37 sec) 

Heartbeat CPU 0 instructions: 52000003 cycles: 16362761 heartbeat IPC: 0.710336 cumulative IPC: 0.710336 (Simulation time: 0 hr 20 min 39 sec) 

Region of Interest Statistics
cpu0_DTLB TOTAL     ACCESS:     351237  HIT:     348825  MISS:       2412
cpu0_DTLB LOAD      ACCESS:     235807  HIT:     233395  MISS:       2412
cpu0_DTLB RFO       ACCESS:     115430  HIT:     115430  MISS:          0
cpu0_DTLB PREFETCH  ACCESS:          0  HIT:          0  MISS:          0
cpu0_DTLB WRITEBACK ACCESS:          0  HIT:          0  MISS:          0
cpu0_ITLB TOTAL     ACCESS:     230364  HIT:     230364  MISS:          0
cpu0_ITLB LOAD      ACCESS:     230364  HIT:     230364  MISS:          0
cpu0_ITLB RFO       ACCESS:          0  HIT:          0  MISS:          0
cpu0_ITLB PREFETCH  ACCESS:          0  HIT:          0  MISS:          0
cpu0_ITLB WRITEBACK ACCESS:          0  HIT:          0  MISS:          0
cpu0_STLB TOTAL     ACCESS:       2412  HIT:          0  MISS:       2412
cpu0_STLB LOAD      ACCESS:       2412  HIT:          0  MISS:       2412
cpu0_STLB RFO       ACCESS:          0  HIT:          0  MISS:          0
cpu0_STLB PREFETCH  ACCESS:          0  HIT:          0  MISS:          0
cpu0_STLB WRITEBACK ACCESS:          0  HIT:          0  MISS:          0
cpu0_L1D TOTAL     ACCESS:     520829  HIT:     500092  MISS:      20737
cpu0_L1D LOAD      ACCESS:     205061  HIT:     184325  MISS:      20736
cpu0_L1D RFO       ACCESS:     313356  HIT:     313356  MISS:          0
cpu0_L1D PREFETCH  ACCESS:          0  HIT:          0  MISS:          0
cpu0_L1D WRITEBACK ACCESS:          0  HIT:          0  MISS:          0
cpu0_L2C TOTAL     ACCESS:      29953  HIT:       9216  MISS:      20737
cpu0_L2C LOAD      ACCESS:      20736  HIT:          0  MISS:      20736
cpu0_L2C RFO       ACCESS:          0  HIT:          0  MISS:          0
cpu0_L2C PREFETCH  ACCESS:          0  HIT:          0  MISS:          0
cpu0_L2C WRITEBACK ACCESS:       9216  HIT:       9216  MISS:          0
LLC TOTAL     ACCESS:      29950  HIT:       9213  MISS:      20737
LLC LOAD      ACCESS:      20736  HIT:          0  MISS:      20736
LLC RFO       ACCESS:          0  HIT:          0  MISS:          0
LLC PREFETCH  ACCESS:          0  HIT:          0  MISS:          0
LLC WRITEBACK ACCESS:       9213  HIT:       9213  MISS:          0
Heartbeat CPU 0 instructions: 54000002 cycles: 19175195 heartbeat IPC: 0.711127 cumulative IPC: 0.710731 (Simulation time: 0 hr 21 min 37 sec) 

Region of Interest Statistics
cpu0_DTLB TOTAL     ACCESS:     702526  HIT:     697702  MISS:       4824
cpu0_DTLB LOAD      ACCESS:     471660  HIT:     466836  MISS:       4824
cpu0_DTLB RFO       ACCESS:     230866  HIT:     230866  MISS:          0
cpu0_DTLB PREFETCH  ACCESS:          0  HIT:          0  MISS:          0
cpu0_DTLB WRITEBACK ACCESS:          0  HIT:          0  MISS:          0
cpu0_ITLB TOTAL     ACCESS:     460779  HIT:     460779  MISS:          0
cpu0_ITLB LOAD      ACCESS:     460779  HIT:     460779  MISS:          0
cpu0_ITLB RFO       ACCESS:          0  HIT:          0  MISS:          0
cpu0_ITLB PREFETCH  ACCESS:          0  HIT:          0  MISS:          0
cpu0_ITLB WRITEBACK ACCESS:          0  HIT:          0  MISS:          0
cpu0_STLB TOTAL     ACCESS:       4824  HIT:          0  MISS:       4824
cpu0_STLB LOAD      ACCESS:       4824  HIT:          0  MISS:       4824
cpu0_STLB RFO       ACCESS:          0  HIT:          0  MISS:          0
cpu0_STLB PREFETCH  ACCESS:          0  HIT:          0  MISS:          0
cpu0_STLB WRITEBACK ACCESS:          0  HIT:          0  MISS:          0
cpu0_L1D TOTAL     ACCESS:    1041711  HIT:    1000238  MISS:      41473
cpu0_L1D LOAD      ACCESS:     410173  HIT:     368701  MISS:      41472
cpu0_L1D RFO       ACCESS:     626714  HIT:     626714  MISS:          0
cpu0_L1D PREFETCH  ACCESS:          0  HIT:          0  MISS:          0
cpu0_L1D WRITEBACK ACCESS:          0  HIT:          0  MISS:          0
cpu0_L2C TOTAL     ACCESS:      59905  HIT:      18432  MISS:      41473
cpu0_L2C LOAD      ACCESS:      41472  HIT:          0  MISS:      41472
cpu0_L2C RFO       ACCESS:          0  HIT:          0  MISS:          0
cpu0_L2C PREFETCH  ACCESS:          0  HIT:          0  MISS:          0
cpu0_L2C WRITEBACK ACCESS:      18432  HIT:      18432  MISS:          0
LLC TOTAL     ACCESS:      59906  HIT:      18433  MISS:      41473
LLC LOAD      ACCESS:      41472  HIT:          0  MISS:      41472
LLC RFO       ACCESS:          0  HIT:          0  MISS:          0
LLC PREFETCH  ACCESS:          0  HIT:          0  MISS:          0
LLC WRITEBACK ACCESS:      18433  HIT:      18433  MISS:          0
Heartbeat CPU 0 instructions: 56000001 cycles: 21991496 heartbeat IPC: 0.710151 cumulative IPC: 0.710538 (Simulation time: 0 hr 22 min 36 sec) 

Region of Interest Statistics
cpu0_DTLB TOTAL     ACCESS:    1053861  HIT:    1046624  MISS:       7237
cpu0_DTLB LOAD      ACCESS:     707549  HIT:     700312  MISS:       7237
cpu0_DTLB RFO       ACCESS:     346312  HIT:     346312  MISS:          0
cpu0_DTLB PREFETCH  ACCESS:          0  HIT:          0  MISS:          0
cpu0_DTLB WRITEBACK ACCESS:          0  HIT:          0  MISS:          0
cpu0_ITLB TOTAL     ACCESS:     691194  HIT:     691194  MISS:          0
cpu0_ITLB LOAD      ACCESS:     691194  HIT:     691194  MISS:          0
cpu0_ITLB RFO       ACCESS:          0  HIT:          0  MISS:          0
cpu0_ITLB PREFETCH  ACCESS:          0  HIT:          0  MISS:          0
cpu0_ITLB WRITEBACK ACCESS:          0  HIT:          0  MISS:          0
cpu0_STLB TOTAL     ACCESS:       7237  HIT:          0  MISS:       7237
cpu0_STLB LOAD      ACCESS:       7237  HIT:          0  MISS:       7237
cpu0_STLB RFO       ACCESS:          0  HIT:          0  MISS:          0
cpu0_STLB PREFETCH  ACCESS:          0  HIT:          0  MISS:          0
cpu0_STLB WRITEBACK ACCESS:          0  HIT:          0  MISS:          0
cpu0_L1D TOTAL     ACCESS:    1562661  HIT:    1500448  MISS:      62213
cpu0_L1D LOAD      ACCESS:     615337  HIT:     553126  MISS:      62211
cpu0_L1D RFO       ACCESS:     940087  HIT:     940087  MISS:          0
cpu0_L1D PREFETCH  ACCESS:          0  HIT:          0  MISS:          0
cpu0_L1D WRITEBACK ACCESS:          0  HIT:          0  MISS:          0
cpu0_L2C TOTAL     ACCESS:      89863  HIT:      27650  MISS:      62213
cpu0_L2C LOAD      ACCESS:      62211  HIT:          0  MISS:      62211
cpu0_L2C RFO       ACCESS:          0  HIT:          0  MISS:          0
cpu0_L2C PREFETCH  ACCESS:          0  HIT:          0  MISS:          0
cpu0_L2C WRITEBACK ACCESS:      27650  HIT:      27650  MISS:          0
LLC TOTAL     ACCESS:      89867  HIT:      27654  MISS:      62213
LLC LOAD      ACCESS:      62211  HIT:          0  MISS:      62211
LLC RFO       ACCESS:          0  HIT:          0  MISS:          0
LLC PREFETCH  ACCESS:          0  HIT:          0  MISS:          0
LLC WRITEBACK ACCESS:      27654  HIT:      27654  MISS:          0
Heartbeat CPU 0 instructions: 58000001 cycles: 24804316 heartbeat IPC: 0.71103 cumulative IPC: 0.710661 (Simulation time: 0 hr 23 min 37 sec) 

Region of Interest Statistics
cpu0_DTLB TOTAL     ACCESS:    1405146  HIT:    1395497  MISS:       9649
cpu0_DTLB LOAD      ACCESS:     943393  HIT:     933744  MISS:       9649
cpu0_DTLB RFO       ACCESS:     461753  HIT:     461753  MISS:          0
cpu0_DTLB PREFETCH  ACCESS:          0  HIT:          0  MISS:          0
cpu0_DTLB WRITEBACK ACCESS:          0  HIT:          0  MISS:          0
cpu0_ITLB TOTAL     ACCESS:     921614  HIT:     921614  MISS:          0
cpu0_ITLB LOAD      ACCESS:     921614  HIT:     921614  MISS:          0
cpu0_ITLB RFO       ACCESS:          0  HIT:          0  MISS:          0
cpu0_ITLB PREFETCH  ACCESS:          0  HIT:          0  MISS:          0
cpu0_ITLB WRITEBACK ACCESS:          0  HIT:          0  MISS:          0
cpu0_STLB TOTAL     ACCESS:       9649  HIT:          0  MISS:       9649
cpu0_STLB LOAD      ACCESS:       9649  HIT:          0  MISS:       9649
cpu0_STLB RFO       ACCESS:          0  HIT:          0  MISS:          0
cpu0_STLB PREFETCH  ACCESS:          0  HIT:          0  MISS:          0
cpu0_STLB WRITEBACK ACCESS:          0  HIT:          0  MISS:          0
cpu0_L1D TOTAL     ACCESS:    2083529  HIT:    2000579  MISS:      82950
cpu0_L1D LOAD      ACCESS:     820430  HIT:     737482  MISS:      82948
cpu0_L1D RFO       ACCESS:    1253450  HIT:    1253450  MISS:          0
cpu0_L1D PREFETCH  ACCESS:          0  HIT:          0  MISS:          0
cpu0_L1D WRITEBACK ACCESS:          0  HIT:          0  MISS:          0
cpu0_L2C TOTAL     ACCESS:     119816  HIT:      36866  MISS:      82950
cpu0_L2C LOAD      ACCESS:      82948  HIT:          0  MISS:      82948
cpu0_L2C RFO       ACCESS:          0  HIT:          0  MISS:          0
cpu0_L2C PREFETCH  ACCESS:          0  HIT:          0  MISS:          0
cpu0_L2C WRITEBACK ACCESS:      36866  HIT:      36866  MISS:          0
LLC TOTAL     ACCESS:     119813  HIT:      36863  MISS:      82950
LLC LOAD      ACCESS:      82948  HIT:          0  MISS:      82948
LLC RFO       ACCESS:          0  HIT:          0  MISS:          0
LLC PREFETCH  ACCESS:          0  HIT:          0  MISS:          0
LLC WRITEBACK ACCESS:      36863  HIT:      36863  MISS:          0
Heartbeat CPU 0 instructions: 60000004 cycles: 27601280 heartbeat IPC: 0.715062 cumulative IPC: 0.711537 (Simulation time: 0 hr 24 min 39 sec) 

Region of Interest Statistics
cpu0_DTLB TOTAL     ACCESS:    1759399  HIT:    1747349  MISS:      12050
cpu0_DTLB LOAD      ACCESS:    1182748  HIT:    1170698  MISS:      12050
cpu0_DTLB RFO       ACCESS:     576651  HIT:     576651  MISS:          0
cpu0_DTLB PREFETCH  ACCESS:          0  HIT:          0  MISS:          0
cpu0_DTLB WRITEBACK ACCESS:          0  HIT:          0  MISS:          0
cpu0_ITLB TOTAL     ACCESS:    1150945  HIT:    1150945  MISS:          0
cpu0_ITLB LOAD      ACCESS:    1150945  HIT:    1150945  MISS:          0
cpu0_ITLB RFO       ACCESS:          0  HIT:          0  MISS:          0
cpu0_ITLB PREFETCH  ACCESS:          0  HIT:          0  MISS:          0
cpu0_ITLB WRITEBACK ACCESS:          0  HIT:          0  MISS:          0
cpu0_L1I TOTAL     ACCESS:          1  HIT:          1  MISS:          0
cpu0_L1I LOAD      ACCESS:          1  HIT:          1  MISS:          0
cpu0_L1I RFO       ACCESS:          0  HIT:          0  MISS:          0
cpu0_L1I PREFETCH  ACCESS:          0  HIT:          0  MISS:          0
cpu0_L1I WRITEBACK ACCESS:          0  HIT:          0  MISS:          0
cpu0_STLB TOTAL     ACCESS:      12050  HIT:          0  MISS:      12050
cpu0_STLB LOAD      ACCESS:      12050  HIT:          0  MISS:      12050
cpu0_STLB RFO       ACCESS:          0  HIT:          0  MISS:          0
cpu0_STLB PREFETCH  ACCESS:          0  HIT:          0  MISS:          0
cpu0_STLB WRITEBACK ACCESS:          0  HIT:          0  MISS:          0
cpu0_L1D TOTAL     ACCESS:    2605150  HIT:    2501558  MISS:     103592
cpu0_L1D LOAD      ACCESS:    1024632  HIT:     921043  MISS:     103589
cpu0_L1D RFO       ACCESS:    1568468  HIT:    1568468  MISS:          0
cpu0_L1D PREFETCH  ACCESS:          0  HIT:          0  MISS:          0
cpu0_L1D WRITEBACK ACCESS:          0  HIT:          0  MISS:          0
cpu0_L2C TOTAL     ACCESS:     149636  HIT:      46044  MISS:     103592
cpu0_L2C LOAD      ACCESS:     103589  HIT:          0  MISS:     103589
cpu0_L2C RFO       ACCESS:          0  HIT:          0  MISS:          0
cpu0_L2C PREFETCH  ACCESS:          0  HIT:          0  MISS:          0
cpu0_L2C WRITEBACK ACCESS:      46044  HIT:      46044  MISS:          0
LLC TOTAL     ACCESS:     149629  HIT:      46037  MISS:     103592
LLC LOAD      ACCESS:     103589  HIT:          0  MISS:     103589
LLC RFO       ACCESS:          0  HIT:          0  MISS:          0
LLC PREFETCH  ACCESS:          0  HIT:          0  MISS:          0
LLC WRITEBACK ACCESS:      46037  HIT:      46037  MISS:          0
Heartbeat CPU 0 instructions: 62000002 cycles: 30382207 heartbeat IPC: 0.719184 cumulative IPC: 0.7128 (Simulation time: 0 hr 25 min 39 sec) 

Region of Interest Statistics
cpu0_DTLB TOTAL     ACCESS:    2114989  HIT:    2100544  MISS:      14445
cpu0_DTLB LOAD      ACCESS:    1423696  HIT:    1409251  MISS:      14445
cpu0_DTLB RFO       ACCESS:     691293  HIT:     691293  MISS:          0
cpu0_DTLB PREFETCH  ACCESS:          0  HIT:          0  MISS:          0
cpu0_DTLB WRITEBACK ACCESS:          0  HIT:          0  MISS:          0
cpu0_ITLB TOTAL     ACCESS:    1379780  HIT:    1379780  MISS:          0
cpu0_ITLB LOAD      ACCESS:    1379780  HIT:    1379780  MISS:          0
cpu0_ITLB RFO       ACCESS:          0  HIT:          0  MISS:          0
cpu0_ITLB PREFETCH  ACCESS:          0  HIT:          0  MISS:          0
cpu0_ITLB WRITEBACK ACCESS:          0  HIT:          0  MISS:          0
cpu0_L1I TOTAL     ACCESS:          1  HIT:          1  MISS:          0
cpu0_L1I LOAD      ACCESS:          1  HIT:          1  MISS:          0
cpu0_L1I RFO       ACCESS:          0  HIT:          0  MISS:          0
cpu0_L1I PREFETCH  ACCESS:          0  HIT:          0  MISS:          0
cpu0_L1I WRITEBACK ACCESS:          0  HIT:          0  MISS:          0
cpu0_STLB TOTAL     ACCESS:      14445  HIT:          0  MISS:      14445
cpu0_STLB LOAD      ACCESS:      14445  HIT:          0  MISS:      14445
cpu0_STLB RFO       ACCESS:          0  HIT:          0  MISS:          0
cpu0_STLB PREFETCH  ACCESS:          0  HIT:          0  MISS:          0
cpu0_STLB WRITEBACK ACCESS:          0  HIT:          0  MISS:          0
cpu0_L1D TOTAL     ACCESS:    3127016  HIT:    3002831  MISS:     124185
cpu0_L1D LOAD      ACCESS:    1228325  HIT:    1104143  MISS:     124182
cpu0_L1D RFO       ACCESS:    1884246  HIT:    1884246  MISS:          0
cpu0_L1D PREFETCH  ACCESS:          0  HIT:          0  MISS:          0
cpu0_L1D WRITEBACK ACCESS:          0  HIT:          0  MISS:          0
cpu0_L2C TOTAL     ACCESS:     179379  HIT:      55194  MISS:     124185
cpu0_L2C LOAD      ACCESS:     124182  HIT:          0  MISS:     124182
cpu0_L2C RFO       ACCESS:          0  HIT:          0  MISS:          0
cpu0_L2C PREFETCH  ACCESS:          0  HIT:          0  MISS:          0
cpu0_L2C WRITEBACK ACCESS:      55194  HIT:      55194  MISS:          0
LLC TOTAL     ACCESS:     179378  HIT:      55193  MISS:     124185
LLC LOAD      ACCESS:     124182  HIT:          0  MISS:     124182
LLC RFO       ACCESS:          0  HIT:          0  MISS:          0
LLC PREFETCH  ACCESS:          0  HIT:          0  MISS:          0
LLC WRITEBACK ACCESS:      55193  HIT:      55193  MISS:          0
Heartbeat CPU 0 instructions: 64000002 cycles: 33161379 heartbeat IPC: 0.719639 cumulative IPC: 0.713769 (Simulation time: 0 hr 26 min 34 sec) 

Region of Interest Statistics
cpu0_DTLB TOTAL     ACCESS:    2470615  HIT:    2453774  MISS:      16841
cpu0_DTLB LOAD      ACCESS:    1664669  HIT:    1647828  MISS:      16841
cpu0_DTLB RFO       ACCESS:     805946  HIT:     805946  MISS:          0
cpu0_DTLB PREFETCH  ACCESS:          0  HIT:          0  MISS:          0
cpu0_DTLB WRITEBACK ACCESS:          0  HIT:          0  MISS:          0
cpu0_ITLB TOTAL     ACCESS:    1608618  HIT:    1608618  MISS:          0
cpu0_ITLB LOAD      ACCESS:    1608618  HIT:    1608618  MISS:          0
cpu0_ITLB RFO       ACCESS:          0  HIT:          0  MISS:          0
cpu0_ITLB PREFETCH  ACCESS:          0  HIT:          0  MISS:          0
cpu0_ITLB WRITEBACK ACCESS:          0  HIT:          0  MISS:          0
cpu0_L1I TOTAL     ACCESS:          1  HIT:          1  MISS:          0
cpu0_L1I LOAD      ACCESS:          1  HIT:          1  MISS:          0
cpu0_L1I RFO       ACCESS:          0  HIT:          0  MISS:          0
cpu0_L1I PREFETCH  ACCESS:          0  HIT:          0  MISS:          0
cpu0_L1I WRITEBACK ACCESS:          0  HIT:          0  MISS:          0
cpu0_STLB TOTAL     ACCESS:      16841  HIT:          0  MISS:      16841
cpu0_STLB LOAD      ACCESS:      16841  HIT:          0  MISS:      16841
cpu0_STLB RFO       ACCESS:          0  HIT:          0  MISS:          0
cpu0_STLB PREFETCH  ACCESS:          0  HIT:          0  MISS:          0
cpu0_STLB WRITEBACK ACCESS:          0  HIT:          0  MISS:          0
cpu0_L1D TOTAL     ACCESS:    3648934  HIT:    3504152  MISS:     144782
cpu0_L1D LOAD      ACCESS:    1432052  HIT:    1287274  MISS:     144778
cpu0_L1D RFO       ACCESS:    2200041  HIT:    2200041  MISS:          0
cpu0_L1D PREFETCH  ACCESS:          0  HIT:          0  MISS:          0
cpu0_L1D WRITEBACK ACCESS:          0  HIT:          0  MISS:          0
cpu0_L2C TOTAL     ACCESS:     209129  HIT:      64347  MISS:     144782
cpu0_L2C LOAD      ACCESS:     144778  HIT:          0  MISS:     144778
cpu0_L2C RFO       ACCESS:          0  HIT:          0  MISS:          0
cpu0_L2C PREFETCH  ACCESS:          0  HIT:          0  MISS:          0
cpu0_L2C WRITEBACK ACCESS:      64347  HIT:      64347  MISS:          0
LLC TOTAL     ACCESS:     209131  HIT:      64349  MISS:     144782
LLC LOAD      ACCESS:     144778  HIT:          0  MISS:     144778
LLC RFO       ACCESS:          0  HIT:          0  MISS:          0
LLC PREFETCH  ACCESS:          0  HIT:          0  MISS:          0
LLC WRITEBACK ACCESS:      64349  HIT:      64349  MISS:          0
Heartbeat CPU 0 instructions: 66000004 cycles: 35931959 heartbeat IPC: 0.721871 cumulative IPC: 0.714772 (Simulation time: 0 hr 27 min 32 sec) 

Region of Interest Statistics
cpu0_DTLB TOTAL     ACCESS:    2826242  HIT:    2807005  MISS:      19237
cpu0_DTLB LOAD      ACCESS:    1905646  HIT:    1886409  MISS:      19237
cpu0_DTLB RFO       ACCESS:     920596  HIT:     920596  MISS:          0
cpu0_DTLB PREFETCH  ACCESS:          0  HIT:          0  MISS:          0
cpu0_DTLB WRITEBACK ACCESS:          0  HIT:          0  MISS:          0
cpu0_ITLB TOTAL     ACCESS:    1837445  HIT:    1837445  MISS:          0
cpu0_ITLB LOAD      ACCESS:    1837445  HIT:    1837445  MISS:          0
cpu0_ITLB RFO       ACCESS:          0  HIT:          0  MISS:          0
cpu0_ITLB PREFETCH  ACCESS:          0  HIT:          0  MISS:          0
cpu0_ITLB WRITEBACK ACCESS:          0  HIT:          0  MISS:          0
cpu0_L1I TOTAL     ACCESS:          1  HIT:          1  MISS:          0
cpu0_L1I LOAD      ACCESS:          1  HIT:          1  MISS:          0
cpu0_L1I RFO       ACCESS:          0  HIT:          0  MISS:          0
cpu0_L1I PREFETCH  ACCESS:          0  HIT:          0  MISS:          0
cpu0_L1I WRITEBACK ACCESS:          0  HIT:          0  MISS:          0
cpu0_STLB TOTAL     ACCESS:      19237  HIT:          0  MISS:      19237
cpu0_STLB LOAD      ACCESS:      19237  HIT:          0  MISS:      19237
cpu0_STLB RFO       ACCESS:          0  HIT:          0  MISS:          0
cpu0_STLB PREFETCH  ACCESS:          0  HIT:          0  MISS:          0
cpu0_STLB WRITEBACK ACCESS:          0  HIT:          0  MISS:          0
cpu0_L1D TOTAL     ACCESS:    4170852  HIT:    4005473  MISS:     165379
cpu0_L1D LOAD      ACCESS:    1635781  HIT:    1470407  MISS:     165374
cpu0_L1D RFO       ACCESS:    2515834  HIT:    2515834  MISS:          0
cpu0_L1D PREFETCH  ACCESS:          0  HIT:          0  MISS:          0
cpu0_L1D WRITEBACK ACCESS:          0  HIT:          0  MISS:          0
cpu0_L2C TOTAL     ACCESS:     238884  HIT:      73505  MISS:     165379
cpu0_L2C LOAD      ACCESS:     165374  HIT:          0  MISS:     165374
cpu0_L2C RFO       ACCESS:          0  HIT:          0  MISS:          0
cpu0_L2C PREFETCH  ACCESS:          0  HIT:          0  MISS:          0
cpu0_L2C WRITEBACK ACCESS:      73505  HIT:      73505  MISS:          0
LLC TOTAL     ACCESS:     238886  HIT:      73507  MISS:     165379
LLC LOAD      ACCESS:     165374  HIT:          0  MISS:     165374
LLC RFO       ACCESS:          0  HIT:          0  MISS:          0
LLC PREFETCH  ACCESS:          0  HIT:          0  MISS:          0
LLC WRITEBACK ACCESS:      73507  HIT:      73507  MISS:          0
Heartbeat CPU 0 instructions: 68000002 cycles: 38705392 heartbeat IPC: 0.721127 cumulative IPC: 0.715472 (Simulation time: 0 hr 28 min 28 sec) 

Region of Interest Statistics
cpu0_DTLB TOTAL     ACCESS:    3181871  HIT:    3160240  MISS:      21631
cpu0_DTLB LOAD      ACCESS:    2146634  HIT:    2125003  MISS:      21631
cpu0_DTLB RFO       ACCESS:    1035237  HIT:    1035237  MISS:          0
cpu0_DTLB PREFETCH  ACCESS:          0  HIT:          0  MISS:          0
cpu0_DTLB WRITEBACK ACCESS:          0  HIT:          0  MISS:          0
cpu0_ITLB TOTAL     ACCESS:    2066280  HIT:    2066280  MISS:          0
cpu0_ITLB LOAD      ACCESS:    2066280  HIT:    2066280  MISS:          0
cpu0_ITLB RFO       ACCESS:          0  HIT:          0  MISS:          0
cpu0_ITLB PREFETCH  ACCESS:          0  HIT:          0  MISS:          0
cpu0_ITLB WRITEBACK ACCESS:          0  HIT:          0  MISS:          0
cpu0_L1I TOTAL     ACCESS:          1  HIT:          1  MISS:          0
cpu0_L1I LOAD      ACCESS:          1  HIT:          1  MISS:          0
cpu0_L1I RFO       ACCESS:          0  HIT:          0  MISS:          0
cpu0_L1I PREFETCH  ACCESS:          0  HIT:          0  MISS:          0
cpu0_L1I WRITEBACK ACCESS:          0  HIT:          0  MISS:          0
cpu0_STLB TOTAL     ACCESS:      21631  HIT:          0  MISS:      21631
cpu0_STLB LOAD      ACCESS:      21631  HIT:          0  MISS:      21631
cpu0_STLB RFO       ACCESS:          0  HIT:          0  MISS:          0
cpu0_STLB PREFETCH  ACCESS:          0  HIT:          0  MISS:          0
cpu0_STLB WRITEBACK ACCESS:          0  HIT:          0  MISS:          0
cpu0_L1D TOTAL     ACCESS:    4692766  HIT:    4506794  MISS:     185972
cpu0_L1D LOAD      ACCESS:    1839521  HIT:    1653554  MISS:     185967
cpu0_L1D RFO       ACCESS:    2831614  HIT:    2831614  MISS:          0
cpu0_L1D PREFETCH  ACCESS:          0  HIT:          0  MISS:          0
cpu0_L1D WRITEBACK ACCESS:          0  HIT:          0  MISS:          0
cpu0_L2C TOTAL     ACCESS:     268629  HIT:      82657  MISS:     185972
cpu0_L2C LOAD      ACCESS:     185967  HIT:          0  MISS:     185967
cpu0_L2C RFO       ACCESS:          0  HIT:          0  MISS:          0
cpu0_L2C PREFETCH  ACCESS:          0  HIT:          0  MISS:          0
cpu0_L2C WRITEBACK ACCESS:      82657  HIT:      82657  MISS:          0
LLC TOTAL     ACCESS:     268631  HIT:      82659  MISS:     185972
LLC LOAD      ACCESS:     185967  HIT:          0  MISS:     185967
LLC RFO       ACCESS:          0  HIT:          0  MISS:          0
LLC PREFETCH  ACCESS:          0  HIT:          0  MISS:          0
LLC WRITEBACK ACCESS:      82659  HIT:      82659  MISS:          0
Heartbeat CPU 0 instructions: 70000002 cycles: 41481990 heartbeat IPC: 0.720306 cumulative IPC: 0.715953 (Simulation time: 0 hr 29 min 29 sec) 

Region of Interest Statistics
cpu0_DTLB TOTAL     ACCESS:    3537499  HIT:    3513471  MISS:      24028
cpu0_DTLB LOAD      ACCESS:    2387606  HIT:    2363578  MISS:      24028
cpu0_DTLB RFO       ACCESS:    1149893  HIT:    1149893  MISS:          0
cpu0_DTLB PREFETCH  ACCESS:          0  HIT:          0  MISS:          0
cpu0_DTLB WRITEBACK ACCESS:          0  HIT:          0  MISS:          0
cpu0_ITLB TOTAL     ACCESS:    2295115  HIT:    2295115  MISS:          0
cpu0_ITLB LOAD      ACCESS:    2295115  HIT:    2295115  MISS:          0
cpu0_ITLB RFO       ACCESS:          0  HIT:          0  MISS:          0
cpu0_ITLB PREFETCH  ACCESS:          0  HIT:          0  MISS:          0
cpu0_ITLB WRITEBACK ACCESS:          0  HIT:          0  MISS:          0
cpu0_L1I TOTAL     ACCESS:          1  HIT:          1  MISS:          0
cpu0_L1I LOAD      ACCESS:          1  HIT:          1  MISS:          0
cpu0_L1I RFO       ACCESS:          0  HIT:          0  MISS:          0
cpu0_L1I PREFETCH  ACCESS:          0  HIT:          0  MISS:          0
cpu0_L1I WRITEBACK ACCESS:          0  HIT:          0  MISS:          0
cpu0_STLB TOTAL     ACCESS:      24028  HIT:          0  MISS:      24028
cpu0_STLB LOAD      ACCESS:      24028  HIT:          0  MISS:      24028
cpu0_STLB RFO       ACCESS:          0  HIT:          0  MISS:          0
cpu0_STLB PREFETCH  ACCESS:          0  HIT:          0  MISS:          0
cpu0_STLB WRITEBACK ACCESS:          0  HIT:          0  MISS:          0
cpu0_L1D TOTAL     ACCESS:    5214679  HIT:    5008109  MISS:     206570
cpu0_L1D LOAD      ACCESS:    2043240  HIT:    1836676  MISS:     206564
cpu0_L1D RFO       ACCESS:    3147411  HIT:    3147411  MISS:          0
cpu0_L1D PREFETCH  ACCESS:          0  HIT:          0  MISS:          0
cpu0_L1D WRITEBACK ACCESS:          0  HIT:          0  MISS:          0
cpu0_L2C TOTAL     ACCESS:     298376  HIT:      91806  MISS:     206570
cpu0_L2C LOAD      ACCESS:     206564  HIT:          0  MISS:     206564
cpu0_L2C RFO       ACCESS:          0  HIT:          0  MISS:          0
cpu0_L2C PREFETCH  ACCESS:          0  HIT:          0  MISS:          0
cpu0_L2C WRITEBACK ACCESS:      91806  HIT:      91806  MISS:          0
LLC TOTAL     ACCESS:     298377  HIT:      91807  MISS:     206570
LLC LOAD      ACCESS:     206564  HIT:          0  MISS:     206564
LLC RFO       ACCESS:          0  HIT:          0  MISS:          0
LLC PREFETCH  ACCESS:          0  HIT:          0  MISS:          0
LLC WRITEBACK ACCESS:      91807  HIT:      91807  MISS:          0
Heartbeat CPU 0 instructions: 72000001 cycles: 44246011 heartbeat IPC: 0.723583 cumulative IPC: 0.71664 (Simulation time: 0 hr 30 min 27 sec) 

Region of Interest Statistics
cpu0_DTLB TOTAL     ACCESS:    3893136  HIT:    3866712  MISS:      26424
cpu0_DTLB LOAD      ACCESS:    2628594  HIT:    2602170  MISS:      26424
cpu0_DTLB RFO       ACCESS:    1264542  HIT:    1264542  MISS:          0
cpu0_DTLB PREFETCH  ACCESS:          0  HIT:          0  MISS:          0
cpu0_DTLB WRITEBACK ACCESS:          0  HIT:          0  MISS:          0
cpu0_ITLB TOTAL     ACCESS:    2523945  HIT:    2523945  MISS:          0
cpu0_ITLB LOAD      ACCESS:    2523945  HIT:    2523945  MISS:          0
cpu0_ITLB RFO       ACCESS:          0  HIT:          0  MISS:          0
cpu0_ITLB PREFETCH  ACCESS:          0  HIT:          0  MISS:          0
cpu0_ITLB WRITEBACK ACCESS:          0  HIT:          0  MISS:          0
cpu0_L1I TOTAL     ACCESS:          1  HIT:          1  MISS:          0
cpu0_L1I LOAD      ACCESS:          1  HIT:          1  MISS:          0
cpu0_L1I RFO       ACCESS:          0  HIT:          0  MISS:          0
cpu0_L1I PREFETCH  ACCESS:          0  HIT:          0  MISS:          0
cpu0_L1I WRITEBACK ACCESS:          0  HIT:          0  MISS:          0
cpu0_STLB TOTAL     ACCESS:      26424  HIT:          0  MISS:      26424
cpu0_STLB LOAD      ACCESS:      26424  HIT:          0  MISS:      26424
cpu0_STLB RFO       ACCESS:          0  HIT:          0  MISS:          0
cpu0_STLB PREFETCH  ACCESS:          0  HIT:          0  MISS:          0
cpu0_STLB WRITEBACK ACCESS:          0  HIT:          0  MISS:          0
cpu0_L1D TOTAL     ACCESS:    5736621  HIT:    5509456  MISS:     227165
cpu0_L1D LOAD      ACCESS:    2246998  HIT:    2019839  MISS:     227159
cpu0_L1D RFO       ACCESS:    3463199  HIT:    3463199  MISS:          0
cpu0_L1D PREFETCH  ACCESS:          0  HIT:          0  MISS:          0
cpu0_L1D WRITEBACK ACCESS:          0  HIT:          0  MISS:          0
cpu0_L2C TOTAL     ACCESS:     328125  HIT:     100960  MISS:     227165
cpu0_L2C LOAD      ACCESS:     227159  HIT:          0  MISS:     227159
cpu0_L2C RFO       ACCESS:          0  HIT:          0  MISS:          0
cpu0_L2C PREFETCH  ACCESS:          0  HIT:          0  MISS:          0
cpu0_L2C WRITEBACK ACCESS:     100960  HIT:     100960  MISS:          0
LLC TOTAL     ACCESS:     328121  HIT:     100956  MISS:     227165
LLC LOAD      ACCESS:     227159  HIT:          0  MISS:     227159
LLC RFO       ACCESS:          0  HIT:          0  MISS:          0
LLC PREFETCH  ACCESS:          0  HIT:          0  MISS:          0
LLC WRITEBACK ACCESS:     100956  HIT:     100956  MISS:          0
Heartbeat CPU 0 instructions: 74000002 cycles: 47008043 heartbeat IPC: 0.724105 cumulative IPC: 0.717256 (Simulation time: 0 hr 31 min 27 sec) 

Region of Interest Statistics
cpu0_DTLB TOTAL     ACCESS:    4248784  HIT:    4219966  MISS:      28818
cpu0_DTLB LOAD      ACCESS:    2869594  HIT:    2840776  MISS:      28818
cpu0_DTLB RFO       ACCESS:    1379190  HIT:    1379190  MISS:          0
cpu0_DTLB PREFETCH  ACCESS:          0  HIT:          0  MISS:          0
cpu0_DTLB WRITEBACK ACCESS:          0  HIT:          0  MISS:          0
cpu0_ITLB TOTAL     ACCESS:    2752780  HIT:    2752780  MISS:          0
cpu0_ITLB LOAD      ACCESS:    2752780  HIT:    2752780  MISS:          0
cpu0_ITLB RFO       ACCESS:          0  HIT:          0  MISS:          0
cpu0_ITLB PREFETCH  ACCESS:          0  HIT:          0  MISS:          0
cpu0_ITLB WRITEBACK ACCESS:          0  HIT:          0  MISS:          0
cpu0_L1I TOTAL     ACCESS:          1  HIT:          1  MISS:          0
cpu0_L1I LOAD      ACCESS:          1  HIT:          1  MISS:          0
cpu0_L1I RFO       ACCESS:          0  HIT:          0  MISS:          0
cpu0_L1I PREFETCH  ACCESS:          0  HIT:          0  MISS:          0
cpu0_L1I WRITEBACK ACCESS:          0  HIT:          0  MISS:          0
cpu0_STLB TOTAL     ACCESS:      28818  HIT:          0  MISS:      28818
cpu0_STLB LOAD      ACCESS:      28818  HIT:          0  MISS:      28818
cpu0_STLB RFO       ACCESS:          0  HIT:          0  MISS:          0
cpu0_STLB PREFETCH  ACCESS:          0  HIT:          0  MISS:          0
cpu0_STLB WRITEBACK ACCESS:          0  HIT:          0  MISS:          0
cpu0_L1D TOTAL     ACCESS:    6258562  HIT:    6010803  MISS:     247759
cpu0_L1D LOAD      ACCESS:    2450761  HIT:    2203009  MISS:     247752
cpu0_L1D RFO       ACCESS:    3778983  HIT:    3778983  MISS:          0
cpu0_L1D PREFETCH  ACCESS:          0  HIT:          0  MISS:          0
cpu0_L1D WRITEBACK ACCESS:          0  HIT:          0  MISS:          0
cpu0_L2C TOTAL     ACCESS:     357875  HIT:     110116  MISS:     247759
cpu0_L2C LOAD      ACCESS:     247752  HIT:          0  MISS:     247752
cpu0_L2C RFO       ACCESS:          0  HIT:          0  MISS:          0
cpu0_L2C PREFETCH  ACCESS:          0  HIT:          0  MISS:          0
cpu0_L2C WRITEBACK ACCESS:     110116  HIT:     110116  MISS:          0
LLC TOTAL     ACCESS:     357878  HIT:     110119  MISS:     247759
LLC LOAD      ACCESS:     247752  HIT:          0  MISS:     247752
LLC RFO       ACCESS:          0  HIT:          0  MISS:          0
LLC PREFETCH  ACCESS:          0  HIT:          0  MISS:          0
LLC WRITEBACK ACCESS:     110119  HIT:     110119  MISS:          0
Heartbeat CPU 0 instructions: 76000001 cycles: 49763212 heartbeat IPC: 0.725908 cumulative IPC: 0.717914 (Simulation time: 0 hr 32 min 25 sec) 

Region of Interest Statistics
cpu0_DTLB TOTAL     ACCESS:    4604457  HIT:    4573242  MISS:      31215
cpu0_DTLB LOAD      ACCESS:    3110620  HIT:    3079405  MISS:      31215
cpu0_DTLB RFO       ACCESS:    1493837  HIT:    1493837  MISS:          0
cpu0_DTLB PREFETCH  ACCESS:          0  HIT:          0  MISS:          0
cpu0_DTLB WRITEBACK ACCESS:          0  HIT:          0  MISS:          0
cpu0_ITLB TOTAL     ACCESS:    2981610  HIT:    2981610  MISS:          0
cpu0_ITLB LOAD      ACCESS:    2981610  HIT:    2981610  MISS:          0
cpu0_ITLB RFO       ACCESS:          0  HIT:          0  MISS:          0
cpu0_ITLB PREFETCH  ACCESS:          0  HIT:          0  MISS:          0
cpu0_ITLB WRITEBACK ACCESS:          0  HIT:          0  MISS:          0
cpu0_L1I TOTAL     ACCESS:          1  HIT:          1  MISS:          0
cpu0_L1I LOAD      ACCESS:          1  HIT:          1  MISS:          0
cpu0_L1I RFO       ACCESS:          0  HIT:          0  MISS:          0
cpu0_L1I PREFETCH  ACCESS:          0  HIT:          0  MISS:          0
cpu0_L1I WRITEBACK ACCESS:          0  HIT:          0  MISS:          0
cpu0_STLB TOTAL     ACCESS:      31215  HIT:          0  MISS:      31215
cpu0_STLB LOAD      ACCESS:      31215  HIT:          0  MISS:      31215
cpu0_STLB RFO       ACCESS:          0  HIT:          0  MISS:          0
cpu0_STLB PREFETCH  ACCESS:          0  HIT:          0  MISS:          0
cpu0_STLB WRITEBACK ACCESS:          0  HIT:          0  MISS:          0
cpu0_L1D TOTAL     ACCESS:    6780552  HIT:    6512197  MISS:     268355
cpu0_L1D LOAD      ACCESS:    2654557  HIT:    2386209  MISS:     268348
cpu0_L1D RFO       ACCESS:    4094780  HIT:    4094780  MISS:          0
cpu0_L1D PREFETCH  ACCESS:          0  HIT:          0  MISS:          0
cpu0_L1D WRITEBACK ACCESS:          0  HIT:          0  MISS:          0
cpu0_L2C TOTAL     ACCESS:     387625  HIT:     119270  MISS:     268355
cpu0_L2C LOAD      ACCESS:     268348  HIT:          0  MISS:     268348
cpu0_L2C RFO       ACCESS:          0  HIT:          0  MISS:          0
cpu0_L2C PREFETCH  ACCESS:          0  HIT:          0  MISS:          0
cpu0_L2C WRITEBACK ACCESS:     119270  HIT:     119270  MISS:          0
LLC TOTAL     ACCESS:     387624  HIT:     119269  MISS:     268355
LLC LOAD      ACCESS:     268348  HIT:          0  MISS:     268348
LLC RFO       ACCESS:          0  HIT:          0  MISS:          0
LLC PREFETCH  ACCESS:          0  HIT:          0  MISS:          0
LLC WRITEBACK ACCESS:     119269  HIT:     119269  MISS:          0
Heartbeat CPU 0 instructions: 78000003 cycles: 52527489 heartbeat IPC: 0.723517 cumulative IPC: 0.718312 (Simulation time: 0 hr 33 min 26 sec) 

Region of Interest Statistics
cpu0_DTLB TOTAL     ACCESS:    4960125  HIT:    4926514  MISS:      33611
cpu0_DTLB LOAD      ACCESS:    3351632  HIT:    3318021  MISS:      33611
cpu0_DTLB RFO       ACCESS:    1608493  HIT:    1608493  MISS:          0
cpu0_DTLB PREFETCH  ACCESS:          0  HIT:          0  MISS:          0
cpu0_DTLB WRITEBACK ACCESS:          0  HIT:          0  MISS:          0
cpu0_ITLB TOTAL     ACCESS:    3210445  HIT:    3210445  MISS:          0
cpu0_ITLB LOAD      ACCESS:    3210445  HIT:    3210445  MISS:          0
cpu0_ITLB RFO       ACCESS:          0  HIT:          0  MISS:          0
cpu0_ITLB PREFETCH  ACCESS:          0  HIT:          0  MISS:          0
cpu0_ITLB WRITEBACK ACCESS:          0  HIT:          0  MISS:          0
cpu0_L1I TOTAL     ACCESS:          1  HIT:          1  MISS:          0
cpu0_L1I LOAD      ACCESS:          1  HIT:          1  MISS:          0
cpu0_L1I RFO       ACCESS:          0  HIT:          0  MISS:          0
cpu0_L1I PREFETCH  ACCESS:          0  HIT:          0  MISS:          0
cpu0_L1I WRITEBACK ACCESS:          0  HIT:          0  MISS:          0
cpu0_STLB TOTAL     ACCESS:      33611  HIT:          0  MISS:      33611
cpu0_STLB LOAD      ACCESS:      33611  HIT:          0  MISS:      33611
cpu0_STLB RFO       ACCESS:          0  HIT:          0  MISS:          0
cpu0_STLB PREFETCH  ACCESS:          0  HIT:          0  MISS:          0
cpu0_STLB WRITEBACK ACCESS:          0  HIT:          0  MISS:          0
cpu0_L1D TOTAL     ACCESS:    7302524  HIT:    7013572  MISS:     288952
cpu0_L1D LOAD      ACCESS:    2858344  HIT:    2569400  MISS:     288944
cpu0_L1D RFO       ACCESS:    4410569  HIT:    4410569  MISS:          0
cpu0_L1D PREFETCH  ACCESS:          0  HIT:          0  MISS:          0
cpu0_L1D WRITEBACK ACCESS:          0  HIT:          0  MISS:          0
cpu0_L2C TOTAL     ACCESS:     417372  HIT:     128420  MISS:     288952
cpu0_L2C LOAD      ACCESS:     288944  HIT:          0  MISS:     288944
cpu0_L2C RFO       ACCESS:          0  HIT:          0  MISS:          0
cpu0_L2C PREFETCH  ACCESS:          0  HIT:          0  MISS:          0
cpu0_L2C WRITEBACK ACCESS:     128420  HIT:     128420  MISS:          0
LLC TOTAL     ACCESS:     417376  HIT:     128424  MISS:     288952
LLC LOAD      ACCESS:     288944  HIT:          0  MISS:     288944
LLC RFO       ACCESS:          0  HIT:          0  MISS:          0
LLC PREFETCH  ACCESS:          0  HIT:          0  MISS:          0
LLC WRITEBACK ACCESS:     128424  HIT:     128424  MISS:          0
Heartbeat CPU 0 instructions: 80000002 cycles: 55278933 heartbeat IPC: 0.726891 cumulative IPC: 0.718877 (Simulation time: 0 hr 34 min 26 sec) 

Region of Interest Statistics
cpu0_DTLB TOTAL     ACCESS:    5315793  HIT:    5279788  MISS:      36005
cpu0_DTLB LOAD      ACCESS:    3592659  HIT:    3556654  MISS:      36005
cpu0_DTLB RFO       ACCESS:    1723134  HIT:    1723134  MISS:          0
cpu0_DTLB PREFETCH  ACCESS:          0  HIT:          0  MISS:          0
cpu0_DTLB WRITEBACK ACCESS:          0  HIT:          0  MISS:          0
cpu0_ITLB TOTAL     ACCESS:    3439279  HIT:    3439279  MISS:          0
cpu0_ITLB LOAD      ACCESS:    3439279  HIT:    3439279  MISS:          0
cpu0_ITLB RFO       ACCESS:          0  HIT:          0  MISS:          0
cpu0_ITLB PREFETCH  ACCESS:          0  HIT:          0  MISS:          0
cpu0_ITLB WRITEBACK ACCESS:          0  HIT:          0  MISS:          0
cpu0_L1I TOTAL     ACCESS:          1  HIT:          1  MISS:          0
cpu0_L1I LOAD      ACCESS:          1  HIT:          1  MISS:          0
cpu0_L1I RFO       ACCESS:          0  HIT:          0  MISS:          0
cpu0_L1I PREFETCH  ACCESS:          0  HIT:          0  MISS:          0
cpu0_L1I WRITEBACK ACCESS:          0  HIT:          0  MISS:          0
cpu0_STLB TOTAL     ACCESS:      36005  HIT:          0  MISS:      36005
cpu0_STLB LOAD      ACCESS:      36005  HIT:          0  MISS:      36005
cpu0_STLB RFO       ACCESS:          0  HIT:          0  MISS:          0
cpu0_STLB PREFETCH  ACCESS:          0  HIT:          0  MISS:          0
cpu0_STLB WRITEBACK ACCESS:          0  HIT:          0  MISS:          0
cpu0_L1D TOTAL     ACCESS:    7824475  HIT:    7514930  MISS:     309545
cpu0_L1D LOAD      ACCESS:    3062117  HIT:    2752580  MISS:     309537
cpu0_L1D RFO       ACCESS:    4726353  HIT:    4726353  MISS:          0
cpu0_L1D PREFETCH  ACCESS:          0  HIT:          0  MISS:          0
cpu0_L1D WRITEBACK ACCESS:          0  HIT:          0  MISS:          0
cpu0_L2C TOTAL     ACCESS:     447117  HIT:     137572  MISS:     309545
cpu0_L2C LOAD      ACCESS:     309537  HIT:          0  MISS:     309537
cpu0_L2C RFO       ACCESS:          0  HIT:          0  MISS:          0
cpu0_L2C PREFETCH  ACCESS:          0  HIT:          0  MISS:          0
cpu0_L2C WRITEBACK ACCESS:     137572  HIT:     137572  MISS:          0
LLC TOTAL     ACCESS:     447122  HIT:     137577  MISS:     309545
LLC LOAD      ACCESS:     309537  HIT:          0  MISS:     309537
LLC RFO       ACCESS:          0  HIT:          0  MISS:          0
LLC PREFETCH  ACCESS:          0  HIT:          0  MISS:          0
LLC WRITEBACK ACCESS:     137577  HIT:     137577  MISS:          0
Heartbeat CPU 0 instructions: 82000002 cycles: 58036450 heartbeat IPC: 0.72529 cumulative IPC: 0.719275 (Simulation time: 0 hr 35 min 24 sec) 

Region of Interest Statistics
cpu0_DTLB TOTAL     ACCESS:    5671466  HIT:    5633064  MISS:      38402
cpu0_DTLB LOAD      ACCESS:    3833676  HIT:    3795274  MISS:      38402
cpu0_DTLB RFO       ACCESS:    1837790  HIT:    1837790  MISS:          0
cpu0_DTLB PREFETCH  ACCESS:          0  HIT:          0  MISS:          0
cpu0_DTLB WRITEBACK ACCESS:          0  HIT:          0  MISS:          0
cpu0_ITLB TOTAL     ACCESS:    3668115  HIT:    3668115  MISS:          0
cpu0_ITLB LOAD      ACCESS:    3668115  HIT:    3668115  MISS:          0
cpu0_ITLB RFO       ACCESS:          0  HIT:          0  MISS:          0
cpu0_ITLB PREFETCH  ACCESS:          0  HIT:          0  MISS:          0
cpu0_ITLB WRITEBACK ACCESS:          0  HIT:          0  MISS:          0
cpu0_L1I TOTAL     ACCESS:          1  HIT:          1  MISS:          0
cpu0_L1I LOAD      ACCESS:          1  HIT:          1  MISS:          0
cpu0_L1I RFO       ACCESS:          0  HIT:          0  MISS:          0
cpu0_L1I PREFETCH  ACCESS:          0  HIT:          0  MISS:          0
cpu0_L1I WRITEBACK ACCESS:          0  HIT:          0  MISS:          0
cpu0_STLB TOTAL     ACCESS:      38402  HIT:          0  MISS:      38402
cpu0_STLB LOAD      ACCESS:      38402  HIT:          0  MISS:      38402
cpu0_STLB RFO       ACCESS:          0  HIT:          0  MISS:          0
cpu0_STLB PREFETCH  ACCESS:          0  HIT:          0  MISS:          0
cpu0_STLB WRITEBACK ACCESS:          0  HIT:          0  MISS:          0
cpu0_L1D TOTAL     ACCESS:    8346453  HIT:    8016310  MISS:     330143
cpu0_L1D LOAD      ACCESS:    3265902  HIT:    2935768  MISS:     330134
cpu0_L1D RFO       ACCESS:    5042149  HIT:    5042149  MISS:          0
cpu0_L1D PREFETCH  ACCESS:          0  HIT:          0  MISS:          0
cpu0_L1D WRITEBACK ACCESS:          0  HIT:          0  MISS:          0
cpu0_L2C TOTAL     ACCESS:     476873  HIT:     146730  MISS:     330143
cpu0_L2C LOAD      ACCESS:     330134  HIT:          0  MISS:     330134
cpu0_L2C RFO       ACCESS:          0  HIT:          0  MISS:          0
cpu0_L2C PREFETCH  ACCESS:          0  HIT:          0  MISS:          0
cpu0_L2C WRITEBACK ACCESS:     146730  HIT:     146730  MISS:          0
LLC TOTAL     ACCESS:     476866  HIT:     146723  MISS:     330143
LLC LOAD      ACCESS:     330134  HIT:          0  MISS:     330134
LLC RFO       ACCESS:          0  HIT:          0  MISS:          0
LLC PREFETCH  ACCESS:          0  HIT:          0  MISS:          0
LLC WRITEBACK ACCESS:     146723  HIT:     146723  MISS:          0
Heartbeat CPU 0 instructions: 84000001 cycles: 60794843 heartbeat IPC: 0.72506 cumulative IPC: 0.719612 (Simulation time: 0 hr 36 min 23 sec) 

Region of Interest Statistics
cpu0_DTLB TOTAL     ACCESS:    6027134  HIT:    5986338  MISS:      40796
cpu0_DTLB LOAD      ACCESS:    4074696  HIT:    4033900  MISS:      40796
cpu0_DTLB RFO       ACCESS:    1952438  HIT:    1952438  MISS:          0
cpu0_DTLB PREFETCH  ACCESS:          0  HIT:          0  MISS:          0
cpu0_DTLB WRITEBACK ACCESS:          0  HIT:          0  MISS:          0
cpu0_ITLB TOTAL     ACCESS:    3896945  HIT:    3896945  MISS:          0
cpu0_ITLB LOAD      ACCESS:    3896945  HIT:    3896945  MISS:          0
cpu0_ITLB RFO       ACCESS:          0  HIT:          0  MISS:          0
cpu0_ITLB PREFETCH  ACCESS:          0  HIT:          0  MISS:          0
cpu0_ITLB WRITEBACK ACCESS:          0  HIT:          0  MISS:          0
cpu0_L1I TOTAL     ACCESS:          1  HIT:          1  MISS:          0
cpu0_L1I LOAD      ACCESS:          1  HIT:          1  MISS:          0
cpu0_L1I RFO       ACCESS:          0  HIT:          0  MISS:          0
cpu0_L1I PREFETCH  ACCESS:          0  HIT:          0  MISS:          0
cpu0_L1I WRITEBACK ACCESS:          0  HIT:          0  MISS:          0
cpu0_STLB TOTAL     ACCESS:      40796  HIT:          0  MISS:      40796
cpu0_STLB LOAD      ACCESS:      40796  HIT:          0  MISS:      40796
cpu0_STLB RFO       ACCESS:          0  HIT:          0  MISS:          0
cpu0_STLB PREFETCH  ACCESS:          0  HIT:          0  MISS:          0
cpu0_STLB WRITEBACK ACCESS:          0  HIT:          0  MISS:          0
cpu0_L1D TOTAL     ACCESS:    8868421  HIT:    8517683  MISS:     350738
cpu0_L1D LOAD      ACCESS:    3469691  HIT:    3118963  MISS:     350728
cpu0_L1D RFO       ACCESS:    5357934  HIT:    5357934  MISS:          0
cpu0_L1D PREFETCH  ACCESS:          0  HIT:          0  MISS:          0
cpu0_L1D WRITEBACK ACCESS:          0  HIT:          0  MISS:          0
cpu0_L2C TOTAL     ACCESS:     506620  HIT:     155882  MISS:     350738
cpu0_L2C LOAD      ACCESS:     350728  HIT:          0  MISS:     350728
cpu0_L2C RFO       ACCESS:          0  HIT:          0  MISS:          0
cpu0_L2C PREFETCH  ACCESS:          0  HIT:          0  MISS:          0
cpu0_L2C WRITEBACK ACCESS:     155882  HIT:     155882  MISS:          0
LLC TOTAL     ACCESS:     506618  HIT:     155880  MISS:     350738
LLC LOAD      ACCESS:     350728  HIT:          0  MISS:     350728
LLC RFO       ACCESS:          0  HIT:          0  MISS:          0
LLC PREFETCH  ACCESS:          0  HIT:          0  MISS:          0
LLC WRITEBACK ACCESS:     155880  HIT:     155880  MISS:          0
Heartbeat CPU 0 instructions: 86000003 cycles: 63545031 heartbeat IPC: 0.727224 cumulative IPC: 0.720031 (Simulation time: 0 hr 37 min 21 sec) 

Region of Interest Statistics
cpu0_DTLB TOTAL     ACCESS:    6382796  HIT:    6339604  MISS:      43192
cpu0_DTLB LOAD      ACCESS:    4315712  HIT:    4272520  MISS:      43192
cpu0_DTLB RFO       ACCESS:    2067084  HIT:    2067084  MISS:          0
cpu0_DTLB PREFETCH  ACCESS:          0  HIT:          0  MISS:          0
cpu0_DTLB WRITEBACK ACCESS:          0  HIT:          0  MISS:          0
cpu0_ITLB TOTAL     ACCESS:    4125777  HIT:    4125777  MISS:          0
cpu0_ITLB LOAD      ACCESS:    4125777  HIT:    4125777  MISS:          0
cpu0_ITLB RFO       ACCESS:          0  HIT:          0  MISS:          0
cpu0_ITLB PREFETCH  ACCESS:          0  HIT:          0  MISS:          0
cpu0_ITLB WRITEBACK ACCESS:          0  HIT:          0  MISS:          0
cpu0_L1I TOTAL     ACCESS:          1  HIT:          1  MISS:          0
cpu0_L1I LOAD      ACCESS:          1  HIT:          1  MISS:          0
cpu0_L1I RFO       ACCESS:          0  HIT:          0  MISS:          0
cpu0_L1I PREFETCH  ACCESS:          0  HIT:          0  MISS:          0
cpu0_L1I WRITEBACK ACCESS:          0  HIT:          0  MISS:          0
cpu0_STLB TOTAL     ACCESS:      43192  HIT:          0  MISS:      43192
cpu0_STLB LOAD      ACCESS:      43192  HIT:          0  MISS:      43192
cpu0_STLB RFO       ACCESS:          0  HIT:          0  MISS:          0
cpu0_STLB PREFETCH  ACCESS:          0  HIT:          0  MISS:          0
cpu0_STLB WRITEBACK ACCESS:          0  HIT:          0  MISS:          0
cpu0_L1D TOTAL     ACCESS:    9390369  HIT:    9019037  MISS:     371332
cpu0_L1D LOAD      ACCESS:    3673456  HIT:    3302134  MISS:     371322
cpu0_L1D RFO       ACCESS:    5673721  HIT:    5673721  MISS:          0
cpu0_L1D PREFETCH  ACCESS:          0  HIT:          0  MISS:          0
cpu0_L1D WRITEBACK ACCESS:          0  HIT:          0  MISS:          0
cpu0_L2C TOTAL     ACCESS:     536364  HIT:     165032  MISS:     371332
cpu0_L2C LOAD      ACCESS:     371322  HIT:          0  MISS:     371322
cpu0_L2C RFO       ACCESS:          0  HIT:          0  MISS:          0
cpu0_L2C PREFETCH  ACCESS:          0  HIT:          0  MISS:          0
cpu0_L2C WRITEBACK ACCESS:     165032  HIT:     165032  MISS:          0
LLC TOTAL     ACCESS:     536369  HIT:     165037  MISS:     371332
LLC LOAD      ACCESS:     371322  HIT:          0  MISS:     371322
LLC RFO       ACCESS:          0  HIT:          0  MISS:          0
LLC PREFETCH  ACCESS:          0  HIT:          0  MISS:          0
LLC WRITEBACK ACCESS:     165037  HIT:     165037  MISS:          0
Heartbeat CPU 0 instructions: 88000004 cycles: 66296728 heartbeat IPC: 0.726825 cumulative IPC: 0.720385 (Simulation time: 0 hr 38 min 23 sec) 

Region of Interest Statistics
cpu0_DTLB TOTAL     ACCESS:    6738472  HIT:    6692883  MISS:      45589
cpu0_DTLB LOAD      ACCESS:    4556735  HIT:    4511146  MISS:      45589
cpu0_DTLB RFO       ACCESS:    2181737  HIT:    2181737  MISS:          0
cpu0_DTLB PREFETCH  ACCESS:          0  HIT:          0  MISS:          0
cpu0_DTLB WRITEBACK ACCESS:          0  HIT:          0  MISS:          0
cpu0_ITLB TOTAL     ACCESS:    4354610  HIT:    4354610  MISS:          0
cpu0_ITLB LOAD      ACCESS:    4354610  HIT:    4354610  MISS:          0
cpu0_ITLB RFO       ACCESS:          0  HIT:          0  MISS:          0
cpu0_ITLB PREFETCH  ACCESS:          0  HIT:          0  MISS:          0
cpu0_ITLB WRITEBACK ACCESS:          0  HIT:          0  MISS:          0
cpu0_L1I TOTAL     ACCESS:          1  HIT:          1  MISS:          0
cpu0_L1I LOAD      ACCESS:          1  HIT:          1  MISS:          0
cpu0_L1I RFO       ACCESS:          0  HIT:          0  MISS:          0
cpu0_L1I PREFETCH  ACCESS:          0  HIT:          0  MISS:          0
cpu0_L1I WRITEBACK ACCESS:          0  HIT:          0  MISS:          0
cpu0_STLB TOTAL     ACCESS:      45589  HIT:          0  MISS:      45589
cpu0_STLB LOAD      ACCESS:      45589  HIT:          0  MISS:      45589
cpu0_STLB RFO       ACCESS:          0  HIT:          0  MISS:          0
cpu0_STLB PREFETCH  ACCESS:          0  HIT:          0  MISS:          0
cpu0_STLB WRITEBACK ACCESS:          0  HIT:          0  MISS:          0
cpu0_L1D TOTAL     ACCESS:    9912359  HIT:    9520430  MISS:     391929
cpu0_L1D LOAD      ACCESS:    3877251  HIT:    3485333  MISS:     391918
cpu0_L1D RFO       ACCESS:    5989519  HIT:    5989519  MISS:          0
cpu0_L1D PREFETCH  ACCESS:          0  HIT:          0  MISS:          0
cpu0_L1D WRITEBACK ACCESS:          0  HIT:          0  MISS:          0
cpu0_L2C TOTAL     ACCESS:     566116  HIT:     174187  MISS:     391929
cpu0_L2C LOAD      ACCESS:     391918  HIT:          0  MISS:     391918
cpu0_L2C RFO       ACCESS:          0  HIT:          0  MISS:          0
cpu0_L2C PREFETCH  ACCESS:          0  HIT:          0  MISS:          0
cpu0_L2C WRITEBACK ACCESS:     174187  HIT:     174187  MISS:          0
LLC TOTAL     ACCESS:     566119  HIT:     174190  MISS:     391929
LLC LOAD      ACCESS:     391918  HIT:          0  MISS:     391918
LLC RFO       ACCESS:          0  HIT:          0  MISS:          0
LLC PREFETCH  ACCESS:          0  HIT:          0  MISS:          0
LLC WRITEBACK ACCESS:     174190  HIT:     174190  MISS:          0
Heartbeat CPU 0 instructions: 90000004 cycles: 69047732 heartbeat IPC: 0.727007 cumulative IPC: 0.720714 (Simulation time: 0 hr 39 min 22 sec) 

Region of Interest Statistics
cpu0_DTLB TOTAL     ACCESS:    7094151  HIT:    7046168  MISS:      47983
cpu0_DTLB LOAD      ACCESS:    4797764  HIT:    4749781  MISS:      47983
cpu0_DTLB RFO       ACCESS:    2296387  HIT:    2296387  MISS:          0
cpu0_DTLB PREFETCH  ACCESS:          0  HIT:          0  MISS:          0
cpu0_DTLB WRITEBACK ACCESS:          0  HIT:          0  MISS:          0
cpu0_ITLB TOTAL     ACCESS:    4583445  HIT:    4583445  MISS:          0
cpu0_ITLB LOAD      ACCESS:    4583445  HIT:    4583445  MISS:          0
cpu0_ITLB RFO       ACCESS:          0  HIT:          0  MISS:          0
cpu0_ITLB PREFETCH  ACCESS:          0  HIT:          0  MISS:          0
cpu0_ITLB WRITEBACK ACCESS:          0  HIT:          0  MISS:          0
cpu0_L1I TOTAL     ACCESS:          1  HIT:          1  MISS:          0
cpu0_L1I LOAD      ACCESS:          1  HIT:          1  MISS:          0
cpu0_L1I RFO       ACCESS:          0  HIT:          0  MISS:          0
cpu0_L1I PREFETCH  ACCESS:          0  HIT:          0  MISS:          0
cpu0_L1I WRITEBACK ACCESS:          0  HIT:          0  MISS:          0
cpu0_STLB TOTAL     ACCESS:      47983  HIT:          0  MISS:      47983
cpu0_STLB LOAD      ACCESS:      47983  HIT:          0  MISS:      47983
cpu0_STLB RFO       ACCESS:          0  HIT:          0  MISS:          0
cpu0_STLB PREFETCH  ACCESS:          0  HIT:          0  MISS:          0
cpu0_STLB WRITEBACK ACCESS:          0  HIT:          0  MISS:          0
cpu0_L1D TOTAL     ACCESS:   10434327  HIT:   10021805  MISS:     412522
cpu0_L1D LOAD      ACCESS:    4081043  HIT:    3668532  MISS:     412511
cpu0_L1D RFO       ACCESS:    6305301  HIT:    6305301  MISS:          0
cpu0_L1D PREFETCH  ACCESS:          0  HIT:          0  MISS:          0
cpu0_L1D WRITEBACK ACCESS:          0  HIT:          0  MISS:          0
cpu0_L2C TOTAL     ACCESS:     595864  HIT:     183342  MISS:     412522
cpu0_L2C LOAD      ACCESS:     412511  HIT:          0  MISS:     412511
cpu0_L2C RFO       ACCESS:          0  HIT:          0  MISS:          0
cpu0_L2C PREFETCH  ACCESS:          0  HIT:          0  MISS:          0
cpu0_L2C WRITEBACK ACCESS:     183342  HIT:     183342  MISS:          0
LLC TOTAL     ACCESS:     595868  HIT:     183346  MISS:     412522
LLC LOAD      ACCESS:     412511  HIT:          0  MISS:     412511
LLC RFO       ACCESS:          0  HIT:          0  MISS:          0
LLC PREFETCH  ACCESS:          0  HIT:          0  MISS:          0
LLC WRITEBACK ACCESS:     183346  HIT:     183346  MISS:          0
Heartbeat CPU 0 instructions: 92000000 cycles: 71799613 heartbeat IPC: 0.726774 cumulative IPC: 0.721 (Simulation time: 0 hr 40 min 23 sec) 

Region of Interest Statistics
cpu0_DTLB TOTAL     ACCESS:    7449806  HIT:    7399427  MISS:      50379
cpu0_DTLB LOAD      ACCESS:    5038774  HIT:    4988395  MISS:      50379
cpu0_DTLB RFO       ACCESS:    2411032  HIT:    2411032  MISS:          0
cpu0_DTLB PREFETCH  ACCESS:          0  HIT:          0  MISS:          0
cpu0_DTLB WRITEBACK ACCESS:          0  HIT:          0  MISS:          0
cpu0_ITLB TOTAL     ACCESS:    4812271  HIT:    4812271  MISS:          0
cpu0_ITLB LOAD      ACCESS:    4812271  HIT:    4812271  MISS:          0
cpu0_ITLB RFO       ACCESS:          0  HIT:          0  MISS:          0
cpu0_ITLB PREFETCH  ACCESS:          0  HIT:          0  MISS:          0
cpu0_ITLB WRITEBACK ACCESS:          0  HIT:          0  MISS:          0
cpu0_L1I TOTAL     ACCESS:          1  HIT:          1  MISS:          0
cpu0_L1I LOAD      ACCESS:          1  HIT:          1  MISS:          0
cpu0_L1I RFO       ACCESS:          0  HIT:          0  MISS:          0
cpu0_L1I PREFETCH  ACCESS:          0  HIT:          0  MISS:          0
cpu0_L1I WRITEBACK ACCESS:          0  HIT:          0  MISS:          0
cpu0_STLB TOTAL     ACCESS:      50379  HIT:          0  MISS:      50379
cpu0_STLB LOAD      ACCESS:      50379  HIT:          0  MISS:      50379
cpu0_STLB RFO       ACCESS:          0  HIT:          0  MISS:          0
cpu0_STLB PREFETCH  ACCESS:          0  HIT:          0  MISS:          0
cpu0_STLB WRITEBACK ACCESS:          0  HIT:          0  MISS:          0
cpu0_L1D TOTAL     ACCESS:   10956285  HIT:   10523166  MISS:     433119
cpu0_L1D LOAD      ACCESS:    4284816  HIT:    3851709  MISS:     433107
cpu0_L1D RFO       ACCESS:    6621090  HIT:    6621090  MISS:          0
cpu0_L1D PREFETCH  ACCESS:          0  HIT:          0  MISS:          0
cpu0_L1D WRITEBACK ACCESS:          0  HIT:          0  MISS:          0
cpu0_L2C TOTAL     ACCESS:     625613  HIT:     192494  MISS:     433119
cpu0_L2C LOAD      ACCESS:     433107  HIT:          0  MISS:     433107
cpu0_L2C RFO       ACCESS:          0  HIT:          0  MISS:          0
cpu0_L2C PREFETCH  ACCESS:          0  HIT:          0  MISS:          0
cpu0_L2C WRITEBACK ACCESS:     192494  HIT:     192494  MISS:          0
LLC TOTAL     ACCESS:     625614  HIT:     192495  MISS:     433119
LLC LOAD      ACCESS:     433107  HIT:          0  MISS:     433107
LLC RFO       ACCESS:          0  HIT:          0  MISS:          0
LLC PREFETCH  ACCESS:          0  HIT:          0  MISS:          0
LLC WRITEBACK ACCESS:     192495  HIT:     192495  MISS:          0
Heartbeat CPU 0 instructions: 94000000 cycles: 76851287 heartbeat IPC: 0.395908 cumulative IPC: 0.695058 (Simulation time: 0 hr 41 min 40 sec) 

Region of Interest Statistics
cpu0_DTLB TOTAL     ACCESS:    7827896  HIT:    7775400  MISS:      52496
cpu0_DTLB LOAD      ACCESS:    5297483  HIT:    5244987  MISS:      52496
cpu0_DTLB RFO       ACCESS:    2530413  HIT:    2530413  MISS:          0
cpu0_DTLB PREFETCH  ACCESS:          0  HIT:          0  MISS:          0
cpu0_DTLB WRITEBACK ACCESS:          0  HIT:          0  MISS:          0
cpu0_ITLB TOTAL     ACCESS:    5054934  HIT:    5054934  MISS:          0
cpu0_ITLB LOAD      ACCESS:    5054934  HIT:    5054934  MISS:          0
cpu0_ITLB RFO       ACCESS:          0  HIT:          0  MISS:          0
cpu0_ITLB PREFETCH  ACCESS:          0  HIT:          0  MISS:          0
cpu0_ITLB WRITEBACK ACCESS:          0  HIT:          0  MISS:          0
cpu0_L1I TOTAL     ACCESS:          9  HIT:          6  MISS:          3
cpu0_L1I LOAD      ACCESS:          9  HIT:          6  MISS:          3
cpu0_L1I RFO       ACCESS:          0  HIT:          0  MISS:          0
cpu0_L1I PREFETCH  ACCESS:          0  HIT:          0  MISS:          0
cpu0_L1I WRITEBACK ACCESS:          0  HIT:          0  MISS:          0
cpu0_STLB TOTAL     ACCESS:      52496  HIT:          0  MISS:      52496
cpu0_STLB LOAD      ACCESS:      52496  HIT:          0  MISS:      52496
cpu0_STLB RFO       ACCESS:          0  HIT:          0  MISS:          0
cpu0_STLB PREFETCH  ACCESS:          0  HIT:          0  MISS:          0
cpu0_STLB WRITEBACK ACCESS:          0  HIT:          0  MISS:          0
cpu0_L1D TOTAL     ACCESS:   11497495  HIT:   11035122  MISS:     462373
cpu0_L1D LOAD      ACCESS:    4511709  HIT:    4049348  MISS:     462361
cpu0_L1D RFO       ACCESS:    6933290  HIT:    6933290  MISS:          0
cpu0_L1D PREFETCH  ACCESS:          0  HIT:          0  MISS:          0
cpu0_L1D WRITEBACK ACCESS:          0  HIT:          0  MISS:          0
cpu0_L2C TOTAL     ACCESS:     668254  HIT:     205872  MISS:     462382
cpu0_L2C LOAD      ACCESS:     462364  HIT:          0  MISS:     462364
cpu0_L2C RFO       ACCESS:          0  HIT:          0  MISS:          0
cpu0_L2C PREFETCH  ACCESS:          0  HIT:          0  MISS:          0
cpu0_L2C WRITEBACK ACCESS:     205878  HIT:     205872  MISS:          6
LLC TOTAL     ACCESS:     664968  HIT:     202586  MISS:     462382
LLC LOAD      ACCESS:     462364  HIT:          0  MISS:     462364
LLC RFO       ACCESS:          0  HIT:          0  MISS:          0
LLC PREFETCH  ACCESS:          0  HIT:          0  MISS:          0
LLC WRITEBACK ACCESS:     202592  HIT:     202586  MISS:          6
Heartbeat CPU 0 instructions: 96000004 cycles: 91109084 heartbeat IPC: 0.140274 cumulative IPC: 0.593075 (Simulation time: 0 hr 44 min 18 sec) 

Region of Interest Statistics
cpu0_DTLB TOTAL     ACCESS:    8295484  HIT:    8241992  MISS:      53492
cpu0_DTLB LOAD      ACCESS:    5626772  HIT:    5573280  MISS:      53492
cpu0_DTLB RFO       ACCESS:    2668712  HIT:    2668712  MISS:          0
cpu0_DTLB PREFETCH  ACCESS:          0  HIT:          0  MISS:          0
cpu0_DTLB WRITEBACK ACCESS:          0  HIT:          0  MISS:          0
cpu0_ITLB TOTAL     ACCESS:    5352805  HIT:    5352805  MISS:          0
cpu0_ITLB LOAD      ACCESS:    5352805  HIT:    5352805  MISS:          0
cpu0_ITLB RFO       ACCESS:          0  HIT:          0  MISS:          0
cpu0_ITLB PREFETCH  ACCESS:          0  HIT:          0  MISS:          0
cpu0_ITLB WRITEBACK ACCESS:          0  HIT:          0  MISS:          0
cpu0_L1I TOTAL     ACCESS:          9  HIT:          6  MISS:          3
cpu0_L1I LOAD      ACCESS:          9  HIT:          6  MISS:          3
cpu0_L1I RFO       ACCESS:          0  HIT:          0  MISS:          0
cpu0_L1I PREFETCH  ACCESS:          0  HIT:          0  MISS:          0
cpu0_L1I WRITEBACK ACCESS:          0  HIT:          0  MISS:          0
cpu0_STLB TOTAL     ACCESS:      53492  HIT:          0  MISS:      53492
cpu0_STLB LOAD      ACCESS:      53492  HIT:          0  MISS:      53492
cpu0_STLB RFO       ACCESS:          0  HIT:          0  MISS:          0
cpu0_STLB PREFETCH  ACCESS:          0  HIT:          0  MISS:          0
cpu0_STLB WRITEBACK ACCESS:          0  HIT:          0  MISS:          0
cpu0_L1D TOTAL     ACCESS:   12115510  HIT:   11589306  MISS:     526204
cpu0_L1D LOAD      ACCESS:    4830857  HIT:    4304666  MISS:     526191
cpu0_L1D RFO       ACCESS:    7231161  HIT:    7231161  MISS:          0
cpu0_L1D PREFETCH  ACCESS:          0  HIT:          0  MISS:          0
cpu0_L1D WRITEBACK ACCESS:          0  HIT:          0  MISS:          0
cpu0_L2C TOTAL     ACCESS:     764000  HIT:     237787  MISS:     526213
cpu0_L2C LOAD      ACCESS:     526194  HIT:          0  MISS:     526194
cpu0_L2C RFO       ACCESS:          0  HIT:          0  MISS:          0
cpu0_L2C PREFETCH  ACCESS:          0  HIT:          0  MISS:          0
cpu0_L2C WRITEBACK ACCESS:     237793  HIT:     237787  MISS:          6
LLC TOTAL     ACCESS:     760980  HIT:     234767  MISS:     526213
LLC LOAD      ACCESS:     526194  HIT:          0  MISS:     526194
LLC RFO       ACCESS:          0  HIT:          0  MISS:          0
LLC PREFETCH  ACCESS:          0  HIT:          0  MISS:          0
LLC WRITEBACK ACCESS:     234773  HIT:     234767  MISS:          6
Heartbeat CPU 0 instructions: 98000001 cycles: 105583069 heartbeat IPC: 0.138179 cumulative IPC: 0.521536 (Simulation time: 0 hr 47 min 6 sec) 

Region of Interest Statistics
cpu0_DTLB TOTAL     ACCESS:    8763068  HIT:    8708578  MISS:      54490
cpu0_DTLB LOAD      ACCESS:    5956059  HIT:    5901569  MISS:      54490
cpu0_DTLB RFO       ACCESS:    2807009  HIT:    2807009  MISS:          0
cpu0_DTLB PREFETCH  ACCESS:          0  HIT:          0  MISS:          0
cpu0_DTLB WRITEBACK ACCESS:          0  HIT:          0  MISS:          0
cpu0_ITLB TOTAL     ACCESS:    5650676  HIT:    5650676  MISS:          0
cpu0_ITLB LOAD      ACCESS:    5650676  HIT:    5650676  MISS:          0
cpu0_ITLB RFO       ACCESS:          0  HIT:          0  MISS:          0
cpu0_ITLB PREFETCH  ACCESS:          0  HIT:          0  MISS:          0
cpu0_ITLB WRITEBACK ACCESS:          0  HIT:          0  MISS:          0
cpu0_L1I TOTAL     ACCESS:          9  HIT:          6  MISS:          3
cpu0_L1I LOAD      ACCESS:          9  HIT:          6  MISS:          3
cpu0_L1I RFO       ACCESS:          0  HIT:          0  MISS:          0
cpu0_L1I PREFETCH  ACCESS:          0  HIT:          0  MISS:          0
cpu0_L1I WRITEBACK ACCESS:          0  HIT:          0  MISS:          0
cpu0_STLB TOTAL     ACCESS:      54490  HIT:          0  MISS:      54490
cpu0_STLB LOAD      ACCESS:      54490  HIT:          0  MISS:      54490
cpu0_STLB RFO       ACCESS:          0  HIT:          0  MISS:          0
cpu0_STLB PREFETCH  ACCESS:          0  HIT:          0  MISS:          0
cpu0_STLB WRITEBACK ACCESS:          0  HIT:          0  MISS:          0
cpu0_L1D TOTAL     ACCESS:   12733527  HIT:   12143493  MISS:     590034
cpu0_L1D LOAD      ACCESS:    5150004  HIT:    4559983  MISS:     590021
cpu0_L1D RFO       ACCESS:    7529033  HIT:    7529033  MISS:          0
cpu0_L1D PREFETCH  ACCESS:          0  HIT:          0  MISS:          0
cpu0_L1D WRITEBACK ACCESS:          0  HIT:          0  MISS:          0
cpu0_L2C TOTAL     ACCESS:     859745  HIT:     269702  MISS:     590043
cpu0_L2C LOAD      ACCESS:     590024  HIT:          0  MISS:     590024
cpu0_L2C RFO       ACCESS:          0  HIT:          0  MISS:          0
cpu0_L2C PREFETCH  ACCESS:          0  HIT:          0  MISS:          0
cpu0_L2C WRITEBACK ACCESS:     269708  HIT:     269702  MISS:          6
LLC TOTAL     ACCESS:     856569  HIT:     266526  MISS:     590043
LLC LOAD      ACCESS:     590024  HIT:          0  MISS:     590024
LLC RFO       ACCESS:          0  HIT:          0  MISS:          0
LLC PREFETCH  ACCESS:          0  HIT:          0  MISS:          0
LLC WRITEBACK ACCESS:     266532  HIT:     266526  MISS:          6
Heartbeat CPU 0 instructions: 100000003 cycles: 121070386 heartbeat IPC: 0.129138 cumulative IPC: 0.465016 (Simulation time: 0 hr 49 min 57 sec) 

Region of Interest Statistics
cpu0_DTLB TOTAL     ACCESS:    9230654  HIT:    9175166  MISS:      55488
cpu0_DTLB LOAD      ACCESS:    6285347  HIT:    6229859  MISS:      55488
cpu0_DTLB RFO       ACCESS:    2945307  HIT:    2945307  MISS:          0
cpu0_DTLB PREFETCH  ACCESS:          0  HIT:          0  MISS:          0
cpu0_DTLB WRITEBACK ACCESS:          0  HIT:          0  MISS:          0
cpu0_ITLB TOTAL     ACCESS:    5948547  HIT:    5948547  MISS:          0
cpu0_ITLB LOAD      ACCESS:    5948547  HIT:    5948547  MISS:          0
cpu0_ITLB RFO       ACCESS:          0  HIT:          0  MISS:          0
cpu0_ITLB PREFETCH  ACCESS:          0  HIT:          0  MISS:          0
cpu0_ITLB WRITEBACK ACCESS:          0  HIT:          0  MISS:          0
cpu0_L1I TOTAL     ACCESS:          9  HIT:          6  MISS:          3
cpu0_L1I LOAD      ACCESS:          9  HIT:          6  MISS:          3
cpu0_L1I RFO       ACCESS:          0  HIT:          0  MISS:          0
cpu0_L1I PREFETCH  ACCESS:          0  HIT:          0  MISS:          0
cpu0_L1I WRITEBACK ACCESS:          0  HIT:          0  MISS:          0
cpu0_STLB TOTAL     ACCESS:      55488  HIT:          0  MISS:      55488
cpu0_STLB LOAD      ACCESS:      55488  HIT:          0  MISS:      55488
cpu0_STLB RFO       ACCESS:          0  HIT:          0  MISS:          0
cpu0_STLB PREFETCH  ACCESS:          0  HIT:          0  MISS:          0
cpu0_STLB WRITEBACK ACCESS:          0  HIT:          0  MISS:          0
cpu0_L1D TOTAL     ACCESS:   13351547  HIT:   12697682  MISS:     653865
cpu0_L1D LOAD      ACCESS:    5469153  HIT:    4815302  MISS:     653851
cpu0_L1D RFO       ACCESS:    7826906  HIT:    7826906  MISS:          0
cpu0_L1D PREFETCH  ACCESS:          0  HIT:          0  MISS:          0
cpu0_L1D WRITEBACK ACCESS:          0  HIT:          0  MISS:          0
cpu0_L2C TOTAL     ACCESS:     955490  HIT:     301616  MISS:     653874
cpu0_L2C LOAD      ACCESS:     653854  HIT:          0  MISS:     653854
cpu0_L2C RFO       ACCESS:          0  HIT:          0  MISS:          0
cpu0_L2C PREFETCH  ACCESS:          0  HIT:          0  MISS:          0
cpu0_L2C WRITEBACK ACCESS:     301622  HIT:     301616  MISS:          6
LLC TOTAL     ACCESS:     952151  HIT:     298277  MISS:     653874
LLC LOAD      ACCESS:     653854  HIT:          0  MISS:     653854
LLC RFO       ACCESS:          0  HIT:          0  MISS:          0
LLC PREFETCH  ACCESS:          0  HIT:          0  MISS:          0
LLC WRITEBACK ACCESS:     298283  HIT:     298277  MISS:          6
Heartbeat CPU 0 instructions: 102000004 cycles: 131127744 heartbeat IPC: 0.198859 cumulative IPC: 0.44225 (Simulation time: 0 hr 52 min 28 sec) 

Region of Interest Statistics
cpu0_DTLB TOTAL     ACCESS:    9845205  HIT:    9788921  MISS:      56284
cpu0_DTLB LOAD      ACCESS:    6788314  HIT:    6732187  MISS:      56127
cpu0_DTLB RFO       ACCESS:    3056891  HIT:    3056734  MISS:        157
cpu0_DTLB PREFETCH  ACCESS:          0  HIT:          0  MISS:          0
cpu0_DTLB WRITEBACK ACCESS:          0  HIT:          0  MISS:          0
cpu0_ITLB TOTAL     ACCESS:    6115335  HIT:    6115335  MISS:          0
cpu0_ITLB LOAD      ACCESS:    6115335  HIT:    6115335  MISS:          0
cpu0_ITLB RFO       ACCESS:          0  HIT:          0  MISS:          0
cpu0_ITLB PREFETCH  ACCESS:          0  HIT:          0  MISS:          0
cpu0_ITLB WRITEBACK ACCESS:          0  HIT:          0  MISS:          0
cpu0_L1I TOTAL     ACCESS:         16  HIT:         10  MISS:          6
cpu0_L1I LOAD      ACCESS:         16  HIT:         10  MISS:          6
cpu0_L1I RFO       ACCESS:          0  HIT:          0  MISS:          0
cpu0_L1I PREFETCH  ACCESS:          0  HIT:          0  MISS:          0
cpu0_L1I WRITEBACK ACCESS:          0  HIT:          0  MISS:          0
cpu0_STLB TOTAL     ACCESS:      56284  HIT:          0  MISS:      56284
cpu0_STLB LOAD      ACCESS:      56127  HIT:          0  MISS:      56127
cpu0_STLB RFO       ACCESS:        157  HIT:          0  MISS:        157
cpu0_STLB PREFETCH  ACCESS:          0  HIT:          0  MISS:          0
cpu0_STLB WRITEBACK ACCESS:          0  HIT:          0  MISS:          0
cpu0_L1D TOTAL     ACCESS:   13955034  HIT:   13250425  MISS:     704609
cpu0_L1D LOAD      ACCESS:    5892927  HIT:    5198339  MISS:     694588
cpu0_L1D RFO       ACCESS:    8005823  HIT:    7995820  MISS:      10003
cpu0_L1D PREFETCH  ACCESS:          0  HIT:          0  MISS:          0
cpu0_L1D WRITEBACK ACCESS:          0  HIT:          0  MISS:          0
cpu0_L2C TOTAL     ACCESS:    1033979  HIT:     329355  MISS:     704624
cpu0_L2C LOAD      ACCESS:     694594  HIT:          0  MISS:     694594
cpu0_L2C RFO       ACCESS:      10003  HIT:          0  MISS:      10003
cpu0_L2C PREFETCH  ACCESS:          0  HIT:          0  MISS:          0
cpu0_L2C WRITEBACK ACCESS:     329364  HIT:     329355  MISS:          9
LLC TOTAL     ACCESS:    1029562  HIT:     324938  MISS:     704624
LLC LOAD      ACCESS:     694594  HIT:          0  MISS:     694594
LLC RFO       ACCESS:      10003  HIT:          0  MISS:      10003
LLC PREFETCH  ACCESS:          0  HIT:          0  MISS:          0
LLC WRITEBACK ACCESS:     324947  HIT:     324938  MISS:          9
Heartbeat CPU 0 instructions: 104000000 cycles: 134950142 heartbeat IPC: 0.523231 cumulative IPC: 0.4448 (Simulation time: 0 hr 54 min 14 sec) 

Region of Interest Statistics
cpu0_DTLB TOTAL     ACCESS:   10364085  HIT:   10303584  MISS:      60501
cpu0_DTLB LOAD      ACCESS:    7242511  HIT:    7182413  MISS:      60098
cpu0_DTLB RFO       ACCESS:    3121574  HIT:    3121171  MISS:        403
cpu0_DTLB PREFETCH  ACCESS:          0  HIT:          0  MISS:          0
cpu0_DTLB WRITEBACK ACCESS:          0  HIT:          0  MISS:          0
cpu0_ITLB TOTAL     ACCESS:    6228892  HIT:    6228892  MISS:          0
cpu0_ITLB LOAD      ACCESS:    6228892  HIT:    6228892  MISS:          0
cpu0_ITLB RFO       ACCESS:          0  HIT:          0  MISS:          0
cpu0_ITLB PREFETCH  ACCESS:          0  HIT:          0  MISS:          0
cpu0_ITLB WRITEBACK ACCESS:          0  HIT:          0  MISS:          0
cpu0_L1I TOTAL     ACCESS:         25  HIT:         14  MISS:         11
cpu0_L1I LOAD      ACCESS:         25  HIT:         14  MISS:         11
cpu0_L1I RFO       ACCESS:          0  HIT:          0  MISS:          0
cpu0_L1I PREFETCH  ACCESS:          0  HIT:          0  MISS:          0
cpu0_L1I WRITEBACK ACCESS:          0  HIT:          0  MISS:          0
cpu0_STLB TOTAL     ACCESS:      60501  HIT:          4  MISS:      60497
cpu0_STLB LOAD      ACCESS:      60098  HIT:          4  MISS:      60094
cpu0_STLB RFO       ACCESS:        403  HIT:          0  MISS:        403
cpu0_STLB PREFETCH  ACCESS:          0  HIT:          0  MISS:          0
cpu0_STLB WRITEBACK ACCESS:          0  HIT:          0  MISS:          0
cpu0_L1D TOTAL     ACCESS:   14332698  HIT:   13577981  MISS:     754717
cpu0_L1D LOAD      ACCESS:    6228719  HIT:    5499793  MISS:     728926
cpu0_L1D RFO       ACCESS:    8043482  HIT:    8017803  MISS:      25679
cpu0_L1D PREFETCH  ACCESS:          0  HIT:          0  MISS:          0
cpu0_L1D WRITEBACK ACCESS:          0  HIT:          0  MISS:          0
cpu0_L2C TOTAL     ACCESS:    1099969  HIT:     345323  MISS:     754646
cpu0_L2C LOAD      ACCESS:     728937  HIT:          1  MISS:     728936
cpu0_L2C RFO       ACCESS:      25679  HIT:          0  MISS:      25679
cpu0_L2C PREFETCH  ACCESS:          0  HIT:          0  MISS:          0
cpu0_L2C WRITEBACK ACCESS:     345241  HIT:     345232  MISS:          9
LLC TOTAL     ACCESS:    1096911  HIT:     343164  MISS:     753747
LLC LOAD      ACCESS:     728936  HIT:        898  MISS:     728038
LLC RFO       ACCESS:      25679  HIT:          0  MISS:      25679
LLC PREFETCH  ACCESS:          0  HIT:          0  MISS:          0
LLC WRITEBACK ACCESS:     342274  HIT:     342265  MISS:          9
Heartbeat CPU 0 instructions: 106000002 cycles: 138945109 heartbeat IPC: 0.50063 cumulative IPC: 0.446578 (Simulation time: 0 hr 55 min 36 sec) 

Region of Interest Statistics
cpu0_DTLB TOTAL     ACCESS:   10660822  HIT:   10593212  MISS:      67610
cpu0_DTLB LOAD      ACCESS:    7484786  HIT:    7417737  MISS:      67049
cpu0_DTLB RFO       ACCESS:    3176036  HIT:    3175475  MISS:        561
cpu0_DTLB PREFETCH  ACCESS:          0  HIT:          0  MISS:          0
cpu0_DTLB WRITEBACK ACCESS:          0  HIT:          0  MISS:          0
cpu0_ITLB TOTAL     ACCESS:    6431602  HIT:    6431602  MISS:          0
cpu0_ITLB LOAD      ACCESS:    6431602  HIT:    6431602  MISS:          0
cpu0_ITLB RFO       ACCESS:          0  HIT:          0  MISS:          0
cpu0_ITLB PREFETCH  ACCESS:          0  HIT:          0  MISS:          0
cpu0_ITLB WRITEBACK ACCESS:          0  HIT:          0  MISS:          0
cpu0_L1I TOTAL     ACCESS:         25  HIT:         14  MISS:         11
cpu0_L1I LOAD      ACCESS:         25  HIT:         14  MISS:         11
cpu0_L1I RFO       ACCESS:          0  HIT:          0  MISS:          0
cpu0_L1I PREFETCH  ACCESS:          0  HIT:          0  MISS:          0
cpu0_L1I WRITEBACK ACCESS:          0  HIT:          0  MISS:          0
cpu0_STLB TOTAL     ACCESS:      67610  HIT:          4  MISS:      67606
cpu0_STLB LOAD      ACCESS:      67049  HIT:          4  MISS:      67045
cpu0_STLB RFO       ACCESS:        561  HIT:          0  MISS:        561
cpu0_STLB PREFETCH  ACCESS:          0  HIT:          0  MISS:          0
cpu0_STLB WRITEBACK ACCESS:          0  HIT:          0  MISS:          0
cpu0_L1D TOTAL     ACCESS:   14541627  HIT:   13724118  MISS:     817509
cpu0_L1D LOAD      ACCESS:    6387347  HIT:    5606047  MISS:     781300
cpu0_L1D RFO       ACCESS:    8086674  HIT:    8050859  MISS:      35815
cpu0_L1D PREFETCH  ACCESS:          0  HIT:          0  MISS:          0
cpu0_L1D WRITEBACK ACCESS:          0  HIT:          0  MISS:          0
cpu0_L2C TOTAL     ACCESS:    1172898  HIT:     355745  MISS:     817153
cpu0_L2C LOAD      ACCESS:     781311  HIT:          6  MISS:     781305
cpu0_L2C RFO       ACCESS:      35815  HIT:          0  MISS:      35815
cpu0_L2C PREFETCH  ACCESS:          0  HIT:          0  MISS:          0
cpu0_L2C WRITEBACK ACCESS:     355378  HIT:     355369  MISS:          9
LLC TOTAL     ACCESS:    1169860  HIT:     355139  MISS:     814721
LLC LOAD      ACCESS:     781305  HIT:       2431  MISS:     778874
LLC RFO       ACCESS:      35815  HIT:          0  MISS:      35815
LLC PREFETCH  ACCESS:          0  HIT:          0  MISS:          0
LLC WRITEBACK ACCESS:     352716  HIT:     352707  MISS:          9
Heartbeat CPU 0 instructions: 108000001 cycles: 142866139 heartbeat IPC: 0.51007 cumulative IPC: 0.448503 (Simulation time: 0 hr 56 min 53 sec) 

Region of Interest Statistics
cpu0_DTLB TOTAL     ACCESS:   10957223  HIT:   10882509  MISS:      74714
cpu0_DTLB LOAD      ACCESS:    7726862  HIT:    7652867  MISS:      73995
cpu0_DTLB RFO       ACCESS:    3230361  HIT:    3229642  MISS:        719
cpu0_DTLB PREFETCH  ACCESS:          0  HIT:          0  MISS:          0
cpu0_DTLB WRITEBACK ACCESS:          0  HIT:          0  MISS:          0
cpu0_ITLB TOTAL     ACCESS:    6634297  HIT:    6634297  MISS:          0
cpu0_ITLB LOAD      ACCESS:    6634297  HIT:    6634297  MISS:          0
cpu0_ITLB RFO       ACCESS:          0  HIT:          0  MISS:          0
cpu0_ITLB PREFETCH  ACCESS:          0  HIT:          0  MISS:          0
cpu0_ITLB WRITEBACK ACCESS:          0  HIT:          0  MISS:          0
cpu0_L1I TOTAL     ACCESS:         25  HIT:         14  MISS:         11
cpu0_L1I LOAD      ACCESS:         25  HIT:         14  MISS:         11
cpu0_L1I RFO       ACCESS:          0  HIT:          0  MISS:          0
[...]
cpu0_DTLB TOTAL     ACCESS:  262172335  HIT:  259306659  MISS:    2865676
cpu0_DTLB LOAD      ACCESS:  188841098  HIT:  186045473  MISS:    2795625
cpu0_DTLB RFO       ACCESS:   73331237  HIT:   73261186  MISS:      70051
cpu0_DTLB PREFETCH  ACCESS:          0  HIT:          0  MISS:          0
cpu0_DTLB WRITEBACK ACCESS:          0  HIT:          0  MISS:          0
cpu0_ITLB TOTAL     ACCESS:  159992490  HIT:  159992487  MISS:          3
cpu0_ITLB LOAD      ACCESS:  159992490  HIT:  159992487  MISS:          3
cpu0_ITLB RFO       ACCESS:          0  HIT:          0  MISS:          0
cpu0_ITLB PREFETCH  ACCESS:          0  HIT:          0  MISS:          0
cpu0_ITLB WRITEBACK ACCESS:          0  HIT:          0  MISS:          0
cpu0_L1I TOTAL     ACCESS:        433  HIT:        371  MISS:         62
cpu0_L1I LOAD      ACCESS:        433  HIT:        371  MISS:         62
cpu0_L1I RFO       ACCESS:          0  HIT:          0  MISS:          0
cpu0_L1I PREFETCH  ACCESS:          0  HIT:          0  MISS:          0
cpu0_L1I WRITEBACK ACCESS:          0  HIT:          0  MISS:          0
cpu0_STLB TOTAL     ACCESS:    2865679  HIT:       4050  MISS:    2861629
cpu0_STLB LOAD      ACCESS:    2795628  HIT:       3545  MISS:    2792083
cpu0_STLB RFO       ACCESS:      70051  HIT:        505  MISS:      69546
cpu0_STLB PREFETCH  ACCESS:          0  HIT:          0  MISS:          0
cpu0_STLB WRITEBACK ACCESS:          0  HIT:          0  MISS:          0
cpu0_L1D TOTAL     ACCESS:  316028342  HIT:  287308580  MISS:   28719762
cpu0_L1D LOAD      ACCESS:  147967579  HIT:  123751183  MISS:   24216396
cpu0_L1D RFO       ACCESS:  165199157  HIT:  160719026  MISS:    4480131
cpu0_L1D PREFETCH  ACCESS:          0  HIT:          0  MISS:          0
cpu0_L1D WRITEBACK ACCESS:          0  HIT:          0  MISS:          0
cpu0_L2C TOTAL     ACCESS:   38055709  HIT:    9356382  MISS:   28699327
cpu0_L2C LOAD      ACCESS:   24216458  HIT:        460  MISS:   24215998
cpu0_L2C RFO       ACCESS:    4480131  HIT:          0  MISS:    4480131
cpu0_L2C PREFETCH  ACCESS:          0  HIT:          0  MISS:          0
cpu0_L2C WRITEBACK ACCESS:    9335885  HIT:    9335788  MISS:         97
LLC TOTAL     ACCESS:   38035115  HIT:   10143011  MISS:   27892104
LLC LOAD      ACCESS:   24215998  HIT:     619823  MISS:   23596175
LLC RFO       ACCESS:    4480131  HIT:     185274  MISS:    4294857
LLC PREFETCH  ACCESS:          0  HIT:          0  MISS:          0
LLC WRITEBACK ACCESS:    9335885  HIT:    9335788  MISS:         97
Heartbeat CPU 0 instructions: 1550000003 cycles: 2722502455 heartbeat IPC: 0.685728 cumulative IPC: 0.553719 (Simulation time: 13 hr 36 min 14 sec) 

Region of Interest Statistics
cpu0_DTLB TOTAL     ACCESS:  262524995  HIT:  259656923  MISS:    2868072
cpu0_DTLB LOAD      ACCESS:  189081308  HIT:  186283287  MISS:    2798021
cpu0_DTLB RFO       ACCESS:   73443687  HIT:   73373636  MISS:      70051
cpu0_DTLB PREFETCH  ACCESS:          0  HIT:          0  MISS:          0
cpu0_DTLB WRITEBACK ACCESS:          0  HIT:          0  MISS:          0
cpu0_ITLB TOTAL     ACCESS:  160221316  HIT:  160221313  MISS:          3
cpu0_ITLB LOAD      ACCESS:  160221316  HIT:  160221313  MISS:          3
cpu0_ITLB RFO       ACCESS:          0  HIT:          0  MISS:          0
cpu0_ITLB PREFETCH  ACCESS:          0  HIT:          0  MISS:          0
cpu0_ITLB WRITEBACK ACCESS:          0  HIT:          0  MISS:          0
cpu0_L1I TOTAL     ACCESS:        433  HIT:        371  MISS:         62
cpu0_L1I LOAD      ACCESS:        433  HIT:        371  MISS:         62
cpu0_L1I RFO       ACCESS:          0  HIT:          0  MISS:          0
cpu0_L1I PREFETCH  ACCESS:          0  HIT:          0  MISS:          0
cpu0_L1I WRITEBACK ACCESS:          0  HIT:          0  MISS:          0
cpu0_STLB TOTAL     ACCESS:    2868075  HIT:       4050  MISS:    2864025
cpu0_STLB LOAD      ACCESS:    2798024  HIT:       3545  MISS:    2794479
cpu0_STLB RFO       ACCESS:      70051  HIT:        505  MISS:      69546
cpu0_STLB PREFETCH  ACCESS:          0  HIT:          0  MISS:          0
cpu0_STLB WRITEBACK ACCESS:          0  HIT:          0  MISS:          0
cpu0_L1D TOTAL     ACCESS:  316549018  HIT:  287808659  MISS:   28740359
cpu0_L1D LOAD      ACCESS:  148170064  HIT:  123933071  MISS:   24236993
cpu0_L1D RFO       ACCESS:  165514952  HIT:  161034821  MISS:    4480131
cpu0_L1D PREFETCH  ACCESS:          0  HIT:          0  MISS:          0
cpu0_L1D WRITEBACK ACCESS:          0  HIT:          0  MISS:          0
cpu0_L2C TOTAL     ACCESS:   38085457  HIT:    9365533  MISS:   28719924
cpu0_L2C LOAD      ACCESS:   24237055  HIT:        460  MISS:   24236595
cpu0_L2C RFO       ACCESS:    4480131  HIT:          0  MISS:    4480131
cpu0_L2C PREFETCH  ACCESS:          0  HIT:          0  MISS:          0
cpu0_L2C WRITEBACK ACCESS:    9345036  HIT:    9344939  MISS:         97
LLC TOTAL     ACCESS:   38064860  HIT:   10152159  MISS:   27912701
LLC LOAD      ACCESS:   24236595  HIT:     619823  MISS:   23616772
LLC RFO       ACCESS:    4480131  HIT:     185274  MISS:    4294857
LLC PREFETCH  ACCESS:          0  HIT:          0  MISS:          0
LLC WRITEBACK ACCESS:    9345033  HIT:    9344936  MISS:         97
Finished CPU 0 instructions: 1500000000 cycles: 2708955264 cumulative IPC: 0.553719 (Simulation time: 13 hr 36 min 14 sec) 

ChampSim completed all CPUs

Region of Interest Statistics

CPU 0 cumulative IPC: 0.553719 instructions: 1500000000 cycles: 2708955264
cpu0_DTLB TOTAL     ACCESS:  262524995  HIT:  259656923  MISS:    2868072
cpu0_DTLB LOAD      ACCESS:  189081308  HIT:  186283287  MISS:    2798021
cpu0_DTLB RFO       ACCESS:   73443687  HIT:   73373636  MISS:      70051
cpu0_DTLB PREFETCH  ACCESS:          0  HIT:          0  MISS:          0
cpu0_DTLB WRITEBACK ACCESS:          0  HIT:          0  MISS:          0
cpu0_DTLB TRANSLATION ACCESS:          0  HIT:          0  MISS:          0
cpu0_DTLB PREFETCH  REQUESTED:          0  ISSUED:          0  USEFUL:          0  USELESS:          0
cpu0_DTLB AVERAGE MISS LATENCY: 18.12 cycles
cpu0_ITLB TOTAL     ACCESS:  160221316  HIT:  160221313  MISS:          3
cpu0_ITLB LOAD      ACCESS:  160221316  HIT:  160221313  MISS:          3
cpu0_ITLB RFO       ACCESS:          0  HIT:          0  MISS:          0
cpu0_ITLB PREFETCH  ACCESS:          0  HIT:          0  MISS:          0
cpu0_ITLB WRITEBACK ACCESS:          0  HIT:          0  MISS:          0
cpu0_ITLB TRANSLATION ACCESS:          0  HIT:          0  MISS:          0
cpu0_ITLB PREFETCH  REQUESTED:          0  ISSUED:          0  USEFUL:          0  USELESS:          0
cpu0_ITLB AVERAGE MISS LATENCY: 282 cycles
cpu0_L1I TOTAL     ACCESS:        433  HIT:        371  MISS:         62
cpu0_L1I LOAD      ACCESS:        433  HIT:        371  MISS:         62
cpu0_L1I RFO       ACCESS:          0  HIT:          0  MISS:          0
cpu0_L1I PREFETCH  ACCESS:          0  HIT:          0  MISS:          0
cpu0_L1I WRITEBACK ACCESS:          0  HIT:          0  MISS:          0
cpu0_L1I TRANSLATION ACCESS:          0  HIT:          0  MISS:          0
cpu0_L1I PREFETCH  REQUESTED:          0  ISSUED:          0  USEFUL:          0  USELESS:          0
cpu0_L1I AVERAGE MISS LATENCY: 226.435 cycles
cpu0_STLB TOTAL     ACCESS:    2868075  HIT:       4050  MISS:    2864025
cpu0_STLB LOAD      ACCESS:    2798024  HIT:       3545  MISS:    2794479
cpu0_STLB RFO       ACCESS:      70051  HIT:        505  MISS:      69546
cpu0_STLB PREFETCH  ACCESS:          0  HIT:          0  MISS:          0
cpu0_STLB WRITEBACK ACCESS:          0  HIT:          0  MISS:          0
cpu0_STLB TRANSLATION ACCESS:          0  HIT:          0  MISS:          0
cpu0_STLB PREFETCH  REQUESTED:          0  ISSUED:          0  USEFUL:          0  USELESS:          0
cpu0_STLB AVERAGE MISS LATENCY: 9.13261 cycles
cpu0_L1D TOTAL     ACCESS:  316549018  HIT:  287808659  MISS:   28740359
cpu0_L1D LOAD      ACCESS:  148170064  HIT:  123933071  MISS:   24236993
cpu0_L1D RFO       ACCESS:  165514952  HIT:  161034821  MISS:    4480131
cpu0_L1D PREFETCH  ACCESS:          0  HIT:          0  MISS:          0
cpu0_L1D WRITEBACK ACCESS:          0  HIT:          0  MISS:          0
cpu0_L1D TRANSLATION ACCESS:    2864002  HIT:    2840767  MISS:      23235
cpu0_L1D PREFETCH  REQUESTED:          0  ISSUED:          0  USEFUL:          0  USELESS:          0
cpu0_L1D AVERAGE MISS LATENCY: 286.134 cycles
cpu0_L2C TOTAL     ACCESS:   38085457  HIT:    9365533  MISS:   28719924
cpu0_L2C LOAD      ACCESS:   24237055  HIT:        460  MISS:   24236595
cpu0_L2C RFO       ACCESS:    4480131  HIT:          0  MISS:    4480131
cpu0_L2C PREFETCH  ACCESS:          0  HIT:          0  MISS:          0
cpu0_L2C WRITEBACK ACCESS:    9345036  HIT:    9344939  MISS:         97
cpu0_L2C TRANSLATION ACCESS:      23235  HIT:      20134  MISS:       3101
cpu0_L2C PREFETCH  REQUESTED:          0  ISSUED:          0  USEFUL:          0  USELESS:          0
cpu0_L2C AVERAGE MISS LATENCY: 275.276 cycles
LLC TOTAL     ACCESS:   38064860  HIT:   10152159  MISS:   27912701
LLC LOAD      ACCESS:   24236595  HIT:     619823  MISS:   23616772
LLC RFO       ACCESS:    4480131  HIT:     185274  MISS:    4294857
LLC PREFETCH  ACCESS:          0  HIT:          0  MISS:          0
LLC WRITEBACK ACCESS:    9345033  HIT:    9344936  MISS:         97
LLC TRANSLATION ACCESS:       3101  HIT:       2126  MISS:        975
LLC PREFETCH  REQUESTED:          0  ISSUED:          0  USEFUL:          0  USELESS:          0
LLC AVERAGE MISS LATENCY: 261.63 cycles
~~~~~~~~~~Reuse Distance Profiler output~~~~~~~~~~
0	0	0
1	0	0
2	0	0
3	0	0
4	0	0
5	0	0
6	0	0
7	0	0
8	0	0
9	0	0
10	0	0
11	0	0
12	0	0
13	0	0
14	0	0
15	0	0
16	0	0
17	0	0
18	0	0
19	0	0
20	0	0
21	0	0
22	0	0
23	0	0
24	0	0
25	0	0
26	0	0
27	0	0
28	0	0
29	0	0
30	0	0
31	0	0
32	0	0
33	0	0
34	0	0
35	0	0
36	0	0
37	0	0
38	0	0
39	0	0
40	0	0
41	0	0
42	0	0
43	0	0
44	0	0
45	0	0
46	0	0
47	0	0
48	0	0
49	0	0
50	0	0
51	0	0
52	0	0
53	0	0
54	0	0
55	0	0
56	0	0
57	0	0
58	0	0
59	0	0
60	0	0
61	0	0
62	0	0
63	0	0
64	0	0
66	0	0
68	0	0
70	0	0
72	0	0
74	0	0
76	0	0
78	0	0
80	0	0
82	0	0
84	0	0
86	0	0
88	0	0
90	0	0
92	0	0
94	0	0
96	0	0
98	0	0
100	0	0
102	0	0
104	0	0
106	0	0
108	0	0
110	0	0
112	0	0
114	0	0
116	0	0
118	0	0
120	0	0
122	0	0
124	0	0
126	0	0
128	0	0
132	0	0
136	0	0
140	0	0
144	0	0
148	0	0
152	0	0
156	0	0
160	0	0
164	0	0
168	0	0
172	0	0
176	0	0
180	0	0
184	0	0
188	0	0
192	0	0
196	0	0
200	0	0
204	0	0
208	0	0
212	0	0
216	0	0
220	0	0
224	0	0
228	0	0
232	0	0
236	0	0
240	0	0
244	0	0
248	0	0
252	0	0
256	0	0
264	0	0
272	0	0
280	0	0
288	0	0
296	0	0
304	0	0
312	0	0
320	0	0
328	0	0
336	0	0
344	0	0
352	0	0
360	0	0
368	0	0
376	0	0
384	0	0
392	0	0
400	0	0
408	0	0
416	0	0
424	0	0
432	0	0
440	0	0
448	0	0
456	0	0
464	0	0
472	0	0
480	0	0
488	0	0
496	0	0
504	0	0
512	0	0
528	0	0
544	0	0
560	0	0
576	0	0
592	0	0
608	0	0
624	0	0
640	0	0
656	0	0
672	0	0
688	0	0
704	0	0
720	0	0
736	0	0
752	0	0
768	0	0
784	0	0
800	0	0
816	0	0
832	0	0
848	0	0
864	0	0
880	0	0
896	0	0
912	0	0
928	0	0
944	0	0
960	0	0
976	0	0
992	0	0
1008	0	0
1024	0	0
1056	0	0
1088	0	0
1120	0	0
1152	0	0
1184	0	0
1216	0	0
1248	0	0
1280	0	0
1312	0	0
1344	0	0
1376	0	0
1408	0	0
1440	0	0
1472	0	0
1504	0	0
1536	0	0
1568	0	0
1600	0	0
1632	0	0
1664	0	0
1696	0	0
1728	0	0
1760	0	0
1792	0	0
1824	0	0
1856	0	0
1888	0	0
1920	0	0
1952	0	0
1984	0	0
2016	0	0
2048	0	0
2112	0	0
2176	0	0
2240	0	0
2304	0	0
2368	0	0
2432	0	0
2496	0	0
2560	0	0
2624	0	0
2688	0	0
2752	0	0
2816	0	0
2880	0	0
2944	0	0
3008	0	0
3072	0	0
3136	0	0
3200	0	0
3264	0	0
3328	0	0
3392	0	0
3456	0	0
3520	0	0
3584	0	0
3648	0	0
3712	0	0
3776	0	0
3840	0	0
3904	0	0
3968	0	0
4032	0	0
4096	0	0
4224	0	0
4352	0	0
4480	0	0
4608	0	0
4736	0	0
4864	0	0
4992	0	0
5120	0	0
5248	0	0
5376	0	0
5504	0	0
5632	0	0
5760	0	0
5888	0	0
6016	0	0
6144	0	0
6272	0	0
6400	0	0
6528	0	0
6656	0	0
6784	0	0
6912	0	0
7040	0	0
7168	0	0
7296	0	0
7424	0	0
7552	0	0
7680	0	0
7808	0	0
7936	0	0
8064	0	0
8192	0	0
8448	0	0
8704	0	0
8960	0	0
9216	0	0
9472	0	0
9728	0	0
9984	0	0
10240	0	0
10496	0	0
10752	0	0
11008	0	0
11264	0	0
11520	0	0
11776	0	0
12032	0	0
12288	0	0
12544	0	0
12800	0	0
13056	0	0
13312	0	0
13568	0	0
13824	0	0
14080	0	0
14336	0	0
14592	0	0
14848	0	0
15104	0	0
15360	0	0
15616	0	0
15872	0	0
16128	0	0
16384	0	0
16896	0	0
17408	0	0
17920	0	0
18432	0	0
18944	0	0
19456	0	0
19968	0	0
20480	0	0
20992	0	0
21504	0	0
22016	0	0
22528	0	0
23040	0	0
23552	0	0
24064	0	0
24576	0	0
25088	0	0
25600	0	0
26112	0	0
26624	0	0
27136	0	0
27648	0	0
28160	0	0
28672	0	0
29184	0	0
29696	0	0
30208	0	0
30720	0	0
31232	0	0
31744	0	0
32256	0	0
32768	0	0
33792	0	0
34816	0	0
35840	0	0
36864	0	0
37888	0	0
38912	0	0
39936	0	0
40960	0	0
41984	0	0
43008	0	0
44032	0	0
45056	0	0
46080	0	0
47104	0	0
48128	0	0
49152	0	0
50176	0	0
51200	0	0
52224	0	0
53248	0	0
54272	0	0
55296	0	0
56320	0	0
57344	0	0
58368	0	0
59392	0	0
60416	0	0
61440	0	0
62464	0	0
63488	0	0
64512	0	0
65536	0	0
67584	0	0
69632	0	0
71680	0	0
73728	0	0
75776	0	0
77824	0	0
79872	0	0
81920	0	0
83968	0	0
86016	0	0
88064	0	0
90112	0	0
92160	0	0
94208	0	0
96256	0	0
98304	0	0
100352	0	0
102400	0	0
104448	0	0
106496	0	0
108544	0	0
110592	0	0
112640	0	0
114688	0	0
116736	0	0
118784	0	0
120832	0	0
122880	0	0
124928	0	0
126976	0	0
129024	0	0
131072	0	0
135168	0	0
139264	0	0
143360	0	0
147456	0	0
151552	0	0
155648	0	0
159744	0	0
163840	0	0
167936	0	0
172032	0	0
176128	0	0
180224	0	0
184320	0	0
188416	0	0
192512	0	0
196608	0	0
200704	0	0
204800	0	0
208896	0	0
212992	0	0
217088	0	0
221184	0	0
225280	0	0
229376	0	0
233472	0	0
237568	0	0
241664	0	0
245760	0	0
249856	0	0
253952	0	0
258048	0	0
262144	0	0
270336	0	0
278528	0	0
286720	0	0
294912	0	0
303104	0	0
311296	0	0
319488	0	0
327680	0	0
335872	0	0
344064	0	0
352256	0	0
360448	0	0
368640	0	0
376832	0	0
385024	0	0
393216	0	0
401408	0	0
409600	0	0
417792	0	0
425984	0	0
434176	0	0
442368	0	0
450560	0	0
458752	0	0
466944	0	0
475136	0	0
483328	0	0
491520	0	0
499712	0	0
507904	0	0
516096	0	0
524288	0	0
540672	0	0
557056	0	0
573440	0	0
589824	0	0
606208	0	0
622592	0	0
638976	0	0
655360	0	0
671744	0	0
688128	0	0
704512	0	0
720896	0	0
737280	0	0
753664	0	0
770048	0	0
786432	0	0
802816	0	0
819200	0	0
835584	0	0
851968	0	0
868352	0	0
884736	0	0
901120	0	0
917504	0	0
933888	0	0
950272	0	0
966656	0	0
983040	0	0
999424	0	0
1015808	0	0
1032192	0	0
1048576	0	0
1081344	0	0
1114112	0	0
1146880	0	0
1179648	0	0
1212416	0	0
1245184	0	0
1277952	0	0
1310720	0	0
1343488	0	0
1376256	0	0
1409024	0	0
1441792	0	0
1474560	0	0
1507328	0	0
1540096	0	0
1572864	0	0
1605632	0	0
1638400	0	0
1671168	0	0
1703936	0	0
1736704	0	0
1769472	0	0
1802240	0	0
1835008	0	0
1867776	0	0
1900544	0	0
1933312	0	0
1966080	0	0
1998848	0	0
2031616	0	0
2064384	0	0
2097152	0	0
2162688	0	0
2228224	0	0
2293760	0	0
2359296	0	0
2424832	0	0
2490368	0	0
2555904	0	0
2621440	0	0
2686976	0	0
2752512	0	0
2818048	0	0
2883584	0	0
2949120	0	0
3014656	0	0
3080192	0	0
3145728	0	0
3211264	0	0
3276800	0	0
3342336	0	0
3407872	0	0
3473408	0	0
3538944	0	0
3604480	0	0
3670016	0	0
3735552	0	0
3801088	0	0
3866624	0	0
3932160	0	0
3997696	0	0
4063232	0	0
4128768	0	0
4194304	0	0
4325376	0	0
4456448	0	0
4587520	0	0
4718592	0	0
4849664	0	0
4980736	0	0
5111808	0	0
5242880	0	0
5373952	0	0
5505024	0	0
5636096	0	0
5767168	0	0
5898240	0	0
6029312	0	0
6160384	0	0
6291456	0	0
6422528	0	0
6553600	0	0
6684672	0	0
6815744	0	0
6946816	0	0
7077888	0	0
7208960	0	0
7340032	0	0
7471104	0	0
7602176	0	0
7733248	0	0
7864320	0	0
7995392	0	0
8126464	0	0
8257536	0	0
8388608	0	0
8650752	0	0
8912896	0	0
9175040	0	0
9437184	0	0
9699328	0	0
9961472	0	0
10223616	0	0
10485760	0	0
10747904	0	0
11010048	0	0
11272192	0	0
11534336	0	0
11796480	0	0
12058624	0	0
12320768	0	0
12582912	0	0
12845056	0	0
13107200	0	0
13369344	0	0
13631488	0	0
13893632	0	0
14155776	0	0
14417920	0	0
14680064	0	0
14942208	0	0
15204352	0	0
15466496	0	0
15728640	0	0
15990784	0	0
16252928	0	0
16515072	0	0
16777216	0	0
17301504	0	0
17825792	0	0
18350080	0	0
18874368	0	0
19398656	0	0
19922944	0	0
20447232	0	0
20971520	0	0
21495808	0	0
22020096	0	0
22544384	0	0
23068672	0	0
23592960	0	0
24117248	0	0
24641536	0	0
25165824	0	0
25690112	0	0
26214400	0	0
26738688	0	0
27262976	0	0
27787264	0	0
28311552	0	0
28835840	0	0
29360128	0	0
29884416	0	0
30408704	0	0
30932992	0	0
31457280	0	0
31981568	0	0
32505856	0	0
33030144	0	0
33554432	0	0
34603008	0	0
35651584	0	0
36700160	0	0
37748736	0	0
38797312	0	0
39845888	0	0
40894464	0	0
41943040	0	0
42991616	0	0
44040192	0	0
45088768	0	0
46137344	0	0
47185920	0	0
48234496	0	0
49283072	0	0
50331648	0	0
51380224	0	0
52428800	0	0
53477376	0	0
54525952	0	0
55574528	0	0
56623104	0	0
57671680	0	0
58720256	0	0
59768832	0	0
60817408	0	0
61865984	0	0
62914560	0	0
63963136	0	0
65011712	0	0
66060288	0	0
67108864	0	0
69206016	0	0
71303168	0	0
73400320	0	0
75497472	0	0
77594624	0	0
79691776	0	0
81788928	0	0
83886080	0	0
85983232	0	0
88080384	0	0
90177536	0	0
92274688	0	0
94371840	0	0
96468992	0	0
98566144	0	0
100663296	0	0
102760448	0	0
104857600	0	0
106954752	0	0
109051904	0	0
111149056	0	0
113246208	0	0
115343360	0	0
117440512	0	0
119537664	0	0
121634816	0	0
123731968	0	0
125829120	0	0
127926272	0	0
130023424	0	0
132120576	0	0
134217728	0	0
138412032	0	0
142606336	0	0
146800640	0	0
150994944	0	0
155189248	0	0
159383552	0	0
163577856	0	0
167772160	0	0
171966464	0	0
176160768	0	0
180355072	0	0
184549376	0	0
188743680	0	0
192937984	0	0
197132288	0	0
201326592	0	0
205520896	0	0
209715200	0	0
213909504	0	0
218103808	0	0
222298112	0	0
226492416	0	0
230686720	0	0
234881024	0	0
239075328	0	0
243269632	0	0
247463936	0	0
251658240	0	0
255852544	0	0
260046848	0	0
264241152	0	0
268435456	0	0
276824064	0	0
285212672	0	0
293601280	0	0
301989888	0	0
310378496	0	0
318767104	0	0
327155712	0	0
335544320	0	0
343932928	0	0
352321536	0	0
360710144	0	0
369098752	0	0
377487360	0	0
385875968	0	0
394264576	0	0
402653184	0	0
411041792	0	0
419430400	0	0
427819008	0	0
436207616	0	0
444596224	0	0
452984832	0	0
461373440	0	0
469762048	0	0
478150656	0	0
486539264	0	0
494927872	0	0
503316480	0	0
511705088	0	0
520093696	0	0
528482304	0	0
536870912	0	0
553648128	0	0
570425344	0	0
587202560	0	0
603979776	0	0
620756992	0	0
637534208	0	0
654311424	0	0
671088640	0	0
687865856	0	0
704643072	0	0
721420288	0	0
738197504	0	0
754974720	0	0
771751936	0	0
788529152	0	0
805306368	0	0
822083584	0	0
838860800	0	0
855638016	0	0
872415232	0	0
889192448	0	0
905969664	0	0
922746880	0	0
939524096	0	0
956301312	0	0
973078528	0	0
989855744	0	0
1006632960	0	0
1023410176	0	0
1040187392	0	0
1056964608	0	0
1073741824	0	0
1107296256	0	0
1140850688	0	0
1174405120	0	0
1207959552	0	0
1241513984	0	0
1275068416	0	0
1308622848	0	0
1342177280	0	0
1375731712	0	0
1409286144	0	0
1442840576	0	0
1476395008	0	0
1509949440	0	0
1543503872	0	0
1577058304	0	0
1610612736	0	0
1644167168	0	0
1677721600	0	0
1711276032	0	0
1744830464	0	0
1778384896	0	0
1811939328	0	0
1845493760	0	0
1879048192	0	0
1912602624	0	0
1946157056	0	0
1979711488	0	0
2013265920	0	0
2046820352	0	0
2080374784	0	0
2113929216	0	0
2147483648	0	0
2214592512	0	0
2281701376	0	0
2348810240	0	0
2415919104	0	0
2483027968	0	0
2550136832	0	0
2617245696	0	0
2684354560	0	0
2751463424	0	0
2818572288	0	0
2885681152	0	0
2952790016	0	0
3019898880	0	0
3087007744	0	0
3154116608	0	0
3221225472	0	0
3288334336	0	0
3355443200	0	0
3422552064	0	0
3489660928	0	0
3556769792	0	0
3623878656	0	0
3690987520	0	0
3758096384	0	0
3825205248	0	0
3892314112	0	0
3959422976	0	0
4026531840	0	0
4093640704	0	0
4160749568	0	0
4227858432	0	0
~~~~~~~~~~Reuse Distance Profiler output end~~~~~~~~~~


DRAM Statistics
 CHANNEL 0
 RQ ROW_BUFFER_HIT:    4970417  ROW_BUFFER_MISS:   22941460
 DBUS AVG_CONGESTED_CYCLE:    3.94283
 WQ ROW_BUFFER_HIT:     904009  ROW_BUFFER_MISS:    8325907  FULL:          0


CPU 0 Branch Prediction Accuracy: 59.0026% MPKI: 28.079 Average ROB Occupancy at Mispredict: 64.6649
Branch type MPKI
BRANCH_DIRECT_JUMP: 1e-05
BRANCH_INDIRECT: 0
BRANCH_CONDITIONAL: 28.079
BRANCH_DIRECT_CALL: 2e-05
BRANCH_INDIRECT_CALL: 0
BRANCH_RETURN: 2e-05

