
*** ChampSim Multicore Out-of-Order Simulator ***

Warmup Instructions: 50000000
Simulation Instructions: 1500000000
Number of CPUs: 1
Off-chip DRAM Size: 4 GiB Channels: 1 Width: 64-bit Data Rate: 3200 MT/s

VirtualMemory physical capacity: 8588881920 num_ppages: 2096895
VirtualMemory page size: 4096 log2_page_size: 12

CPU 0 runs traces/437.leslie3d-265B.champsimtrace.xz
CPU 0 Bimodal branch predictor
Basic BTB sets: 1024 ways: 8 indirect buffer size: 4096 RAS size: 64
Initializing LRU.
Initializing LRU.
Initializing LRU.
Initializing LRU.
Initializing rdLRU.
Initializing LRU.
Initializing LRU.
Heartbeat CPU 0 instructions: 2000000 cycles: 758067 heartbeat IPC: 2.63829 cumulative IPC: 2.63829 (Simulation time: 0 hr 1 min 9 sec) 
Heartbeat CPU 0 instructions: 4000000 cycles: 1516086 heartbeat IPC: 2.63846 cumulative IPC: 2.63837 (Simulation time: 0 hr 2 min 24 sec) 
Heartbeat CPU 0 instructions: 6000002 cycles: 2274111 heartbeat IPC: 2.63844 cumulative IPC: 2.63839 (Simulation time: 0 hr 3 min 39 sec) 
Heartbeat CPU 0 instructions: 8000002 cycles: 3031905 heartbeat IPC: 2.63924 cumulative IPC: 2.63861 (Simulation time: 0 hr 4 min 53 sec) 
Heartbeat CPU 0 instructions: 10000003 cycles: 3789767 heartbeat IPC: 2.639 cumulative IPC: 2.63869 (Simulation time: 0 hr 6 min 2 sec) 
Heartbeat CPU 0 instructions: 12000004 cycles: 4547582 heartbeat IPC: 2.63917 cumulative IPC: 2.63877 (Simulation time: 0 hr 7 min 4 sec) 
Heartbeat CPU 0 instructions: 14000001 cycles: 5304856 heartbeat IPC: 2.64105 cumulative IPC: 2.63909 (Simulation time: 0 hr 8 min 7 sec) 
Heartbeat CPU 0 instructions: 16000001 cycles: 6062107 heartbeat IPC: 2.64113 cumulative IPC: 2.63935 (Simulation time: 0 hr 9 min 15 sec) 
Heartbeat CPU 0 instructions: 18000002 cycles: 6819503 heartbeat IPC: 2.64063 cumulative IPC: 2.63949 (Simulation time: 0 hr 10 min 19 sec) 
Heartbeat CPU 0 instructions: 20000000 cycles: 7576969 heartbeat IPC: 2.64038 cumulative IPC: 2.63958 (Simulation time: 0 hr 11 min 22 sec) 
Heartbeat CPU 0 instructions: 22000001 cycles: 8334441 heartbeat IPC: 2.64036 cumulative IPC: 2.63965 (Simulation time: 0 hr 12 min 26 sec) 
Heartbeat CPU 0 instructions: 24000003 cycles: 9092433 heartbeat IPC: 2.63855 cumulative IPC: 2.63956 (Simulation time: 0 hr 13 min 33 sec) 
Heartbeat CPU 0 instructions: 26000001 cycles: 9849930 heartbeat IPC: 2.64027 cumulative IPC: 2.63961 (Simulation time: 0 hr 14 min 36 sec) 
Heartbeat CPU 0 instructions: 28000000 cycles: 10607562 heartbeat IPC: 2.6398 cumulative IPC: 2.63963 (Simulation time: 0 hr 15 min 41 sec) 
Heartbeat CPU 0 instructions: 30000001 cycles: 11365454 heartbeat IPC: 2.6389 cumulative IPC: 2.63958 (Simulation time: 0 hr 16 min 44 sec) 
Heartbeat CPU 0 instructions: 32000002 cycles: 12123402 heartbeat IPC: 2.6387 cumulative IPC: 2.63952 (Simulation time: 0 hr 17 min 48 sec) 
Heartbeat CPU 0 instructions: 34000004 cycles: 12881422 heartbeat IPC: 2.63846 cumulative IPC: 2.63946 (Simulation time: 0 hr 18 min 52 sec) 
Heartbeat CPU 0 instructions: 36000004 cycles: 13639442 heartbeat IPC: 2.63845 cumulative IPC: 2.6394 (Simulation time: 0 hr 19 min 55 sec) 
Heartbeat CPU 0 instructions: 38000003 cycles: 14397232 heartbeat IPC: 2.63925 cumulative IPC: 2.6394 (Simulation time: 0 hr 20 min 59 sec) 
Heartbeat CPU 0 instructions: 40000004 cycles: 15155090 heartbeat IPC: 2.63902 cumulative IPC: 2.63938 (Simulation time: 0 hr 21 min 59 sec) 
Heartbeat CPU 0 instructions: 42000000 cycles: 15912898 heartbeat IPC: 2.63919 cumulative IPC: 2.63937 (Simulation time: 0 hr 23 min 6 sec) 
Heartbeat CPU 0 instructions: 44000000 cycles: 16670151 heartbeat IPC: 2.64113 cumulative IPC: 2.63945 (Simulation time: 0 hr 24 min 12 sec) 
Heartbeat CPU 0 instructions: 46000003 cycles: 17427403 heartbeat IPC: 2.64113 cumulative IPC: 2.63952 (Simulation time: 0 hr 25 min 17 sec) 
Heartbeat CPU 0 instructions: 48000002 cycles: 18184810 heartbeat IPC: 2.64059 cumulative IPC: 2.63957 (Simulation time: 0 hr 26 min 24 sec) 
Heartbeat CPU 0 instructions: 50000001 cycles: 18942280 heartbeat IPC: 2.64037 cumulative IPC: 2.6396 (Simulation time: 0 hr 27 min 28 sec) 

Warmup complete CPU 0 instructions: 50000001 cycles: 18942280 (Simulation time: 0 hr 27 min 28 sec) 

Heartbeat CPU 0 instructions: 52000001 cycles: 20371529 heartbeat IPC: 1.39934 cumulative IPC: 1.39934 (Simulation time: 0 hr 29 min 3 sec) 

Region of Interest Statistics
cpu0_DTLB TOTAL     ACCESS:     513931  HIT:     513515  MISS:        416
cpu0_DTLB LOAD      ACCESS:     465840  HIT:     465524  MISS:        316
cpu0_DTLB RFO       ACCESS:      48091  HIT:      47991  MISS:        100
cpu0_DTLB PREFETCH  ACCESS:          0  HIT:          0  MISS:          0
cpu0_DTLB WRITEBACK ACCESS:          0  HIT:          0  MISS:          0
cpu0_ITLB TOTAL     ACCESS:      20658  HIT:      20658  MISS:          0
cpu0_ITLB LOAD      ACCESS:      20658  HIT:      20658  MISS:          0
cpu0_ITLB RFO       ACCESS:          0  HIT:          0  MISS:          0
cpu0_ITLB PREFETCH  ACCESS:          0  HIT:          0  MISS:          0
cpu0_ITLB WRITEBACK ACCESS:          0  HIT:          0  MISS:          0
cpu0_L1I TOTAL     ACCESS:       7107  HIT:       7107  MISS:          0
cpu0_L1I LOAD      ACCESS:       7107  HIT:       7107  MISS:          0
cpu0_L1I RFO       ACCESS:          0  HIT:          0  MISS:          0
cpu0_L1I PREFETCH  ACCESS:          0  HIT:          0  MISS:          0
cpu0_L1I WRITEBACK ACCESS:          0  HIT:          0  MISS:          0
cpu0_STLB TOTAL     ACCESS:        416  HIT:        304  MISS:        112
cpu0_STLB LOAD      ACCESS:        316  HIT:        233  MISS:         83
cpu0_STLB RFO       ACCESS:        100  HIT:         71  MISS:         29
cpu0_STLB PREFETCH  ACCESS:          0  HIT:          0  MISS:          0
cpu0_STLB WRITEBACK ACCESS:          0  HIT:          0  MISS:          0
cpu0_L1D TOTAL     ACCESS:     556066  HIT:     538742  MISS:      17324
cpu0_L1D LOAD      ACCESS:     486171  HIT:     472421  MISS:      13750
cpu0_L1D RFO       ACCESS:      69786  HIT:      66253  MISS:       3533
cpu0_L1D PREFETCH  ACCESS:          0  HIT:          0  MISS:          0
cpu0_L1D WRITEBACK ACCESS:          0  HIT:          0  MISS:          0
cpu0_L2C TOTAL     ACCESS:      22041  HIT:      10811  MISS:      11230
cpu0_L2C LOAD      ACCESS:      13750  HIT:       4330  MISS:       9420
cpu0_L2C RFO       ACCESS:       3533  HIT:       1723  MISS:       1810
cpu0_L2C PREFETCH  ACCESS:          0  HIT:          0  MISS:          0
cpu0_L2C WRITEBACK ACCESS:       4717  HIT:       4717  MISS:          0
LLC TOTAL     ACCESS:      13009  HIT:       4511  MISS:       8498
LLC LOAD      ACCESS:       9420  HIT:       2732  MISS:       6688
LLC RFO       ACCESS:       1810  HIT:          0  MISS:       1810
LLC PREFETCH  ACCESS:          0  HIT:          0  MISS:          0
LLC WRITEBACK ACCESS:       1779  HIT:       1779  MISS:          0
Heartbeat CPU 0 instructions: 54000004 cycles: 21777229 heartbeat IPC: 1.42278 cumulative IPC: 1.41096 (Simulation time: 0 hr 30 min 42 sec) 

Region of Interest Statistics
cpu0_DTLB TOTAL     ACCESS:    1028566  HIT:    1027667  MISS:        899
cpu0_DTLB LOAD      ACCESS:     932660  HIT:     931969  MISS:        691
cpu0_DTLB RFO       ACCESS:      95906  HIT:      95698  MISS:        208
cpu0_DTLB PREFETCH  ACCESS:          0  HIT:          0  MISS:          0
cpu0_DTLB WRITEBACK ACCESS:          0  HIT:          0  MISS:          0
cpu0_ITLB TOTAL     ACCESS:      40817  HIT:      40817  MISS:          0
cpu0_ITLB LOAD      ACCESS:      40817  HIT:      40817  MISS:          0
cpu0_ITLB RFO       ACCESS:          0  HIT:          0  MISS:          0
cpu0_ITLB PREFETCH  ACCESS:          0  HIT:          0  MISS:          0
cpu0_ITLB WRITEBACK ACCESS:          0  HIT:          0  MISS:          0
cpu0_L1I TOTAL     ACCESS:      13905  HIT:      13905  MISS:          0
cpu0_L1I LOAD      ACCESS:      13905  HIT:      13905  MISS:          0
cpu0_L1I RFO       ACCESS:          0  HIT:          0  MISS:          0
cpu0_L1I PREFETCH  ACCESS:          0  HIT:          0  MISS:          0
cpu0_L1I WRITEBACK ACCESS:          0  HIT:          0  MISS:          0
cpu0_STLB TOTAL     ACCESS:        899  HIT:        686  MISS:        213
cpu0_STLB LOAD      ACCESS:        691  HIT:        535  MISS:        156
cpu0_STLB RFO       ACCESS:        208  HIT:        151  MISS:         57
cpu0_STLB PREFETCH  ACCESS:          0  HIT:          0  MISS:          0
cpu0_STLB WRITEBACK ACCESS:          0  HIT:          0  MISS:          0
cpu0_L1D TOTAL     ACCESS:    1113559  HIT:    1079031  MISS:      34528
cpu0_L1D LOAD      ACCESS:     973619  HIT:     946156  MISS:      27463
cpu0_L1D RFO       ACCESS:     139734  HIT:     132744  MISS:       6990
cpu0_L1D PREFETCH  ACCESS:          0  HIT:          0  MISS:          0
cpu0_L1D WRITEBACK ACCESS:          0  HIT:          0  MISS:          0
cpu0_L2C TOTAL     ACCESS:      43907  HIT:      21478  MISS:      22429
cpu0_L2C LOAD      ACCESS:      27463  HIT:       8654  MISS:      18809
cpu0_L2C RFO       ACCESS:       6990  HIT:       3370  MISS:       3620
cpu0_L2C PREFETCH  ACCESS:          0  HIT:          0  MISS:          0
cpu0_L2C WRITEBACK ACCESS:       9379  HIT:       9379  MISS:          0
LLC TOTAL     ACCESS:      25919  HIT:       9209  MISS:      16710
LLC LOAD      ACCESS:      18809  HIT:       5719  MISS:      13090
LLC RFO       ACCESS:       3620  HIT:          0  MISS:       3620
LLC PREFETCH  ACCESS:          0  HIT:          0  MISS:          0
LLC WRITEBACK ACCESS:       3490  HIT:       3490  MISS:          0
Heartbeat CPU 0 instructions: 56000001 cycles: 23168774 heartbeat IPC: 1.43725 cumulative IPC: 1.41962 (Simulation time: 0 hr 32 min 23 sec) 

Region of Interest Statistics
cpu0_DTLB TOTAL     ACCESS:    1543415  HIT:    1542017  MISS:       1398
cpu0_DTLB LOAD      ACCESS:    1399589  HIT:    1398505  MISS:       1084
cpu0_DTLB RFO       ACCESS:     143826  HIT:     143512  MISS:        314
cpu0_DTLB PREFETCH  ACCESS:          0  HIT:          0  MISS:          0
cpu0_DTLB WRITEBACK ACCESS:          0  HIT:          0  MISS:          0
cpu0_ITLB TOTAL     ACCESS:      61463  HIT:      61463  MISS:          0
cpu0_ITLB LOAD      ACCESS:      61463  HIT:      61463  MISS:          0
cpu0_ITLB RFO       ACCESS:          0  HIT:          0  MISS:          0
cpu0_ITLB PREFETCH  ACCESS:          0  HIT:          0  MISS:          0
cpu0_ITLB WRITEBACK ACCESS:          0  HIT:          0  MISS:          0
cpu0_L1I TOTAL     ACCESS:      21012  HIT:      21012  MISS:          0
cpu0_L1I LOAD      ACCESS:      21012  HIT:      21012  MISS:          0
cpu0_L1I RFO       ACCESS:          0  HIT:          0  MISS:          0
cpu0_L1I PREFETCH  ACCESS:          0  HIT:          0  MISS:          0
cpu0_L1I WRITEBACK ACCESS:          0  HIT:          0  MISS:          0
cpu0_STLB TOTAL     ACCESS:       1398  HIT:       1075  MISS:        323
cpu0_STLB LOAD      ACCESS:       1084  HIT:        846  MISS:        238
cpu0_STLB RFO       ACCESS:        314  HIT:        229  MISS:         85
cpu0_STLB PREFETCH  ACCESS:          0  HIT:          0  MISS:          0
cpu0_STLB WRITEBACK ACCESS:          0  HIT:          0  MISS:          0
cpu0_L1D TOTAL     ACCESS:    1669452  HIT:    1617637  MISS:      51815
cpu0_L1D LOAD      ACCESS:    1459834  HIT:    1418731  MISS:      41103
cpu0_L1D RFO       ACCESS:     209306  HIT:     198704  MISS:      10602
cpu0_L1D PREFETCH  ACCESS:          0  HIT:          0  MISS:          0
cpu0_L1D WRITEBACK ACCESS:          0  HIT:          0  MISS:          0
cpu0_L2C TOTAL     ACCESS:      65926  HIT:      32366  MISS:      33560
cpu0_L2C LOAD      ACCESS:      41101  HIT:      12972  MISS:      28129
cpu0_L2C RFO       ACCESS:      10602  HIT:       5171  MISS:       5431
cpu0_L2C PREFETCH  ACCESS:          0  HIT:          0  MISS:          0
cpu0_L2C WRITEBACK ACCESS:      14113  HIT:      14113  MISS:          0
LLC TOTAL     ACCESS:      38719  HIT:      14047  MISS:      24672
LLC LOAD      ACCESS:      28129  HIT:       8889  MISS:      19240
LLC RFO       ACCESS:       5431  HIT:          1  MISS:       5430
LLC PREFETCH  ACCESS:          0  HIT:          0  MISS:          0
LLC WRITEBACK ACCESS:       5159  HIT:       5157  MISS:          2
Heartbeat CPU 0 instructions: 58000000 cycles: 24531385 heartbeat IPC: 1.46777 cumulative IPC: 1.43136 (Simulation time: 0 hr 34 min 3 sec) 

Region of Interest Statistics
cpu0_DTLB TOTAL     ACCESS:    2057935  HIT:    2056148  MISS:       1787
cpu0_DTLB LOAD      ACCESS:    1865597  HIT:    1864222  MISS:       1375
cpu0_DTLB RFO       ACCESS:     192338  HIT:     191926  MISS:        412
cpu0_DTLB PREFETCH  ACCESS:          0  HIT:          0  MISS:          0
cpu0_DTLB WRITEBACK ACCESS:          0  HIT:          0  MISS:          0
cpu0_ITLB TOTAL     ACCESS:      82337  HIT:      82337  MISS:          0
cpu0_ITLB LOAD      ACCESS:      82337  HIT:      82337  MISS:          0
cpu0_ITLB RFO       ACCESS:          0  HIT:          0  MISS:          0
cpu0_ITLB PREFETCH  ACCESS:          0  HIT:          0  MISS:          0
cpu0_ITLB WRITEBACK ACCESS:          0  HIT:          0  MISS:          0
cpu0_L1I TOTAL     ACCESS:      28119  HIT:      28119  MISS:          0
cpu0_L1I LOAD      ACCESS:      28119  HIT:      28119  MISS:          0
cpu0_L1I RFO       ACCESS:          0  HIT:          0  MISS:          0
cpu0_L1I PREFETCH  ACCESS:          0  HIT:          0  MISS:          0
cpu0_L1I WRITEBACK ACCESS:          0  HIT:          0  MISS:          0
cpu0_STLB TOTAL     ACCESS:       1787  HIT:       1355  MISS:        432
cpu0_STLB LOAD      ACCESS:       1375  HIT:       1057  MISS:        318
cpu0_STLB RFO       ACCESS:        412  HIT:        298  MISS:        114
cpu0_STLB PREFETCH  ACCESS:          0  HIT:          0  MISS:          0
cpu0_STLB WRITEBACK ACCESS:          0  HIT:          0  MISS:          0
cpu0_L1D TOTAL     ACCESS:    2226454  HIT:    2157398  MISS:      69056
cpu0_L1D LOAD      ACCESS:    1946899  HIT:    1892086  MISS:      54813
cpu0_L1D RFO       ACCESS:     279137  HIT:     265044  MISS:      14093
cpu0_L1D PREFETCH  ACCESS:          0  HIT:          0  MISS:          0
cpu0_L1D WRITEBACK ACCESS:          0  HIT:          0  MISS:          0
cpu0_L2C TOTAL     ACCESS:      87864  HIT:      43132  MISS:      44732
cpu0_L2C LOAD      ACCESS:      54811  HIT:      17329  MISS:      37482
cpu0_L2C RFO       ACCESS:      14093  HIT:       6844  MISS:       7249
cpu0_L2C PREFETCH  ACCESS:          0  HIT:          0  MISS:          0
cpu0_L2C WRITEBACK ACCESS:      18810  HIT:      18809  MISS:          1
LLC TOTAL     ACCESS:      51867  HIT:      19526  MISS:      32341
LLC LOAD      ACCESS:      37482  HIT:      12399  MISS:      25083
LLC RFO       ACCESS:       7249  HIT:          4  MISS:       7245
LLC PREFETCH  ACCESS:          0  HIT:          0  MISS:          0
LLC WRITEBACK ACCESS:       7136  HIT:       7123  MISS:         13
Heartbeat CPU 0 instructions: 60000002 cycles: 25974928 heartbeat IPC: 1.38548 cumulative IPC: 1.42194 (Simulation time: 0 hr 35 min 44 sec) 

Region of Interest Statistics
cpu0_DTLB TOTAL     ACCESS:    2572035  HIT:    2569690  MISS:       2345
cpu0_DTLB LOAD      ACCESS:    2331512  HIT:    2329696  MISS:       1816
cpu0_DTLB RFO       ACCESS:     240523  HIT:     239994  MISS:        529
cpu0_DTLB PREFETCH  ACCESS:          0  HIT:          0  MISS:          0
cpu0_DTLB WRITEBACK ACCESS:          0  HIT:          0  MISS:          0
cpu0_ITLB TOTAL     ACCESS:     103131  HIT:     103131  MISS:          0
cpu0_ITLB LOAD      ACCESS:     103131  HIT:     103131  MISS:          0
cpu0_ITLB RFO       ACCESS:          0  HIT:          0  MISS:          0
cpu0_ITLB PREFETCH  ACCESS:          0  HIT:          0  MISS:          0
cpu0_ITLB WRITEBACK ACCESS:          0  HIT:          0  MISS:          0
cpu0_L1I TOTAL     ACCESS:      35226  HIT:      35226  MISS:          0
cpu0_L1I LOAD      ACCESS:      35226  HIT:      35226  MISS:          0
cpu0_L1I RFO       ACCESS:          0  HIT:          0  MISS:          0
cpu0_L1I PREFETCH  ACCESS:          0  HIT:          0  MISS:          0
cpu0_L1I WRITEBACK ACCESS:          0  HIT:          0  MISS:          0
cpu0_STLB TOTAL     ACCESS:       2345  HIT:       1783  MISS:        562
cpu0_STLB LOAD      ACCESS:       1816  HIT:       1400  MISS:        416
cpu0_STLB RFO       ACCESS:        529  HIT:        383  MISS:        146
cpu0_STLB PREFETCH  ACCESS:          0  HIT:          0  MISS:          0
cpu0_STLB WRITEBACK ACCESS:          0  HIT:          0  MISS:          0
cpu0_L1D TOTAL     ACCESS:    2780882  HIT:    2694439  MISS:      86443
cpu0_L1D LOAD      ACCESS:    2431321  HIT:    2362697  MISS:      68624
cpu0_L1D RFO       ACCESS:     349017  HIT:     331383  MISS:      17634
cpu0_L1D PREFETCH  ACCESS:          0  HIT:          0  MISS:          0
cpu0_L1D WRITEBACK ACCESS:          0  HIT:          0  MISS:          0
cpu0_L2C TOTAL     ACCESS:     109927  HIT:      53788  MISS:      56139
cpu0_L2C LOAD      ACCESS:      68622  HIT:      21550  MISS:      47072
cpu0_L2C RFO       ACCESS:      17634  HIT:       8575  MISS:       9059
cpu0_L2C PREFETCH  ACCESS:          0  HIT:          0  MISS:          0
cpu0_L2C WRITEBACK ACCESS:      23486  HIT:      23478  MISS:          8
LLC TOTAL     ACCESS:      64964  HIT:      24140  MISS:      40824
LLC LOAD      ACCESS:      47072  HIT:      15323  MISS:      31749
LLC RFO       ACCESS:       9059  HIT:          4  MISS:       9055
LLC PREFETCH  ACCESS:          0  HIT:          0  MISS:          0
LLC WRITEBACK ACCESS:       8833  HIT:       8813  MISS:         20
Heartbeat CPU 0 instructions: 62000001 cycles: 27387667 heartbeat IPC: 1.41569 cumulative IPC: 1.42089 (Simulation time: 0 hr 37 min 23 sec) 

Region of Interest Statistics
cpu0_DTLB TOTAL     ACCESS:    3084778  HIT:    3081994  MISS:       2784
cpu0_DTLB LOAD      ACCESS:    2795953  HIT:    2793806  MISS:       2147
cpu0_DTLB RFO       ACCESS:     288825  HIT:     288188  MISS:        637
cpu0_DTLB PREFETCH  ACCESS:          0  HIT:          0  MISS:          0
cpu0_DTLB WRITEBACK ACCESS:          0  HIT:          0  MISS:          0
cpu0_ITLB TOTAL     ACCESS:     124016  HIT:     124016  MISS:          0
cpu0_ITLB LOAD      ACCESS:     124016  HIT:     124016  MISS:          0
cpu0_ITLB RFO       ACCESS:          0  HIT:          0  MISS:          0
cpu0_ITLB PREFETCH  ACCESS:          0  HIT:          0  MISS:          0
cpu0_ITLB WRITEBACK ACCESS:          0  HIT:          0  MISS:          0
cpu0_L1I TOTAL     ACCESS:      42339  HIT:      42339  MISS:          0
cpu0_L1I LOAD      ACCESS:      42339  HIT:      42339  MISS:          0
cpu0_L1I RFO       ACCESS:          0  HIT:          0  MISS:          0
cpu0_L1I PREFETCH  ACCESS:          0  HIT:          0  MISS:          0
cpu0_L1I WRITEBACK ACCESS:          0  HIT:          0  MISS:          0
cpu0_STLB TOTAL     ACCESS:       2784  HIT:       2120  MISS:        664
cpu0_STLB LOAD      ACCESS:       2147  HIT:       1657  MISS:        490
cpu0_STLB RFO       ACCESS:        637  HIT:        463  MISS:        174
cpu0_STLB PREFETCH  ACCESS:          0  HIT:          0  MISS:          0
cpu0_STLB WRITEBACK ACCESS:          0  HIT:          0  MISS:          0
cpu0_L1D TOTAL     ACCESS:    3334125  HIT:    3230358  MISS:     103767
cpu0_L1D LOAD      ACCESS:    2914818  HIT:    2832480  MISS:      82338
cpu0_L1D RFO       ACCESS:     418666  HIT:     397462  MISS:      21204
cpu0_L1D PREFETCH  ACCESS:          0  HIT:          0  MISS:          0
cpu0_L1D WRITEBACK ACCESS:          0  HIT:          0  MISS:          0
cpu0_L2C TOTAL     ACCESS:     131999  HIT:      64646  MISS:      67353
cpu0_L2C LOAD      ACCESS:      82336  HIT:      25866  MISS:      56470
cpu0_L2C RFO       ACCESS:      21204  HIT:      10330  MISS:      10874
cpu0_L2C PREFETCH  ACCESS:          0  HIT:          0  MISS:          0
cpu0_L2C WRITEBACK ACCESS:      28234  HIT:      28225  MISS:          9
LLC TOTAL     ACCESS:      78161  HIT:      28893  MISS:      49268
LLC LOAD      ACCESS:      56470  HIT:      18093  MISS:      38377
LLC RFO       ACCESS:      10874  HIT:          4  MISS:      10870
LLC PREFETCH  ACCESS:          0  HIT:          0  MISS:          0
LLC WRITEBACK ACCESS:      10817  HIT:      10796  MISS:         21
Heartbeat CPU 0 instructions: 64000004 cycles: 28811726 heartbeat IPC: 1.40444 cumulative IPC: 1.41852 (Simulation time: 0 hr 39 min 3 sec) 

Region of Interest Statistics
cpu0_DTLB TOTAL     ACCESS:    3599456  HIT:    3596237  MISS:       3219
cpu0_DTLB LOAD      ACCESS:    3262549  HIT:    3260069  MISS:       2480
cpu0_DTLB RFO       ACCESS:     336907  HIT:     336168  MISS:        739
cpu0_DTLB PREFETCH  ACCESS:          0  HIT:          0  MISS:          0
cpu0_DTLB WRITEBACK ACCESS:          0  HIT:          0  MISS:          0
cpu0_ITLB TOTAL     ACCESS:     145041  HIT:     145041  MISS:          0
cpu0_ITLB LOAD      ACCESS:     145041  HIT:     145041  MISS:          0
cpu0_ITLB RFO       ACCESS:          0  HIT:          0  MISS:          0
cpu0_ITLB PREFETCH  ACCESS:          0  HIT:          0  MISS:          0
cpu0_ITLB WRITEBACK ACCESS:          0  HIT:          0  MISS:          0
cpu0_L1I TOTAL     ACCESS:      49446  HIT:      49446  MISS:          0
cpu0_L1I LOAD      ACCESS:      49446  HIT:      49446  MISS:          0
cpu0_L1I RFO       ACCESS:          0  HIT:          0  MISS:          0
cpu0_L1I PREFETCH  ACCESS:          0  HIT:          0  MISS:          0
cpu0_L1I WRITEBACK ACCESS:          0  HIT:          0  MISS:          0
cpu0_STLB TOTAL     ACCESS:       3219  HIT:       2445  MISS:        774
cpu0_STLB LOAD      ACCESS:       2480  HIT:       1908  MISS:        572
cpu0_STLB RFO       ACCESS:        739  HIT:        537  MISS:        202
cpu0_STLB PREFETCH  ACCESS:          0  HIT:          0  MISS:          0
cpu0_STLB WRITEBACK ACCESS:          0  HIT:          0  MISS:          0
cpu0_L1D TOTAL     ACCESS:    3890973  HIT:    3769887  MISS:     121086
cpu0_L1D LOAD      ACCESS:    3401710  HIT:    3305587  MISS:      96123
cpu0_L1D RFO       ACCESS:     488516  HIT:     463813  MISS:      24703
cpu0_L1D PREFETCH  ACCESS:          0  HIT:          0  MISS:          0
cpu0_L1D WRITEBACK ACCESS:          0  HIT:          0  MISS:          0
cpu0_L2C TOTAL     ACCESS:     153977  HIT:      75419  MISS:      78558
cpu0_L2C LOAD      ACCESS:      96121  HIT:      30256  MISS:      65865
cpu0_L2C RFO       ACCESS:      24703  HIT:      12019  MISS:      12684
cpu0_L2C PREFETCH  ACCESS:          0  HIT:          0  MISS:          0
cpu0_L2C WRITEBACK ACCESS:      32893  HIT:      32884  MISS:          9
LLC TOTAL     ACCESS:      90970  HIT:      33156  MISS:      57814
LLC LOAD      ACCESS:      65865  HIT:      20752  MISS:      45113
LLC RFO       ACCESS:      12684  HIT:          4  MISS:      12680
LLC PREFETCH  ACCESS:          0  HIT:          0  MISS:          0
LLC WRITEBACK ACCESS:      12421  HIT:      12400  MISS:         21
Heartbeat CPU 0 instructions: 66000001 cycles: 30297167 heartbeat IPC: 1.3464 cumulative IPC: 1.40908 (Simulation time: 0 hr 40 min 52 sec) 

Region of Interest Statistics
cpu0_DTLB TOTAL     ACCESS:    4111789  HIT:    4108065  MISS:       3724
cpu0_DTLB LOAD      ACCESS:    3726901  HIT:    3724024  MISS:       2877
cpu0_DTLB RFO       ACCESS:     384888  HIT:     384041  MISS:        847
cpu0_DTLB PREFETCH  ACCESS:          0  HIT:          0  MISS:          0
cpu0_DTLB WRITEBACK ACCESS:          0  HIT:          0  MISS:          0
cpu0_ITLB TOTAL     ACCESS:     165895  HIT:     165895  MISS:          0
cpu0_ITLB LOAD      ACCESS:     165895  HIT:     165895  MISS:          0
cpu0_ITLB RFO       ACCESS:          0  HIT:          0  MISS:          0
cpu0_ITLB PREFETCH  ACCESS:          0  HIT:          0  MISS:          0
cpu0_ITLB WRITEBACK ACCESS:          0  HIT:          0  MISS:          0
cpu0_L1I TOTAL     ACCESS:      56553  HIT:      56553  MISS:          0
cpu0_L1I LOAD      ACCESS:      56553  HIT:      56553  MISS:          0
cpu0_L1I RFO       ACCESS:          0  HIT:          0  MISS:          0
cpu0_L1I PREFETCH  ACCESS:          0  HIT:          0  MISS:          0
cpu0_L1I WRITEBACK ACCESS:          0  HIT:          0  MISS:          0
cpu0_STLB TOTAL     ACCESS:       3724  HIT:       2846  MISS:        878
cpu0_STLB LOAD      ACCESS:       2877  HIT:       2230  MISS:        647
cpu0_STLB RFO       ACCESS:        847  HIT:        616  MISS:        231
cpu0_STLB PREFETCH  ACCESS:          0  HIT:          0  MISS:          0
cpu0_STLB WRITEBACK ACCESS:          0  HIT:          0  MISS:          0
cpu0_L1D TOTAL     ACCESS:    4444618  HIT:    4306205  MISS:     138413
cpu0_L1D LOAD      ACCESS:    3885610  HIT:    3775795  MISS:     109815
cpu0_L1D RFO       ACCESS:     558159  HIT:     529857  MISS:      28302
cpu0_L1D PREFETCH  ACCESS:          0  HIT:          0  MISS:          0
cpu0_L1D WRITEBACK ACCESS:          0  HIT:          0  MISS:          0
cpu0_L2C TOTAL     ACCESS:     176040  HIT:      86274  MISS:      89766
cpu0_L2C LOAD      ACCESS:     109813  HIT:      34550  MISS:      75263
cpu0_L2C RFO       ACCESS:      28300  HIT:      13806  MISS:      14494
cpu0_L2C PREFETCH  ACCESS:          0  HIT:          0  MISS:          0
cpu0_L2C WRITEBACK ACCESS:      37631  HIT:      37622  MISS:          9
LLC TOTAL     ACCESS:     104114  HIT:      37297  MISS:      66817
LLC LOAD      ACCESS:      75263  HIT:      22957  MISS:      52306
LLC RFO       ACCESS:      14494  HIT:          4  MISS:      14490
LLC PREFETCH  ACCESS:          0  HIT:          0  MISS:          0
LLC WRITEBACK ACCESS:      14357  HIT:      14336  MISS:         21
Heartbeat CPU 0 instructions: 68000002 cycles: 31709121 heartbeat IPC: 1.41648 cumulative IPC: 1.4099 (Simulation time: 0 hr 42 min 46 sec) 

Region of Interest Statistics
cpu0_DTLB TOTAL     ACCESS:    4624341  HIT:    4620167  MISS:       4174
cpu0_DTLB LOAD      ACCESS:    4191520  HIT:    4188298  MISS:       3222
cpu0_DTLB RFO       ACCESS:     432821  HIT:     431869  MISS:        952
cpu0_DTLB PREFETCH  ACCESS:          0  HIT:          0  MISS:          0
cpu0_DTLB WRITEBACK ACCESS:          0  HIT:          0  MISS:          0
cpu0_ITLB TOTAL     ACCESS:     186737  HIT:     186737  MISS:          0
cpu0_ITLB LOAD      ACCESS:     186737  HIT:     186737  MISS:          0
cpu0_ITLB RFO       ACCESS:          0  HIT:          0  MISS:          0
cpu0_ITLB PREFETCH  ACCESS:          0  HIT:          0  MISS:          0
cpu0_ITLB WRITEBACK ACCESS:          0  HIT:          0  MISS:          0
cpu0_L1I TOTAL     ACCESS:      63660  HIT:      63660  MISS:          0
cpu0_L1I LOAD      ACCESS:      63660  HIT:      63660  MISS:          0
cpu0_L1I RFO       ACCESS:          0  HIT:          0  MISS:          0
cpu0_L1I PREFETCH  ACCESS:          0  HIT:          0  MISS:          0
cpu0_L1I WRITEBACK ACCESS:          0  HIT:          0  MISS:          0
cpu0_STLB TOTAL     ACCESS:       4174  HIT:       3187  MISS:        987
cpu0_STLB LOAD      ACCESS:       3222  HIT:       2494  MISS:        728
cpu0_STLB RFO       ACCESS:        952  HIT:        693  MISS:        259
cpu0_STLB PREFETCH  ACCESS:          0  HIT:          0  MISS:          0
cpu0_STLB WRITEBACK ACCESS:          0  HIT:          0  MISS:          0
cpu0_L1D TOTAL     ACCESS:    4999810  HIT:    4844039  MISS:     155771
cpu0_L1D LOAD      ACCESS:    4371107  HIT:    4247537  MISS:     123570
cpu0_L1D RFO       ACCESS:     627747  HIT:     595882  MISS:      31865
cpu0_L1D PREFETCH  ACCESS:          0  HIT:          0  MISS:          0
cpu0_L1D WRITEBACK ACCESS:          0  HIT:          0  MISS:          0
cpu0_L2C TOTAL     ACCESS:     198134  HIT:      97174  MISS:     100960
cpu0_L2C LOAD      ACCESS:     123568  HIT:      38922  MISS:      84646
cpu0_L2C RFO       ACCESS:      31863  HIT:      15559  MISS:      16304
cpu0_L2C PREFETCH  ACCESS:          0  HIT:          0  MISS:          0
cpu0_L2C WRITEBACK ACCESS:      42367  HIT:      42358  MISS:          9
LLC TOTAL     ACCESS:     116912  HIT:      41653  MISS:      75259
LLC LOAD      ACCESS:      84646  HIT:      25709  MISS:      58937
LLC RFO       ACCESS:      16304  HIT:          4  MISS:      16300
LLC PREFETCH  ACCESS:          0  HIT:          0  MISS:          0
LLC WRITEBACK ACCESS:      15961  HIT:      15940  MISS:         21
Heartbeat CPU 0 instructions: 70000003 cycles: 33192007 heartbeat IPC: 1.34872 cumulative IPC: 1.40354 (Simulation time: 0 hr 44 min 46 sec) 

Region of Interest Statistics
cpu0_DTLB TOTAL     ACCESS:    5138296  HIT:    5133626  MISS:       4670
cpu0_DTLB LOAD      ACCESS:    4657542  HIT:    4653931  MISS:       3611
cpu0_DTLB RFO       ACCESS:     480754  HIT:     479695  MISS:       1059
cpu0_DTLB PREFETCH  ACCESS:          0  HIT:          0  MISS:          0
cpu0_DTLB WRITEBACK ACCESS:          0  HIT:          0  MISS:          0
cpu0_ITLB TOTAL     ACCESS:     207100  HIT:     207100  MISS:          0
cpu0_ITLB LOAD      ACCESS:     207100  HIT:     207100  MISS:          0
cpu0_ITLB RFO       ACCESS:          0  HIT:          0  MISS:          0
cpu0_ITLB PREFETCH  ACCESS:          0  HIT:          0  MISS:          0
cpu0_ITLB WRITEBACK ACCESS:          0  HIT:          0  MISS:          0
cpu0_L1I TOTAL     ACCESS:      70767  HIT:      70767  MISS:          0
cpu0_L1I LOAD      ACCESS:      70767  HIT:      70767  MISS:          0
cpu0_L1I RFO       ACCESS:          0  HIT:          0  MISS:          0
cpu0_L1I PREFETCH  ACCESS:          0  HIT:          0  MISS:          0
cpu0_L1I WRITEBACK ACCESS:          0  HIT:          0  MISS:          0
cpu0_STLB TOTAL     ACCESS:       4670  HIT:       3554  MISS:       1116
cpu0_STLB LOAD      ACCESS:       3611  HIT:       2787  MISS:        824
cpu0_STLB RFO       ACCESS:       1059  HIT:        767  MISS:        292
cpu0_STLB PREFETCH  ACCESS:          0  HIT:          0  MISS:          0
cpu0_STLB WRITEBACK ACCESS:          0  HIT:          0  MISS:          0
cpu0_L1D TOTAL     ACCESS:    5554862  HIT:    5381684  MISS:     173178
cpu0_L1D LOAD      ACCESS:    4856330  HIT:    4718900  MISS:     137430
cpu0_L1D RFO       ACCESS:     697452  HIT:     662077  MISS:      35375
cpu0_L1D PREFETCH  ACCESS:          0  HIT:          0  MISS:          0
cpu0_L1D WRITEBACK ACCESS:          0  HIT:          0  MISS:          0
cpu0_L2C TOTAL     ACCESS:     220195  HIT:     107834  MISS:     112361
cpu0_L2C LOAD      ACCESS:     137428  HIT:      43196  MISS:      94232
cpu0_L2C RFO       ACCESS:      35373  HIT:      17254  MISS:      18119
cpu0_L2C PREFETCH  ACCESS:          0  HIT:          0  MISS:          0
cpu0_L2C WRITEBACK ACCESS:      47021  HIT:      47012  MISS:          9
LLC TOTAL     ACCESS:     130338  HIT:      46109  MISS:      84229
LLC LOAD      ACCESS:      94232  HIT:      28140  MISS:      66092
LLC RFO       ACCESS:      18119  HIT:          4  MISS:      18115
LLC PREFETCH  ACCESS:          0  HIT:          0  MISS:          0
LLC WRITEBACK ACCESS:      17986  HIT:      17965  MISS:         21
Heartbeat CPU 0 instructions: 72000001 cycles: 34667890 heartbeat IPC: 1.35512 cumulative IPC: 1.39899 (Simulation time: 0 hr 46 min 45 sec) 

Region of Interest Statistics
cpu0_DTLB TOTAL     ACCESS:    5653252  HIT:    5648080  MISS:       5172
cpu0_DTLB LOAD      ACCESS:    5124330  HIT:    5120329  MISS:       4001
cpu0_DTLB RFO       ACCESS:     528922  HIT:     527751  MISS:       1171
cpu0_DTLB PREFETCH  ACCESS:          0  HIT:          0  MISS:          0
cpu0_DTLB WRITEBACK ACCESS:          0  HIT:          0  MISS:          0
cpu0_ITLB TOTAL     ACCESS:     227715  HIT:     227715  MISS:          0
cpu0_ITLB LOAD      ACCESS:     227715  HIT:     227715  MISS:          0
cpu0_ITLB RFO       ACCESS:          0  HIT:          0  MISS:          0
cpu0_ITLB PREFETCH  ACCESS:          0  HIT:          0  MISS:          0
cpu0_ITLB WRITEBACK ACCESS:          0  HIT:          0  MISS:          0
cpu0_L1I TOTAL     ACCESS:      77874  HIT:      77874  MISS:          0
cpu0_L1I LOAD      ACCESS:      77874  HIT:      77874  MISS:          0
cpu0_L1I RFO       ACCESS:          0  HIT:          0  MISS:          0
cpu0_L1I PREFETCH  ACCESS:          0  HIT:          0  MISS:          0
cpu0_L1I WRITEBACK ACCESS:          0  HIT:          0  MISS:          0
cpu0_STLB TOTAL     ACCESS:       5172  HIT:       3948  MISS:       1224
cpu0_STLB LOAD      ACCESS:       4001  HIT:       3097  MISS:        904
cpu0_STLB RFO       ACCESS:       1171  HIT:        851  MISS:        320
cpu0_STLB PREFETCH  ACCESS:          0  HIT:          0  MISS:          0
cpu0_STLB WRITEBACK ACCESS:          0  HIT:          0  MISS:          0
cpu0_L1D TOTAL     ACCESS:    6110008  HIT:    5919453  MISS:     190555
cpu0_L1D LOAD      ACCESS:    5341830  HIT:    5190666  MISS:     151164
cpu0_L1D RFO       ACCESS:     766993  HIT:     728011  MISS:      38982
cpu0_L1D PREFETCH  ACCESS:          0  HIT:          0  MISS:          0
cpu0_L1D WRITEBACK ACCESS:          0  HIT:          0  MISS:          0
cpu0_L2C TOTAL     ACCESS:     242329  HIT:     118771  MISS:     123558
cpu0_L2C LOAD      ACCESS:     151162  HIT:      47539  MISS:     103623
cpu0_L2C RFO       ACCESS:      38980  HIT:      19055  MISS:      19925
cpu0_L2C PREFETCH  ACCESS:          0  HIT:          0  MISS:          0
cpu0_L2C WRITEBACK ACCESS:      51778  HIT:      51769  MISS:          9
LLC TOTAL     ACCESS:     143288  HIT:      50355  MISS:      92933
LLC LOAD      ACCESS:     103623  HIT:      30633  MISS:      72990
LLC RFO       ACCESS:      19925  HIT:          4  MISS:      19921
LLC PREFETCH  ACCESS:          0  HIT:          0  MISS:          0
LLC WRITEBACK ACCESS:      19739  HIT:      19718  MISS:         21
Heartbeat CPU 0 instructions: 74000002 cycles: 36098740 heartbeat IPC: 1.39777 cumulative IPC: 1.39889 (Simulation time: 0 hr 48 min 37 sec) 

Region of Interest Statistics
cpu0_DTLB TOTAL     ACCESS:    6166401  HIT:    6160827  MISS:       5574
cpu0_DTLB LOAD      ACCESS:    5589387  HIT:    5585081  MISS:       4306
cpu0_DTLB RFO       ACCESS:     577014  HIT:     575746  MISS:       1268
cpu0_DTLB PREFETCH  ACCESS:          0  HIT:          0  MISS:          0
cpu0_DTLB WRITEBACK ACCESS:          0  HIT:          0  MISS:          0
cpu0_ITLB TOTAL     ACCESS:     248205  HIT:     248205  MISS:          0
cpu0_ITLB LOAD      ACCESS:     248205  HIT:     248205  MISS:          0
cpu0_ITLB RFO       ACCESS:          0  HIT:          0  MISS:          0
cpu0_ITLB PREFETCH  ACCESS:          0  HIT:          0  MISS:          0
cpu0_ITLB WRITEBACK ACCESS:          0  HIT:          0  MISS:          0
cpu0_L1I TOTAL     ACCESS:      84981  HIT:      84981  MISS:          0
cpu0_L1I LOAD      ACCESS:      84981  HIT:      84981  MISS:          0
cpu0_L1I RFO       ACCESS:          0  HIT:          0  MISS:          0
cpu0_L1I PREFETCH  ACCESS:          0  HIT:          0  MISS:          0
cpu0_L1I WRITEBACK ACCESS:          0  HIT:          0  MISS:          0
cpu0_STLB TOTAL     ACCESS:       5574  HIT:       4238  MISS:       1336
cpu0_STLB LOAD      ACCESS:       4306  HIT:       3319  MISS:        987
cpu0_STLB RFO       ACCESS:       1268  HIT:        919  MISS:        349
cpu0_STLB PREFETCH  ACCESS:          0  HIT:          0  MISS:          0
cpu0_STLB WRITEBACK ACCESS:          0  HIT:          0  MISS:          0
cpu0_L1D TOTAL     ACCESS:    6665335  HIT:    6457505  MISS:     207830
cpu0_L1D LOAD      ACCESS:    5827026  HIT:    5662082  MISS:     164944
cpu0_L1D RFO       ACCESS:     837015  HIT:     794576  MISS:      42439
cpu0_L1D PREFETCH  ACCESS:          0  HIT:          0  MISS:          0
cpu0_L1D WRITEBACK ACCESS:          0  HIT:          0  MISS:          0
cpu0_L2C TOTAL     ACCESS:     264295  HIT:     129531  MISS:     134764
cpu0_L2C LOAD      ACCESS:     164942  HIT:      51893  MISS:     113049
cpu0_L2C RFO       ACCESS:      42437  HIT:      20732  MISS:      21705
cpu0_L2C PREFETCH  ACCESS:          0  HIT:          0  MISS:          0
cpu0_L2C WRITEBACK ACCESS:      56469  HIT:      56460  MISS:          9
LLC TOTAL     ACCESS:     156237  HIT:      54919  MISS:     101318
LLC LOAD      ACCESS:     113049  HIT:      33454  MISS:      79595
LLC RFO       ACCESS:      21705  HIT:          4  MISS:      21701
LLC PREFETCH  ACCESS:          0  HIT:          0  MISS:          0
LLC WRITEBACK ACCESS:      21482  HIT:      21461  MISS:         21
Heartbeat CPU 0 instructions: 76000001 cycles: 37579560 heartbeat IPC: 1.3506 cumulative IPC: 1.39505 (Simulation time: 0 hr 50 min 32 sec) 

Region of Interest Statistics
cpu0_DTLB TOTAL     ACCESS:    6680934  HIT:    6674840  MISS:       6094
cpu0_DTLB LOAD      ACCESS:    6055941  HIT:    6051227  MISS:       4714
cpu0_DTLB RFO       ACCESS:     624993  HIT:     623613  MISS:       1380
cpu0_DTLB PREFETCH  ACCESS:          0  HIT:          0  MISS:          0
cpu0_DTLB WRITEBACK ACCESS:          0  HIT:          0  MISS:          0
cpu0_ITLB TOTAL     ACCESS:     268793  HIT:     268793  MISS:          0
cpu0_ITLB LOAD      ACCESS:     268793  HIT:     268793  MISS:          0
cpu0_ITLB RFO       ACCESS:          0  HIT:          0  MISS:          0
cpu0_ITLB PREFETCH  ACCESS:          0  HIT:          0  MISS:          0
cpu0_ITLB WRITEBACK ACCESS:          0  HIT:          0  MISS:          0
cpu0_L1I TOTAL     ACCESS:      92088  HIT:      92088  MISS:          0
cpu0_L1I LOAD      ACCESS:      92088  HIT:      92088  MISS:          0
cpu0_L1I RFO       ACCESS:          0  HIT:          0  MISS:          0
cpu0_L1I PREFETCH  ACCESS:          0  HIT:          0  MISS:          0
cpu0_L1I WRITEBACK ACCESS:          0  HIT:          0  MISS:          0
cpu0_STLB TOTAL     ACCESS:       6094  HIT:       4659  MISS:       1435
cpu0_STLB LOAD      ACCESS:       4714  HIT:       3654  MISS:       1060
cpu0_STLB RFO       ACCESS:       1380  HIT:       1005  MISS:        375
cpu0_STLB PREFETCH  ACCESS:          0  HIT:          0  MISS:          0
cpu0_STLB WRITEBACK ACCESS:          0  HIT:          0  MISS:          0
cpu0_L1D TOTAL     ACCESS:    7220964  HIT:    6995852  MISS:     225112
cpu0_L1D LOAD      ACCESS:    6312589  HIT:    6133904  MISS:     178685
cpu0_L1D RFO       ACCESS:     906986  HIT:     861039  MISS:      45947
cpu0_L1D PREFETCH  ACCESS:          0  HIT:          0  MISS:          0
cpu0_L1D WRITEBACK ACCESS:          0  HIT:          0  MISS:          0
cpu0_L2C TOTAL     ACCESS:     286281  HIT:     140330  MISS:     145951
cpu0_L2C LOAD      ACCESS:     178683  HIT:      56222  MISS:     122461
cpu0_L2C RFO       ACCESS:      45945  HIT:      22465  MISS:      23480
cpu0_L2C PREFETCH  ACCESS:          0  HIT:          0  MISS:          0
cpu0_L2C WRITEBACK ACCESS:      61173  HIT:      61164  MISS:          9
LLC TOTAL     ACCESS:     169269  HIT:      59184  MISS:     110085
LLC LOAD      ACCESS:     122461  HIT:      35874  MISS:      86587
LLC RFO       ACCESS:      23480  HIT:          4  MISS:      23476
LLC PREFETCH  ACCESS:          0  HIT:          0  MISS:          0
LLC WRITEBACK ACCESS:      23327  HIT:      23306  MISS:         21
Heartbeat CPU 0 instructions: 78000001 cycles: 39016739 heartbeat IPC: 1.39162 cumulative IPC: 1.39481 (Simulation time: 0 hr 52 min 29 sec) 

Region of Interest Statistics
cpu0_DTLB TOTAL     ACCESS:    7194552  HIT:    7187977  MISS:       6575
cpu0_DTLB LOAD      ACCESS:    6521747  HIT:    6516661  MISS:       5086
cpu0_DTLB RFO       ACCESS:     672805  HIT:     671316  MISS:       1489
cpu0_DTLB PREFETCH  ACCESS:          0  HIT:          0  MISS:          0
cpu0_DTLB WRITEBACK ACCESS:          0  HIT:          0  MISS:          0
cpu0_ITLB TOTAL     ACCESS:     289325  HIT:     289325  MISS:          0
cpu0_ITLB LOAD      ACCESS:     289325  HIT:     289325  MISS:          0
cpu0_ITLB RFO       ACCESS:          0  HIT:          0  MISS:          0
cpu0_ITLB PREFETCH  ACCESS:          0  HIT:          0  MISS:          0
cpu0_ITLB WRITEBACK ACCESS:          0  HIT:          0  MISS:          0
cpu0_L1I TOTAL     ACCESS:      99195  HIT:      99195  MISS:          0
cpu0_L1I LOAD      ACCESS:      99195  HIT:      99195  MISS:          0
cpu0_L1I RFO       ACCESS:          0  HIT:          0  MISS:          0
cpu0_L1I PREFETCH  ACCESS:          0  HIT:          0  MISS:          0
cpu0_L1I WRITEBACK ACCESS:          0  HIT:          0  MISS:          0
cpu0_STLB TOTAL     ACCESS:       6575  HIT:       5029  MISS:       1546
cpu0_STLB LOAD      ACCESS:       5086  HIT:       3944  MISS:       1142
cpu0_STLB RFO       ACCESS:       1489  HIT:       1085  MISS:        404
cpu0_STLB PREFETCH  ACCESS:          0  HIT:          0  MISS:          0
cpu0_STLB WRITEBACK ACCESS:          0  HIT:          0  MISS:          0
cpu0_L1D TOTAL     ACCESS:    7774744  HIT:    7532276  MISS:     242468
cpu0_L1D LOAD      ACCESS:    6796603  HIT:    6604186  MISS:     192417
cpu0_L1D RFO       ACCESS:     976644  HIT:     927111  MISS:      49533
cpu0_L1D PREFETCH  ACCESS:          0  HIT:          0  MISS:          0
cpu0_L1D WRITEBACK ACCESS:          0  HIT:          0  MISS:          0
cpu0_L2C TOTAL     ACCESS:     308405  HIT:     151233  MISS:     157172
cpu0_L2C LOAD      ACCESS:     192413  HIT:      60535  MISS:     131878
cpu0_L2C RFO       ACCESS:      49531  HIT:      24247  MISS:      25284
cpu0_L2C PREFETCH  ACCESS:          0  HIT:          0  MISS:          0
cpu0_L2C WRITEBACK ACCESS:      65943  HIT:      65934  MISS:          9
LLC TOTAL     ACCESS:     182353  HIT:      63687  MISS:     118666
LLC LOAD      ACCESS:     131878  HIT:      38514  MISS:      93364
LLC RFO       ACCESS:      25284  HIT:          4  MISS:      25280
LLC PREFETCH  ACCESS:          0  HIT:          0  MISS:          0
LLC WRITEBACK ACCESS:      25190  HIT:      25169  MISS:         21
Heartbeat CPU 0 instructions: 80000001 cycles: 40475970 heartbeat IPC: 1.37058 cumulative IPC: 1.39317 (Simulation time: 0 hr 54 min 28 sec) 

Region of Interest Statistics
cpu0_DTLB TOTAL     ACCESS:    7707702  HIT:    7700663  MISS:       7039
cpu0_DTLB LOAD      ACCESS:    6986947  HIT:    6981500  MISS:       5447
cpu0_DTLB RFO       ACCESS:     720755  HIT:     719163  MISS:       1592
cpu0_DTLB PREFETCH  ACCESS:          0  HIT:          0  MISS:          0
cpu0_DTLB WRITEBACK ACCESS:          0  HIT:          0  MISS:          0
cpu0_ITLB TOTAL     ACCESS:     310151  HIT:     310151  MISS:          0
cpu0_ITLB LOAD      ACCESS:     310151  HIT:     310151  MISS:          0
cpu0_ITLB RFO       ACCESS:          0  HIT:          0  MISS:          0
cpu0_ITLB PREFETCH  ACCESS:          0  HIT:          0  MISS:          0
cpu0_ITLB WRITEBACK ACCESS:          0  HIT:          0  MISS:          0
cpu0_L1I TOTAL     ACCESS:     106302  HIT:     106302  MISS:          0
cpu0_L1I LOAD      ACCESS:     106302  HIT:     106302  MISS:          0
cpu0_L1I RFO       ACCESS:          0  HIT:          0  MISS:          0
cpu0_L1I PREFETCH  ACCESS:          0  HIT:          0  MISS:          0
cpu0_L1I WRITEBACK ACCESS:          0  HIT:          0  MISS:          0
cpu0_STLB TOTAL     ACCESS:       7039  HIT:       5365  MISS:       1674
cpu0_STLB LOAD      ACCESS:       5447  HIT:       4209  MISS:       1238
cpu0_STLB RFO       ACCESS:       1592  HIT:       1156  MISS:        436
cpu0_STLB PREFETCH  ACCESS:          0  HIT:          0  MISS:          0
cpu0_STLB WRITEBACK ACCESS:          0  HIT:          0  MISS:          0
cpu0_L1D TOTAL     ACCESS:    8328830  HIT:    8068957  MISS:     259873
cpu0_L1D LOAD      ACCESS:    7280608  HIT:    7074316  MISS:     206292
cpu0_L1D RFO       ACCESS:    1046601  HIT:     993576  MISS:      53025
cpu0_L1D PREFETCH  ACCESS:          0  HIT:          0  MISS:          0
cpu0_L1D WRITEBACK ACCESS:          0  HIT:          0  MISS:          0
cpu0_L2C TOTAL     ACCESS:     330505  HIT:     161831  MISS:     168674
cpu0_L2C LOAD      ACCESS:     206288  HIT:      64760  MISS:     141528
cpu0_L2C RFO       ACCESS:      53023  HIT:      25908  MISS:      27115
cpu0_L2C PREFETCH  ACCESS:          0  HIT:          0  MISS:          0
cpu0_L2C WRITEBACK ACCESS:      70638  HIT:      70608  MISS:         30
LLC TOTAL     ACCESS:     195577  HIT:      67789  MISS:     127788
LLC LOAD      ACCESS:     141528  HIT:      40926  MISS:     100602
LLC RFO       ACCESS:      27115  HIT:         20  MISS:      27095
LLC PREFETCH  ACCESS:          0  HIT:          0  MISS:          0
LLC WRITEBACK ACCESS:      26933  HIT:      26843  MISS:         90
Heartbeat CPU 0 instructions: 82000001 cycles: 41969531 heartbeat IPC: 1.33908 cumulative IPC: 1.38966 (Simulation time: 0 hr 56 min 28 sec) 

Region of Interest Statistics
cpu0_DTLB TOTAL     ACCESS:    8220845  HIT:    8213282  MISS:       7563
cpu0_DTLB LOAD      ACCESS:    7452228  HIT:    7446367  MISS:       5861
cpu0_DTLB RFO       ACCESS:     768617  HIT:     766915  MISS:       1702
cpu0_DTLB PREFETCH  ACCESS:          0  HIT:          0  MISS:          0
cpu0_DTLB WRITEBACK ACCESS:          0  HIT:          0  MISS:          0
cpu0_ITLB TOTAL     ACCESS:     330866  HIT:     330866  MISS:          0
cpu0_ITLB LOAD      ACCESS:     330866  HIT:     330866  MISS:          0
cpu0_ITLB RFO       ACCESS:          0  HIT:          0  MISS:          0
cpu0_ITLB PREFETCH  ACCESS:          0  HIT:          0  MISS:          0
cpu0_ITLB WRITEBACK ACCESS:          0  HIT:          0  MISS:          0
cpu0_L1I TOTAL     ACCESS:     113409  HIT:     113409  MISS:          0
cpu0_L1I LOAD      ACCESS:     113409  HIT:     113409  MISS:          0
cpu0_L1I RFO       ACCESS:          0  HIT:          0  MISS:          0
cpu0_L1I PREFETCH  ACCESS:          0  HIT:          0  MISS:          0
cpu0_L1I WRITEBACK ACCESS:          0  HIT:          0  MISS:          0
cpu0_STLB TOTAL     ACCESS:       7563  HIT:       5778  MISS:       1785
cpu0_STLB LOAD      ACCESS:       5861  HIT:       4541  MISS:       1320
cpu0_STLB RFO       ACCESS:       1702  HIT:       1237  MISS:        465
cpu0_STLB PREFETCH  ACCESS:          0  HIT:          0  MISS:          0
cpu0_STLB WRITEBACK ACCESS:          0  HIT:          0  MISS:          0
cpu0_L1D TOTAL     ACCESS:    8881781  HIT:    8604598  MISS:     277183
cpu0_L1D LOAD      ACCESS:    7763909  HIT:    7543920  MISS:     219989
cpu0_L1D RFO       ACCESS:    1116145  HIT:    1059544  MISS:      56601
cpu0_L1D PREFETCH  ACCESS:          0  HIT:          0  MISS:          0
cpu0_L1D WRITEBACK ACCESS:          0  HIT:          0  MISS:          0
cpu0_L2C TOTAL     ACCESS:     352548  HIT:     172589  MISS:     179959
cpu0_L2C LOAD      ACCESS:     219985  HIT:      69001  MISS:     150984
cpu0_L2C RFO       ACCESS:      56599  HIT:      27673  MISS:      28926
cpu0_L2C PREFETCH  ACCESS:          0  HIT:          0  MISS:          0
cpu0_L2C WRITEBACK ACCESS:      75371  HIT:      75323  MISS:         48
LLC TOTAL     ACCESS:     208826  HIT:      71753  MISS:     137073
LLC LOAD      ACCESS:     150984  HIT:      42933  MISS:     108051
LLC RFO       ACCESS:      28926  HIT:         21  MISS:      28905
LLC PREFETCH  ACCESS:          0  HIT:          0  MISS:          0
LLC WRITEBACK ACCESS:      28915  HIT:      28799  MISS:        116
Heartbeat CPU 0 instructions: 84000002 cycles: 43379440 heartbeat IPC: 1.41853 cumulative IPC: 1.39132 (Simulation time: 0 hr 58 min 20 sec) 

Region of Interest Statistics
cpu0_DTLB TOTAL     ACCESS:    8733586  HIT:    8725600  MISS:       7986
cpu0_DTLB LOAD      ACCESS:    7916726  HIT:    7910545  MISS:       6181
cpu0_DTLB RFO       ACCESS:     816860  HIT:     815055  MISS:       1805
cpu0_DTLB PREFETCH  ACCESS:          0  HIT:          0  MISS:          0
cpu0_DTLB WRITEBACK ACCESS:          0  HIT:          0  MISS:          0
cpu0_ITLB TOTAL     ACCESS:     351615  HIT:     351615  MISS:          0
cpu0_ITLB LOAD      ACCESS:     351615  HIT:     351615  MISS:          0
cpu0_ITLB RFO       ACCESS:          0  HIT:          0  MISS:          0
cpu0_ITLB PREFETCH  ACCESS:          0  HIT:          0  MISS:          0
cpu0_ITLB WRITEBACK ACCESS:          0  HIT:          0  MISS:          0
cpu0_L1I TOTAL     ACCESS:     120207  HIT:     120207  MISS:          0
cpu0_L1I LOAD      ACCESS:     120207  HIT:     120207  MISS:          0
cpu0_L1I RFO       ACCESS:          0  HIT:          0  MISS:          0
cpu0_L1I PREFETCH  ACCESS:          0  HIT:          0  MISS:          0
cpu0_L1I WRITEBACK ACCESS:          0  HIT:          0  MISS:          0
cpu0_STLB TOTAL     ACCESS:       7986  HIT:       6099  MISS:       1887
cpu0_STLB LOAD      ACCESS:       6181  HIT:       4787  MISS:       1394
cpu0_STLB RFO       ACCESS:       1805  HIT:       1312  MISS:        493
cpu0_STLB PREFETCH  ACCESS:          0  HIT:          0  MISS:          0
cpu0_STLB WRITEBACK ACCESS:          0  HIT:          0  MISS:          0
cpu0_L1D TOTAL     ACCESS:    9435243  HIT:    9140774  MISS:     294469
cpu0_L1D LOAD      ACCESS:    8247605  HIT:    8013910  MISS:     233695
cpu0_L1D RFO       ACCESS:    1185812  HIT:    1125671  MISS:      60141
cpu0_L1D PREFETCH  ACCESS:          0  HIT:          0  MISS:          0
cpu0_L1D WRITEBACK ACCESS:          0  HIT:          0  MISS:          0
cpu0_L2C TOTAL     ACCESS:     374560  HIT:     183398  MISS:     191162
cpu0_L2C LOAD      ACCESS:     233691  HIT:      73319  MISS:     160372
cpu0_L2C RFO       ACCESS:      60139  HIT:      29398  MISS:      30741
cpu0_L2C PREFETCH  ACCESS:          0  HIT:          0  MISS:          0
cpu0_L2C WRITEBACK ACCESS:      80097  HIT:      80049  MISS:         48
LLC TOTAL     ACCESS:     221619  HIT:      76095  MISS:     145524
LLC LOAD      ACCESS:     160372  HIT:      45686  MISS:     114686
LLC RFO       ACCESS:      30741  HIT:         21  MISS:      30720
LLC PREFETCH  ACCESS:          0  HIT:          0  MISS:          0
LLC WRITEBACK ACCESS:      30505  HIT:      30388  MISS:        117
Heartbeat CPU 0 instructions: 86000000 cycles: 44803484 heartbeat IPC: 1.40445 cumulative IPC: 1.39205 (Simulation time: 1 hr 0 min 8 sec) 

Region of Interest Statistics
cpu0_DTLB TOTAL     ACCESS:    9246785  HIT:    9238323  MISS:       8462
cpu0_DTLB LOAD      ACCESS:    8381767  HIT:    8375215  MISS:       6552
cpu0_DTLB RFO       ACCESS:     865018  HIT:     863108  MISS:       1910
cpu0_DTLB PREFETCH  ACCESS:          0  HIT:          0  MISS:          0
cpu0_DTLB WRITEBACK ACCESS:          0  HIT:          0  MISS:          0
cpu0_ITLB TOTAL     ACCESS:     372631  HIT:     372631  MISS:          0
cpu0_ITLB LOAD      ACCESS:     372631  HIT:     372631  MISS:          0
cpu0_ITLB RFO       ACCESS:          0  HIT:          0  MISS:          0
cpu0_ITLB PREFETCH  ACCESS:          0  HIT:          0  MISS:          0
cpu0_ITLB WRITEBACK ACCESS:          0  HIT:          0  MISS:          0
cpu0_L1I TOTAL     ACCESS:     127314  HIT:     127314  MISS:          0
cpu0_L1I LOAD      ACCESS:     127314  HIT:     127314  MISS:          0
cpu0_L1I RFO       ACCESS:          0  HIT:          0  MISS:          0
cpu0_L1I PREFETCH  ACCESS:          0  HIT:          0  MISS:          0
cpu0_L1I WRITEBACK ACCESS:          0  HIT:          0  MISS:          0
cpu0_STLB TOTAL     ACCESS:       8462  HIT:       6465  MISS:       1997
cpu0_STLB LOAD      ACCESS:       6552  HIT:       5076  MISS:       1476
cpu0_STLB RFO       ACCESS:       1910  HIT:       1389  MISS:        521
cpu0_STLB PREFETCH  ACCESS:          0  HIT:          0  MISS:          0
cpu0_STLB WRITEBACK ACCESS:          0  HIT:          0  MISS:          0
cpu0_L1D TOTAL     ACCESS:    9989980  HIT:    9678319  MISS:     311661
cpu0_L1D LOAD      ACCESS:    8732423  HIT:    8485061  MISS:     247362
cpu0_L1D RFO       ACCESS:    1255622  HIT:    1191990  MISS:      63632
cpu0_L1D PREFETCH  ACCESS:          0  HIT:          0  MISS:          0
cpu0_L1D WRITEBACK ACCESS:          0  HIT:          0  MISS:          0
cpu0_L2C TOTAL     ACCESS:     396380  HIT:     194084  MISS:     202296
cpu0_L2C LOAD      ACCESS:     247358  HIT:      77662  MISS:     169696
cpu0_L2C RFO       ACCESS:      63630  HIT:      31079  MISS:      32551
cpu0_L2C PREFETCH  ACCESS:          0  HIT:          0  MISS:          0
cpu0_L2C WRITEBACK ACCESS:      84725  HIT:      84677  MISS:         48
LLC TOTAL     ACCESS:     234893  HIT:      81136  MISS:     153757
LLC LOAD      ACCESS:     169696  HIT:      48587  MISS:     121109
LLC RFO       ACCESS:      32551  HIT:         21  MISS:      32530
LLC PREFETCH  ACCESS:          0  HIT:          0  MISS:          0
LLC WRITEBACK ACCESS:      32645  HIT:      32528  MISS:        117
Heartbeat CPU 0 instructions: 88000003 cycles: 46228042 heartbeat IPC: 1.40395 cumulative IPC: 1.39267 (Simulation time: 1 hr 1 min 55 sec) 

Region of Interest Statistics
cpu0_DTLB TOTAL     ACCESS:    9759555  HIT:    9750597  MISS:       8958
cpu0_DTLB LOAD      ACCESS:    8846498  HIT:    8839563  MISS:       6935
cpu0_DTLB RFO       ACCESS:     913057  HIT:     911034  MISS:       2023
cpu0_DTLB PREFETCH  ACCESS:          0  HIT:          0  MISS:          0
cpu0_DTLB WRITEBACK ACCESS:          0  HIT:          0  MISS:          0
cpu0_ITLB TOTAL     ACCESS:     393503  HIT:     393503  MISS:          0
cpu0_ITLB LOAD      ACCESS:     393503  HIT:     393503  MISS:          0
cpu0_ITLB RFO       ACCESS:          0  HIT:          0  MISS:          0
cpu0_ITLB PREFETCH  ACCESS:          0  HIT:          0  MISS:          0
cpu0_ITLB WRITEBACK ACCESS:          0  HIT:          0  MISS:          0
cpu0_L1I TOTAL     ACCESS:     134421  HIT:     134421  MISS:          0
cpu0_L1I LOAD      ACCESS:     134421  HIT:     134421  MISS:          0
cpu0_L1I RFO       ACCESS:          0  HIT:          0  MISS:          0
cpu0_L1I PREFETCH  ACCESS:          0  HIT:          0  MISS:          0
cpu0_L1I WRITEBACK ACCESS:          0  HIT:          0  MISS:          0
cpu0_STLB TOTAL     ACCESS:       8958  HIT:       6853  MISS:       2105
cpu0_STLB LOAD      ACCESS:       6935  HIT:       5380  MISS:       1555
cpu0_STLB RFO       ACCESS:       2023  HIT:       1473  MISS:        550
cpu0_STLB PREFETCH  ACCESS:          0  HIT:          0  MISS:          0
cpu0_STLB WRITEBACK ACCESS:          0  HIT:          0  MISS:          0
cpu0_L1D TOTAL     ACCESS:   10544709  HIT:   10215732  MISS:     328977
cpu0_L1D LOAD      ACCESS:    9217425  HIT:    8956387  MISS:     261038
cpu0_L1D RFO       ACCESS:    1325244  HIT:    1258015  MISS:      67229
cpu0_L1D PREFETCH  ACCESS:          0  HIT:          0  MISS:          0
cpu0_L1D WRITEBACK ACCESS:          0  HIT:          0  MISS:          0
cpu0_L2C TOTAL     ACCESS:     418414  HIT:     204961  MISS:     213453
cpu0_L2C LOAD      ACCESS:     261034  HIT:      81991  MISS:     179043
cpu0_L2C RFO       ACCESS:      67226  HIT:      32865  MISS:      34361
cpu0_L2C PREFETCH  ACCESS:          0  HIT:          0  MISS:          0
cpu0_L2C WRITEBACK ACCESS:      89444  HIT:      89396  MISS:         48
LLC TOTAL     ACCESS:     247722  HIT:      85322  MISS:     162400
LLC LOAD      ACCESS:     179043  HIT:      51101  MISS:     127942
LLC RFO       ACCESS:      34361  HIT:         21  MISS:      34340
LLC PREFETCH  ACCESS:          0  HIT:          0  MISS:          0
LLC WRITEBACK ACCESS:      34317  HIT:      34200  MISS:        117
Heartbeat CPU 0 instructions: 90000003 cycles: 47671001 heartbeat IPC: 1.38604 cumulative IPC: 1.39233 (Simulation time: 1 hr 3 min 46 sec) 

Region of Interest Statistics
cpu0_DTLB TOTAL     ACCESS:   10271819  HIT:   10262391  MISS:       9428
cpu0_DTLB LOAD      ACCESS:    9310648  HIT:    9303347  MISS:       7301
cpu0_DTLB RFO       ACCESS:     961171  HIT:     959044  MISS:       2127
cpu0_DTLB PREFETCH  ACCESS:          0  HIT:          0  MISS:          0
cpu0_DTLB WRITEBACK ACCESS:          0  HIT:          0  MISS:          0
cpu0_ITLB TOTAL     ACCESS:     414340  HIT:     414340  MISS:          0
cpu0_ITLB LOAD      ACCESS:     414340  HIT:     414340  MISS:          0
cpu0_ITLB RFO       ACCESS:          0  HIT:          0  MISS:          0
cpu0_ITLB PREFETCH  ACCESS:          0  HIT:          0  MISS:          0
cpu0_ITLB WRITEBACK ACCESS:          0  HIT:          0  MISS:          0
cpu0_L1I TOTAL     ACCESS:     141528  HIT:     141528  MISS:          0
cpu0_L1I LOAD      ACCESS:     141528  HIT:     141528  MISS:          0
cpu0_L1I RFO       ACCESS:          0  HIT:          0  MISS:          0
cpu0_L1I PREFETCH  ACCESS:          0  HIT:          0  MISS:          0
cpu0_L1I WRITEBACK ACCESS:          0  HIT:          0  MISS:          0
cpu0_STLB TOTAL     ACCESS:       9428  HIT:       7195  MISS:       2233
cpu0_STLB LOAD      ACCESS:       7301  HIT:       5650  MISS:       1651
cpu0_STLB RFO       ACCESS:       2127  HIT:       1545  MISS:        582
cpu0_STLB PREFETCH  ACCESS:          0  HIT:          0  MISS:          0
cpu0_STLB WRITEBACK ACCESS:          0  HIT:          0  MISS:          0
cpu0_L1D TOTAL     ACCESS:   11097741  HIT:   10751362  MISS:     346379
cpu0_L1D LOAD      ACCESS:    9700524  HIT:    9425660  MISS:     274864
cpu0_L1D RFO       ACCESS:    1395052  HIT:    1324292  MISS:      70760
cpu0_L1D PREFETCH  ACCESS:          0  HIT:          0  MISS:          0
cpu0_L1D WRITEBACK ACCESS:          0  HIT:          0  MISS:          0
cpu0_L2C TOTAL     ACCESS:     440490  HIT:     215650  MISS:     224840
cpu0_L2C LOAD      ACCESS:     274860  HIT:      86246  MISS:     188614
cpu0_L2C RFO       ACCESS:      70757  HIT:      34581  MISS:      36176
cpu0_L2C PREFETCH  ACCESS:          0  HIT:          0  MISS:          0
cpu0_L2C WRITEBACK ACCESS:      94118  HIT:      94069  MISS:         49
LLC TOTAL     ACCESS:     260882  HIT:      89920  MISS:     170962
LLC LOAD      ACCESS:     188614  HIT:      53926  MISS:     134688
LLC RFO       ACCESS:      36176  HIT:         21  MISS:      36155
LLC PREFETCH  ACCESS:          0  HIT:          0  MISS:          0
LLC WRITEBACK ACCESS:      36091  HIT:      35973  MISS:        118
Heartbeat CPU 0 instructions: 92000001 cycles: 49069500 heartbeat IPC: 1.4301 cumulative IPC: 1.39409 (Simulation time: 1 hr 5 min 33 sec) 

Region of Interest Statistics
cpu0_DTLB TOTAL     ACCESS:   10784437  HIT:   10774509  MISS:       9928
cpu0_DTLB LOAD      ACCESS:    9774890  HIT:    9767199  MISS:       7691
cpu0_DTLB RFO       ACCESS:    1009547  HIT:    1007310  MISS:       2237
cpu0_DTLB PREFETCH  ACCESS:          0  HIT:          0  MISS:          0
cpu0_DTLB WRITEBACK ACCESS:          0  HIT:          0  MISS:          0
cpu0_ITLB TOTAL     ACCESS:     435026  HIT:     435026  MISS:          0
cpu0_ITLB LOAD      ACCESS:     435026  HIT:     435026  MISS:          0
cpu0_ITLB RFO       ACCESS:          0  HIT:          0  MISS:          0
cpu0_ITLB PREFETCH  ACCESS:          0  HIT:          0  MISS:          0
cpu0_ITLB WRITEBACK ACCESS:          0  HIT:          0  MISS:          0
cpu0_L1I TOTAL     ACCESS:     148635  HIT:     148635  MISS:          0
cpu0_L1I LOAD      ACCESS:     148635  HIT:     148635  MISS:          0
cpu0_L1I RFO       ACCESS:          0  HIT:          0  MISS:          0
cpu0_L1I PREFETCH  ACCESS:          0  HIT:          0  MISS:          0
cpu0_L1I WRITEBACK ACCESS:          0  HIT:          0  MISS:          0
cpu0_STLB TOTAL     ACCESS:       9928  HIT:       7593  MISS:       2335
cpu0_STLB LOAD      ACCESS:       7691  HIT:       5966  MISS:       1725
cpu0_STLB RFO       ACCESS:       2237  HIT:       1627  MISS:        610
cpu0_STLB PREFETCH  ACCESS:          0  HIT:          0  MISS:          0
cpu0_STLB WRITEBACK ACCESS:          0  HIT:          0  MISS:          0
cpu0_L1D TOTAL     ACCESS:   11651834  HIT:   11288133  MISS:     363701
cpu0_L1D LOAD      ACCESS:   10184763  HIT:    9896190  MISS:     288573
cpu0_L1D RFO       ACCESS:    1464807  HIT:    1390471  MISS:      74336
cpu0_L1D PREFETCH  ACCESS:          0  HIT:          0  MISS:          0
cpu0_L1D WRITEBACK ACCESS:          0  HIT:          0  MISS:          0
cpu0_L2C TOTAL     ACCESS:     462532  HIT:     226351  MISS:     236181
cpu0_L2C LOAD      ACCESS:     288569  HIT:      90479  MISS:     198090
cpu0_L2C RFO       ACCESS:      74333  HIT:      36333  MISS:      38000
cpu0_L2C PREFETCH  ACCESS:          0  HIT:          0  MISS:          0
cpu0_L2C WRITEBACK ACCESS:      98838  HIT:      98748  MISS:         90
LLC TOTAL     ACCESS:     273945  HIT:      94596  MISS:     179349
LLC LOAD      ACCESS:     198090  HIT:      56855  MISS:     141235
LLC RFO       ACCESS:      38000  HIT:         35  MISS:      37965
LLC PREFETCH  ACCESS:          0  HIT:          0  MISS:          0
LLC WRITEBACK ACCESS:      37854  HIT:      37706  MISS:        148
Heartbeat CPU 0 instructions: 94000000 cycles: 50526380 heartbeat IPC: 1.3728 cumulative IPC: 1.39311 (Simulation time: 1 hr 7 min 24 sec) 

Region of Interest Statistics
cpu0_DTLB TOTAL     ACCESS:   11298433  HIT:   11288026  MISS:      10407
cpu0_DTLB LOAD      ACCESS:   10240643  HIT:   10232582  MISS:       8061
cpu0_DTLB RFO       ACCESS:    1057790  HIT:    1055444  MISS:       2346
cpu0_DTLB PREFETCH  ACCESS:          0  HIT:          0  MISS:          0
cpu0_DTLB WRITEBACK ACCESS:          0  HIT:          0  MISS:          0
cpu0_ITLB TOTAL     ACCESS:     455690  HIT:     455690  MISS:          0
cpu0_ITLB LOAD      ACCESS:     455690  HIT:     455690  MISS:          0
cpu0_ITLB RFO       ACCESS:          0  HIT:          0  MISS:          0
cpu0_ITLB PREFETCH  ACCESS:          0  HIT:          0  MISS:          0
cpu0_ITLB WRITEBACK ACCESS:          0  HIT:          0  MISS:          0
cpu0_L1I TOTAL     ACCESS:     155742  HIT:     155742  MISS:          0
cpu0_L1I LOAD      ACCESS:     155742  HIT:     155742  MISS:          0
cpu0_L1I RFO       ACCESS:          0  HIT:          0  MISS:          0
cpu0_L1I PREFETCH  ACCESS:          0  HIT:          0  MISS:          0
cpu0_L1I WRITEBACK ACCESS:          0  HIT:          0  MISS:          0
cpu0_STLB TOTAL     ACCESS:      10407  HIT:       7962  MISS:       2445
cpu0_STLB LOAD      ACCESS:       8061  HIT:       6254  MISS:       1807
cpu0_STLB RFO       ACCESS:       2346  HIT:       1708  MISS:        638
cpu0_STLB PREFETCH  ACCESS:          0  HIT:          0  MISS:          0
cpu0_STLB WRITEBACK ACCESS:          0  HIT:          0  MISS:          0
cpu0_L1D TOTAL     ACCESS:   12207805  HIT:   11826735  MISS:     381070
cpu0_L1D LOAD      ACCESS:   10670928  HIT:   10368597  MISS:     302331
cpu0_L1D RFO       ACCESS:    1534506  HIT:    1456604  MISS:      77902
cpu0_L1D PREFETCH  ACCESS:          0  HIT:          0  MISS:          0
cpu0_L1D WRITEBACK ACCESS:          0  HIT:          0  MISS:          0
cpu0_L2C TOTAL     ACCESS:     484610  HIT:     237199  MISS:     247411
cpu0_L2C LOAD      ACCESS:     302327  HIT:      94820  MISS:     207507
cpu0_L2C RFO       ACCESS:      77899  HIT:      38086  MISS:      39813
cpu0_L2C PREFETCH  ACCESS:          0  HIT:          0  MISS:          0
cpu0_L2C WRITEBACK ACCESS:     103547  HIT:     103457  MISS:         90
LLC TOTAL     ACCESS:     287067  HIT:      99121  MISS:     187946
LLC LOAD      ACCESS:     207507  HIT:      59495  MISS:     148012
LLC RFO       ACCESS:      39813  HIT:         38  MISS:      39775
LLC PREFETCH  ACCESS:          0  HIT:          0  MISS:          0
LLC WRITEBACK ACCESS:      39746  HIT:      39588  MISS:        158
Heartbeat CPU 0 instructions: 96000004 cycles: 51927745 heartbeat IPC: 1.42718 cumulative IPC: 1.39455 (Simulation time: 1 hr 9 min 15 sec) 

Region of Interest Statistics
cpu0_DTLB TOTAL     ACCESS:   11813120  HIT:   11802286  MISS:      10834
cpu0_DTLB LOAD      ACCESS:   10706937  HIT:   10698556  MISS:       8381
cpu0_DTLB RFO       ACCESS:    1106183  HIT:    1103730  MISS:       2453
cpu0_DTLB PREFETCH  ACCESS:          0  HIT:          0  MISS:          0
cpu0_DTLB WRITEBACK ACCESS:          0  HIT:          0  MISS:          0
cpu0_ITLB TOTAL     ACCESS:     476174  HIT:     476174  MISS:          0
cpu0_ITLB LOAD      ACCESS:     476174  HIT:     476174  MISS:          0
cpu0_ITLB RFO       ACCESS:          0  HIT:          0  MISS:          0
cpu0_ITLB PREFETCH  ACCESS:          0  HIT:          0  MISS:          0
cpu0_ITLB WRITEBACK ACCESS:          0  HIT:          0  MISS:          0
cpu0_L1I TOTAL     ACCESS:     162849  HIT:     162849  MISS:          0
cpu0_L1I LOAD      ACCESS:     162849  HIT:     162849  MISS:          0
cpu0_L1I RFO       ACCESS:          0  HIT:          0  MISS:          0
cpu0_L1I PREFETCH  ACCESS:          0  HIT:          0  MISS:          0
cpu0_L1I WRITEBACK ACCESS:          0  HIT:          0  MISS:          0
cpu0_STLB TOTAL     ACCESS:      10834  HIT:       8278  MISS:       2556
cpu0_STLB LOAD      ACCESS:       8381  HIT:       6492  MISS:       1889
cpu0_STLB RFO       ACCESS:       2453  HIT:       1786  MISS:        667
cpu0_STLB PREFETCH  ACCESS:          0  HIT:          0  MISS:          0
cpu0_STLB WRITEBACK ACCESS:          0  HIT:          0  MISS:          0
cpu0_L1D TOTAL     ACCESS:   12764724  HIT:   12366389  MISS:     398335
cpu0_L1D LOAD      ACCESS:   11157931  HIT:   10841851  MISS:     316080
cpu0_L1D RFO       ACCESS:    1604314  HIT:    1522933  MISS:      81381
cpu0_L1D PREFETCH  ACCESS:          0  HIT:          0  MISS:          0
cpu0_L1D WRITEBACK ACCESS:          0  HIT:          0  MISS:          0
cpu0_L2C TOTAL     ACCESS:     506555  HIT:     247930  MISS:     258625
cpu0_L2C LOAD      ACCESS:     316076  HIT:      99170  MISS:     216906
cpu0_L2C RFO       ACCESS:      81378  HIT:      39750  MISS:      41628
cpu0_L2C PREFETCH  ACCESS:          0  HIT:          0  MISS:          0
cpu0_L2C WRITEBACK ACCESS:     108227  HIT:     108137  MISS:         90
LLC TOTAL     ACCESS:     300190  HIT:     103895  MISS:     196295
LLC LOAD      ACCESS:     216906  HIT:      62360  MISS:     154546
LLC RFO       ACCESS:      41628  HIT:         38  MISS:      41590
LLC PREFETCH  ACCESS:          0  HIT:          0  MISS:          0
LLC WRITEBACK ACCESS:      41655  HIT:      41497  MISS:        158
Heartbeat CPU 0 instructions: 98000003 cycles: 53323950 heartbeat IPC: 1.43245 cumulative IPC: 1.39609 (Simulation time: 1 hr 11 min 5 sec) 

Region of Interest Statistics
cpu0_DTLB TOTAL     ACCESS:   12327479  HIT:   12316142  MISS:      11337
cpu0_DTLB LOAD      ACCESS:   11173379  HIT:   11164600  MISS:       8779
cpu0_DTLB RFO       ACCESS:    1154100  HIT:    1151542  MISS:       2558
cpu0_DTLB PREFETCH  ACCESS:          0  HIT:          0  MISS:          0
cpu0_DTLB WRITEBACK ACCESS:          0  HIT:          0  MISS:          0
cpu0_ITLB TOTAL     ACCESS:     496764  HIT:     496764  MISS:          0
cpu0_ITLB LOAD      ACCESS:     496764  HIT:     496764  MISS:          0
cpu0_ITLB RFO       ACCESS:          0  HIT:          0  MISS:          0
cpu0_ITLB PREFETCH  ACCESS:          0  HIT:          0  MISS:          0
cpu0_ITLB WRITEBACK ACCESS:          0  HIT:          0  MISS:          0
cpu0_L1I TOTAL     ACCESS:     169956  HIT:     169956  MISS:          0
cpu0_L1I LOAD      ACCESS:     169956  HIT:     169956  MISS:          0
cpu0_L1I RFO       ACCESS:          0  HIT:          0  MISS:          0
cpu0_L1I PREFETCH  ACCESS:          0  HIT:          0  MISS:          0
cpu0_L1I WRITEBACK ACCESS:          0  HIT:          0  MISS:          0
cpu0_STLB TOTAL     ACCESS:      11337  HIT:       8679  MISS:       2658
cpu0_STLB LOAD      ACCESS:       8779  HIT:       6816  MISS:       1963
cpu0_STLB RFO       ACCESS:       2558  HIT:       1863  MISS:        695
cpu0_STLB PREFETCH  ACCESS:          0  HIT:          0  MISS:          0
cpu0_STLB WRITEBACK ACCESS:          0  HIT:          0  MISS:          0
cpu0_L1D TOTAL     ACCESS:   13320932  HIT:   12905288  MISS:     415644
cpu0_L1D LOAD      ACCESS:   11644487  HIT:   11314725  MISS:     329762
cpu0_L1D RFO       ACCESS:    1673868  HIT:    1588899  MISS:      84969
cpu0_L1D PREFETCH  ACCESS:          0  HIT:          0  MISS:          0
cpu0_L1D WRITEBACK ACCESS:          0  HIT:          0  MISS:          0
cpu0_L2C TOTAL     ACCESS:     528609  HIT:     258791  MISS:     269818
cpu0_L2C LOAD      ACCESS:     329756  HIT:     103467  MISS:     226289
cpu0_L2C RFO       ACCESS:      84966  HIT:      41528  MISS:      43438
cpu0_L2C PREFETCH  ACCESS:          0  HIT:          0  MISS:          0
cpu0_L2C WRITEBACK ACCESS:     112974  HIT:     112884  MISS:         90
LLC TOTAL     ACCESS:     313236  HIT:     108808  MISS:     204428
LLC LOAD      ACCESS:     226289  HIT:      65420  MISS:     160869
LLC RFO       ACCESS:      43438  HIT:         38  MISS:      43400
LLC PREFETCH  ACCESS:          0  HIT:          0  MISS:          0
LLC WRITEBACK ACCESS:      43508  HIT:      43350  MISS:        158
Heartbeat CPU 0 instructions: 100000002 cycles: 54734104 heartbeat IPC: 1.41828 cumulative IPC: 1.39697 (Simulation time: 1 hr 12 min 55 sec) 

Region of Interest Statistics
cpu0_DTLB TOTAL     ACCESS:   12842298  HIT:   12830488  MISS:      11810
cpu0_DTLB LOAD      ACCESS:   11640379  HIT:   11631238  MISS:       9141
cpu0_DTLB RFO       ACCESS:    1201919  HIT:    1199250  MISS:       2669
cpu0_DTLB PREFETCH  ACCESS:          0  HIT:          0  MISS:          0
cpu0_DTLB WRITEBACK ACCESS:          0  HIT:          0  MISS:          0
cpu0_ITLB TOTAL     ACCESS:     517241  HIT:     517241  MISS:          0
cpu0_ITLB LOAD      ACCESS:     517241  HIT:     517241  MISS:          0
cpu0_ITLB RFO       ACCESS:          0  HIT:          0  MISS:          0
cpu0_ITLB PREFETCH  ACCESS:          0  HIT:          0  MISS:          0
cpu0_ITLB WRITEBACK ACCESS:          0  HIT:          0  MISS:          0
cpu0_L1I TOTAL     ACCESS:     177063  HIT:     177063  MISS:          0
cpu0_L1I LOAD      ACCESS:     177063  HIT:     177063  MISS:          0
cpu0_L1I RFO       ACCESS:          0  HIT:          0  MISS:          0
cpu0_L1I PREFETCH  ACCESS:          0  HIT:          0  MISS:          0
cpu0_L1I WRITEBACK ACCESS:          0  HIT:          0  MISS:          0
cpu0_STLB TOTAL     ACCESS:      11810  HIT:       9043  MISS:       2767
cpu0_STLB LOAD      ACCESS:       9141  HIT:       7097  MISS:       2044
cpu0_STLB RFO       ACCESS:       2669  HIT:       1946  MISS:        723
cpu0_STLB PREFETCH  ACCESS:          0  HIT:          0  MISS:          0
cpu0_STLB WRITEBACK ACCESS:          0  HIT:          0  MISS:          0
cpu0_L1D TOTAL     ACCESS:   13876756  HIT:   13443728  MISS:     433028
cpu0_L1D LOAD      ACCESS:   12130532  HIT:   11786990  MISS:     343542
cpu0_L1D RFO       ACCESS:    1743541  HIT:    1655012  MISS:      88529
cpu0_L1D PREFETCH  ACCESS:          0  HIT:          0  MISS:          0
cpu0_L1D WRITEBACK ACCESS:          0  HIT:          0  MISS:          0
cpu0_L2C TOTAL     ACCESS:     550750  HIT:     269719  MISS:     281031
cpu0_L2C LOAD      ACCESS:     343536  HIT:     107849  MISS:     235687
cpu0_L2C RFO       ACCESS:      88526  HIT:      43275  MISS:      45251
cpu0_L2C PREFETCH  ACCESS:          0  HIT:          0  MISS:          0
cpu0_L2C WRITEBACK ACCESS:     117731  HIT:     117639  MISS:         92
LLC TOTAL     ACCESS:     326259  HIT:     113525  MISS:     212734
LLC LOAD      ACCESS:     235687  HIT:      68324  MISS:     167363
LLC RFO       ACCESS:      45251  HIT:         41  MISS:      45210
LLC PREFETCH  ACCESS:          0  HIT:          0  MISS:          0
LLC WRITEBACK ACCESS:      45320  HIT:      45160  MISS:        160
Heartbeat CPU 0 instructions: 102000000 cycles: 56165046 heartbeat IPC: 1.39768 cumulative IPC: 1.39699 (Simulation time: 1 hr 14 min 45 sec) 

Region of Interest Statistics
cpu0_DTLB TOTAL     ACCESS:   13356798  HIT:   13344494  MISS:      12304
cpu0_DTLB LOAD      ACCESS:   12106814  HIT:   12097285  MISS:       9529
cpu0_DTLB RFO       ACCESS:    1249984  HIT:    1247209  MISS:       2775
cpu0_DTLB PREFETCH  ACCESS:          0  HIT:          0  MISS:          0
cpu0_DTLB WRITEBACK ACCESS:          0  HIT:          0  MISS:          0
cpu0_ITLB TOTAL     ACCESS:     538019  HIT:     538019  MISS:          0
cpu0_ITLB LOAD      ACCESS:     538019  HIT:     538019  MISS:          0
cpu0_ITLB RFO       ACCESS:          0  HIT:          0  MISS:          0
cpu0_ITLB PREFETCH  ACCESS:          0  HIT:          0  MISS:          0
cpu0_ITLB WRITEBACK ACCESS:          0  HIT:          0  MISS:          0
cpu0_L1I TOTAL     ACCESS:     184170  HIT:     184170  MISS:          0
cpu0_L1I LOAD      ACCESS:     184170  HIT:     184170  MISS:          0
cpu0_L1I RFO       ACCESS:          0  HIT:          0  MISS:          0
cpu0_L1I PREFETCH  ACCESS:          0  HIT:          0  MISS:          0
cpu0_L1I WRITEBACK ACCESS:          0  HIT:          0  MISS:          0
cpu0_STLB TOTAL     ACCESS:      12304  HIT:       9413  MISS:       2891
cpu0_STLB LOAD      ACCESS:       9529  HIT:       7392  MISS:       2137
cpu0_STLB RFO       ACCESS:       2775  HIT:       2021  MISS:        754
cpu0_STLB PREFETCH  ACCESS:          0  HIT:          0  MISS:          0
cpu0_STLB WRITEBACK ACCESS:          0  HIT:          0  MISS:          0
cpu0_L1D TOTAL     ACCESS:   14431469  HIT:   13981041  MISS:     450428
cpu0_L1D LOAD      ACCESS:   12615217  HIT:   12257827  MISS:     357390
cpu0_L1D RFO       ACCESS:    1813447  HIT:    1721403  MISS:      92044
cpu0_L1D PREFETCH  ACCESS:          0  HIT:          0  MISS:          0
cpu0_L1D WRITEBACK ACCESS:          0  HIT:          0  MISS:          0
cpu0_L2C TOTAL     ACCESS:     572850  HIT:     280389  MISS:     292461
cpu0_L2C LOAD      ACCESS:     357384  HIT:     112082  MISS:     245302
cpu0_L2C RFO       ACCESS:      92041  HIT:      44979  MISS:      47062
cpu0_L2C PREFETCH  ACCESS:          0  HIT:          0  MISS:          0
cpu0_L2C WRITEBACK ACCESS:     122431  HIT:     122335  MISS:         96
LLC TOTAL     ACCESS:     339396  HIT:     118285  MISS:     221111
LLC LOAD      ACCESS:     245302  HIT:      71374  MISS:     173928
LLC RFO       ACCESS:      47062  HIT:         43  MISS:      47019
LLC PREFETCH  ACCESS:          0  HIT:          0  MISS:          0
LLC WRITEBACK ACCESS:      47031  HIT:      46868  MISS:        163
Heartbeat CPU 0 instructions: 104000001 cycles: 57568647 heartbeat IPC: 1.42491 cumulative IPC: 1.39801 (Simulation time: 1 hr 16 min 35 sec) 

Region of Interest Statistics
cpu0_DTLB TOTAL     ACCESS:   13872181  HIT:   13859368  MISS:      12813
cpu0_DTLB LOAD      ACCESS:   12573350  HIT:   12563421  MISS:       9929
cpu0_DTLB RFO       ACCESS:    1298831  HIT:    1295947  MISS:       2884
cpu0_DTLB PREFETCH  ACCESS:          0  HIT:          0  MISS:          0
cpu0_DTLB WRITEBACK ACCESS:          0  HIT:          0  MISS:          0
cpu0_ITLB TOTAL     ACCESS:     558947  HIT:     558947  MISS:          0
cpu0_ITLB LOAD      ACCESS:     558947  HIT:     558947  MISS:          0
cpu0_ITLB RFO       ACCESS:          0  HIT:          0  MISS:          0
cpu0_ITLB PREFETCH  ACCESS:          0  HIT:          0  MISS:          0
cpu0_ITLB WRITEBACK ACCESS:          0  HIT:          0  MISS:          0
cpu0_L1I TOTAL     ACCESS:     191277  HIT:     191277  MISS:          0
cpu0_L1I LOAD      ACCESS:     191277  HIT:     191277  MISS:          0
cpu0_L1I RFO       ACCESS:          0  HIT:          0  MISS:          0
cpu0_L1I PREFETCH  ACCESS:          0  HIT:          0  MISS:          0
cpu0_L1I WRITEBACK ACCESS:          0  HIT:          0  MISS:          0
cpu0_STLB TOTAL     ACCESS:      12813  HIT:       9810  MISS:       3003
cpu0_STLB LOAD      ACCESS:       9929  HIT:       7709  MISS:       2220
cpu0_STLB RFO       ACCESS:       2884  HIT:       2101  MISS:        783
cpu0_STLB PREFETCH  ACCESS:          0  HIT:          0  MISS:          0
cpu0_STLB WRITEBACK ACCESS:          0  HIT:          0  MISS:          0
cpu0_L1D TOTAL     ACCESS:   14988345  HIT:   14520589  MISS:     467756
cpu0_L1D LOAD      ACCESS:   13102300  HIT:   12731165  MISS:     371135
cpu0_L1D RFO       ACCESS:    1883131  HIT:    1787548  MISS:      95583
cpu0_L1D PREFETCH  ACCESS:          0  HIT:          0  MISS:          0
cpu0_L1D WRITEBACK ACCESS:          0  HIT:          0  MISS:          0
cpu0_L2C TOTAL     ACCESS:     594897  HIT:     291238  MISS:     303659
cpu0_L2C LOAD      ACCESS:     371129  HIT:     116406  MISS:     254723
cpu0_L2C RFO       ACCESS:      95580  HIT:      46743  MISS:      48837
cpu0_L2C PREFETCH  ACCESS:          0  HIT:          0  MISS:          0
cpu0_L2C WRITEBACK ACCESS:     127150  HIT:     127052  MISS:         98
LLC TOTAL     ACCESS:     352519  HIT:     123228  MISS:     229291
LLC LOAD      ACCESS:     254723  HIT:      74390  MISS:     180333
LLC RFO       ACCESS:      48837  HIT:         43  MISS:      48794
LLC PREFETCH  ACCESS:          0  HIT:          0  MISS:          0
LLC WRITEBACK ACCESS:      48958  HIT:      48795  MISS:        163
Heartbeat CPU 0 instructions: 106000003 cycles: 58944263 heartbeat IPC: 1.4539 cumulative IPC: 1.39993 (Simulation time: 1 hr 18 min 29 sec) 

Region of Interest Statistics
cpu0_DTLB TOTAL     ACCESS:   14385235  HIT:   14372013  MISS:      13222
cpu0_DTLB LOAD      ACCESS:   13038213  HIT:   13027974  MISS:      10239
cpu0_DTLB RFO       ACCESS:    1347022  HIT:    1344039  MISS:       2983
cpu0_DTLB PREFETCH  ACCESS:          0  HIT:          0  MISS:          0
cpu0_DTLB WRITEBACK ACCESS:          0  HIT:          0  MISS:          0
cpu0_ITLB TOTAL     ACCESS:     579953  HIT:     579953  MISS:          0
cpu0_ITLB LOAD      ACCESS:     579953  HIT:     579953  MISS:          0
cpu0_ITLB RFO       ACCESS:          0  HIT:          0  MISS:          0
cpu0_ITLB PREFETCH  ACCESS:          0  HIT:          0  MISS:          0
cpu0_ITLB WRITEBACK ACCESS:          0  HIT:          0  MISS:          0
cpu0_L1I TOTAL     ACCESS:     198384  HIT:     198384  MISS:          0
cpu0_L1I LOAD      ACCESS:     198384  HIT:     198384  MISS:          0
cpu0_L1I RFO       ACCESS:          0  HIT:          0  MISS:          0
cpu0_L1I PREFETCH  ACCESS:          0  HIT:          0  MISS:          0
cpu0_L1I WRITEBACK ACCESS:          0  HIT:          0  MISS:          0
cpu0_STLB TOTAL     ACCESS:      13222  HIT:      10119  MISS:       3103
cpu0_STLB LOAD      ACCESS:      10239  HIT:       7946  MISS:       2293
cpu0_STLB RFO       ACCESS:       2983  HIT:       2173  MISS:        810
cpu0_STLB PREFETCH  ACCESS:          0  HIT:          0  MISS:          0
cpu0_STLB WRITEBACK ACCESS:          0  HIT:          0  MISS:          0
cpu0_L1D TOTAL     ACCESS:   15542912  HIT:   15057825  MISS:     485087
cpu0_L1D LOAD      ACCESS:   13586846  HIT:   13201909  MISS:     384937
cpu0_L1D RFO       ACCESS:    1953055  HIT:    1853984  MISS:      99071
cpu0_L1D PREFETCH  ACCESS:          0  HIT:          0  MISS:          0
cpu0_L1D WRITEBACK ACCESS:          0  HIT:          0  MISS:          0
cpu0_L2C TOTAL     ACCESS:     616936  HIT:     302080  MISS:     314856
cpu0_L2C LOAD      ACCESS:     384931  HIT:     120791  MISS:     264140
cpu0_L2C RFO       ACCESS:      99068  HIT:      48451  MISS:      50617
cpu0_L2C PREFETCH  ACCESS:          0  HIT:          0  MISS:          0
cpu0_L2C WRITEBACK ACCESS:     131858  HIT:     131760  MISS:         98
[...]
cpu0_DTLB LOAD      ACCESS:  312463736  HIT:  312177402  MISS:     286334
cpu0_DTLB RFO       ACCESS:   29056313  HIT:   28991922  MISS:      64391
cpu0_DTLB PREFETCH  ACCESS:          0  HIT:          0  MISS:          0
cpu0_DTLB WRITEBACK ACCESS:          0  HIT:          0  MISS:          0
cpu0_ITLB TOTAL     ACCESS:   16985708  HIT:   16985635  MISS:         73
cpu0_ITLB LOAD      ACCESS:   16985708  HIT:   16985635  MISS:         73
cpu0_ITLB RFO       ACCESS:          0  HIT:          0  MISS:          0
cpu0_ITLB PREFETCH  ACCESS:          0  HIT:          0  MISS:          0
cpu0_ITLB WRITEBACK ACCESS:          0  HIT:          0  MISS:          0
cpu0_L1I TOTAL     ACCESS:   32496185  HIT:   32494829  MISS:       1356
cpu0_L1I LOAD      ACCESS:   32496185  HIT:   32494829  MISS:       1356
cpu0_L1I RFO       ACCESS:          0  HIT:          0  MISS:          0
cpu0_L1I PREFETCH  ACCESS:          0  HIT:          0  MISS:          0
cpu0_L1I WRITEBACK ACCESS:          0  HIT:          0  MISS:          0
cpu0_STLB TOTAL     ACCESS:     350798  HIT:     203731  MISS:     147067
cpu0_STLB LOAD      ACCESS:     286407  HIT:     177845  MISS:     108562
cpu0_STLB RFO       ACCESS:      64391  HIT:      25886  MISS:      38505
cpu0_STLB PREFETCH  ACCESS:          0  HIT:          0  MISS:          0
cpu0_STLB WRITEBACK ACCESS:          0  HIT:          0  MISS:          0
cpu0_L1D TOTAL     ACCESS:  400045475  HIT:  385359491  MISS:   14685984
cpu0_L1D LOAD      ACCESS:  363280441  HIT:  351957887  MISS:   11322554
cpu0_L1D RFO       ACCESS:   36625422  HIT:   33279817  MISS:    3345605
cpu0_L1D PREFETCH  ACCESS:          0  HIT:          0  MISS:          0
cpu0_L1D WRITEBACK ACCESS:          0  HIT:          0  MISS:          0
cpu0_L2C TOTAL     ACCESS:   19111756  HIT:    8034371  MISS:   11077385
cpu0_L2C LOAD      ACCESS:   11323736  HIT:    2692751  MISS:    8630985
cpu0_L2C RFO       ACCESS:    3345515  HIT:     907940  MISS:    2437575
cpu0_L2C PREFETCH  ACCESS:          0  HIT:          0  MISS:          0
cpu0_L2C WRITEBACK ACCESS:    4424680  HIT:    4416436  MISS:       8244
LLC TOTAL     ACCESS:   14267277  HIT:    5036828  MISS:    9230449
LLC LOAD      ACCESS:    8630981  HIT:    1549638  MISS:    7081343
LLC RFO       ACCESS:    2437565  HIT:     294894  MISS:    2142671
LLC PREFETCH  ACCESS:          0  HIT:          0  MISS:          0
LLC WRITEBACK ACCESS:    3198150  HIT:    3191921  MISS:       6229
Heartbeat CPU 0 instructions: 1550000004 cycles: 1442572116 heartbeat IPC: 0.643039 cumulative IPC: 1.05364 (Simulation time: 16 hr 26 min 37 sec) 

Region of Interest Statistics
cpu0_DTLB TOTAL     ACCESS:  342000458  HIT:  341649184  MISS:     351274
cpu0_DTLB LOAD      ACCESS:  312878241  HIT:  312591491  MISS:     286750
cpu0_DTLB RFO       ACCESS:   29122217  HIT:   29057693  MISS:      64524
cpu0_DTLB PREFETCH  ACCESS:          0  HIT:          0  MISS:          0
cpu0_DTLB WRITEBACK ACCESS:          0  HIT:          0  MISS:          0
cpu0_ITLB TOTAL     ACCESS:   17053133  HIT:   17053060  MISS:         73
cpu0_ITLB LOAD      ACCESS:   17053133  HIT:   17053060  MISS:         73
cpu0_ITLB RFO       ACCESS:          0  HIT:          0  MISS:          0
cpu0_ITLB PREFETCH  ACCESS:          0  HIT:          0  MISS:          0
cpu0_ITLB WRITEBACK ACCESS:          0  HIT:          0  MISS:          0
cpu0_L1I TOTAL     ACCESS:   32503840  HIT:   32502484  MISS:       1356
cpu0_L1I LOAD      ACCESS:   32503840  HIT:   32502484  MISS:       1356
cpu0_L1I RFO       ACCESS:          0  HIT:          0  MISS:          0
cpu0_L1I PREFETCH  ACCESS:          0  HIT:          0  MISS:          0
cpu0_L1I WRITEBACK ACCESS:          0  HIT:          0  MISS:          0
cpu0_STLB TOTAL     ACCESS:     351347  HIT:     203837  MISS:     147510
cpu0_STLB LOAD      ACCESS:     286823  HIT:     177917  MISS:     108906
cpu0_STLB RFO       ACCESS:      64524  HIT:      25920  MISS:      38604
cpu0_STLB PREFETCH  ACCESS:          0  HIT:          0  MISS:          0
cpu0_STLB WRITEBACK ACCESS:          0  HIT:          0  MISS:          0
cpu0_L1D TOTAL     ACCESS:  400581171  HIT:  385867985  MISS:   14713186
cpu0_L1D LOAD      ACCESS:  363709317  HIT:  352365544  MISS:   11343773
cpu0_L1D RFO       ACCESS:   36731799  HIT:   33380297  MISS:    3351502
cpu0_L1D PREFETCH  ACCESS:          0  HIT:          0  MISS:          0
cpu0_L1D WRITEBACK ACCESS:          0  HIT:          0  MISS:          0
cpu0_L2C TOTAL     ACCESS:   19150432  HIT:    8045933  MISS:   11104499
cpu0_L2C LOAD      ACCESS:   11344955  HIT:    2692753  MISS:    8652202
cpu0_L2C RFO       ACCESS:    3351412  HIT:     907940  MISS:    2443472
cpu0_L2C PREFETCH  ACCESS:          0  HIT:          0  MISS:          0
cpu0_L2C WRITEBACK ACCESS:    4436154  HIT:    4427910  MISS:       8244
LLC TOTAL     ACCESS:   14305790  HIT:    5048259  MISS:    9257531
LLC LOAD      ACCESS:    8652198  HIT:    1549669  MISS:    7102529
LLC RFO       ACCESS:    2443462  HIT:     294895  MISS:    2148567
LLC PREFETCH  ACCESS:          0  HIT:          0  MISS:          0
LLC WRITEBACK ACCESS:    3209549  HIT:    3203320  MISS:       6229
Finished CPU 0 instructions: 1500000003 cycles: 1423629836 cumulative IPC: 1.05364 (Simulation time: 16 hr 26 min 37 sec) 

ChampSim completed all CPUs

Region of Interest Statistics

CPU 0 cumulative IPC: 1.05364 instructions: 1500000003 cycles: 1423629836
cpu0_DTLB TOTAL     ACCESS:  342000458  HIT:  341649184  MISS:     351274
cpu0_DTLB LOAD      ACCESS:  312878241  HIT:  312591491  MISS:     286750
cpu0_DTLB RFO       ACCESS:   29122217  HIT:   29057693  MISS:      64524
cpu0_DTLB PREFETCH  ACCESS:          0  HIT:          0  MISS:          0
cpu0_DTLB WRITEBACK ACCESS:          0  HIT:          0  MISS:          0
cpu0_DTLB TRANSLATION ACCESS:          0  HIT:          0  MISS:          0
cpu0_DTLB PREFETCH  REQUESTED:          0  ISSUED:          0  USEFUL:          0  USELESS:          0
cpu0_DTLB AVERAGE MISS LATENCY: 22.7036 cycles
cpu0_ITLB TOTAL     ACCESS:   17053133  HIT:   17053060  MISS:         73
cpu0_ITLB LOAD      ACCESS:   17053133  HIT:   17053060  MISS:         73
cpu0_ITLB RFO       ACCESS:          0  HIT:          0  MISS:          0
cpu0_ITLB PREFETCH  ACCESS:          0  HIT:          0  MISS:          0
cpu0_ITLB WRITEBACK ACCESS:          0  HIT:          0  MISS:          0
cpu0_ITLB TRANSLATION ACCESS:          0  HIT:          0  MISS:          0
cpu0_ITLB PREFETCH  REQUESTED:          0  ISSUED:          0  USEFUL:          0  USELESS:          0
cpu0_ITLB AVERAGE MISS LATENCY: 195.452 cycles
cpu0_L1I TOTAL     ACCESS:   32503840  HIT:   32502484  MISS:       1356
cpu0_L1I LOAD      ACCESS:   32503840  HIT:   32502484  MISS:       1356
cpu0_L1I RFO       ACCESS:          0  HIT:          0  MISS:          0
cpu0_L1I PREFETCH  ACCESS:          0  HIT:          0  MISS:          0
cpu0_L1I WRITEBACK ACCESS:          0  HIT:          0  MISS:          0
cpu0_L1I TRANSLATION ACCESS:          0  HIT:          0  MISS:          0
cpu0_L1I PREFETCH  REQUESTED:          0  ISSUED:          0  USEFUL:          0  USELESS:          0
cpu0_L1I AVERAGE MISS LATENCY: 282.601 cycles
cpu0_STLB TOTAL     ACCESS:     351347  HIT:     203837  MISS:     147510
cpu0_STLB LOAD      ACCESS:     286823  HIT:     177917  MISS:     108906
cpu0_STLB RFO       ACCESS:      64524  HIT:      25920  MISS:      38604
cpu0_STLB PREFETCH  ACCESS:          0  HIT:          0  MISS:          0
cpu0_STLB WRITEBACK ACCESS:          0  HIT:          0  MISS:          0
cpu0_STLB TRANSLATION ACCESS:          0  HIT:          0  MISS:          0
cpu0_STLB PREFETCH  REQUESTED:          0  ISSUED:          0  USEFUL:          0  USELESS:          0
cpu0_STLB AVERAGE MISS LATENCY: 32.6758 cycles
cpu0_L1D TOTAL     ACCESS:  400581171  HIT:  385867985  MISS:   14713186
cpu0_L1D LOAD      ACCESS:  363709317  HIT:  352365544  MISS:   11343773
cpu0_L1D RFO       ACCESS:   36731799  HIT:   33380297  MISS:    3351502
cpu0_L1D PREFETCH  ACCESS:          0  HIT:          0  MISS:          0
cpu0_L1D WRITEBACK ACCESS:          0  HIT:          0  MISS:          0
cpu0_L1D TRANSLATION ACCESS:     140055  HIT:     122144  MISS:      17911
cpu0_L1D PREFETCH  REQUESTED:          0  ISSUED:          0  USEFUL:          0  USELESS:          0
cpu0_L1D AVERAGE MISS LATENCY: 201.666 cycles
cpu0_L2C TOTAL     ACCESS:   19150432  HIT:    8045933  MISS:   11104499
cpu0_L2C LOAD      ACCESS:   11344955  HIT:    2692753  MISS:    8652202
cpu0_L2C RFO       ACCESS:    3351412  HIT:     907940  MISS:    2443472
cpu0_L2C PREFETCH  ACCESS:          0  HIT:          0  MISS:          0
cpu0_L2C WRITEBACK ACCESS:    4436154  HIT:    4427910  MISS:       8244
cpu0_L2C TRANSLATION ACCESS:      17911  HIT:      17330  MISS:        581
cpu0_L2C PREFETCH  REQUESTED:          0  ISSUED:          0  USEFUL:          0  USELESS:          0
cpu0_L2C AVERAGE MISS LATENCY: 252.645 cycles
LLC TOTAL     ACCESS:   14305790  HIT:    5048259  MISS:    9257531
LLC LOAD      ACCESS:    8652198  HIT:    1549669  MISS:    7102529
LLC RFO       ACCESS:    2443462  HIT:     294895  MISS:    2148567
LLC PREFETCH  ACCESS:          0  HIT:          0  MISS:          0
LLC WRITEBACK ACCESS:    3209549  HIT:    3203320  MISS:       6229
LLC TRANSLATION ACCESS:        581  HIT:        375  MISS:        206
LLC PREFETCH  REQUESTED:          0  ISSUED:          0  USEFUL:          0  USELESS:          0
LLC AVERAGE MISS LATENCY: 277.879 cycles
~~~~~~~~~~Reuse Distance Profiler output~~~~~~~~~~
0	0	0
1	0	0
2	0	0
3	0	0
4	0	0
5	0	0
6	0	0
7	0	0
8	0	0
9	0	0
10	0	0
11	0	0
12	0	0
13	0	0
14	0	0
15	0	0
16	0	0
17	0	0
18	0	0
19	0	0
20	0	0
21	0	0
22	0	0
23	0	0
24	0	0
25	0	0
26	0	0
27	0	0
28	0	0
29	0	0
30	0	0
31	0	0
32	0	0
33	0	0
34	0	0
35	0	0
36	0	0
37	0	0
38	0	0
39	0	0
40	0	0
41	0	0
42	0	0
43	0	0
44	0	0
45	0	0
46	0	0
47	0	0
48	0	0
49	0	0
50	0	0
51	0	0
52	0	0
53	0	0
54	0	0
55	0	0
56	0	0
57	0	0
58	0	0
59	0	0
60	0	0
61	0	0
62	0	0
63	0	0
64	0	0
66	0	0
68	0	0
70	0	0
72	0	0
74	0	0
76	0	0
78	0	0
80	0	0
82	0	0
84	0	0
86	0	0
88	0	0
90	0	0
92	0	0
94	0	0
96	0	0
98	0	0
100	0	0
102	0	0
104	0	0
106	0	0
108	0	0
110	0	0
112	0	0
114	0	0
116	0	0
118	0	0
120	0	0
122	0	0
124	0	0
126	0	0
128	0	0
132	0	0
136	0	0
140	0	0
144	0	0
148	0	0
152	0	0
156	0	0
160	0	0
164	0	0
168	0	0
172	0	0
176	0	0
180	0	0
184	0	0
188	0	0
192	0	0
196	0	0
200	0	0
204	0	0
208	0	0
212	0	0
216	0	0
220	0	0
224	0	0
228	0	0
232	0	0
236	0	0
240	0	0
244	0	0
248	0	0
252	0	0
256	0	0
264	0	0
272	0	0
280	0	0
288	0	0
296	0	0
304	0	0
312	0	0
320	0	0
328	0	0
336	0	0
344	0	0
352	0	0
360	0	0
368	0	0
376	0	0
384	0	0
392	0	0
400	0	0
408	0	0
416	0	0
424	0	0
432	0	0
440	0	0
448	0	0
456	0	0
464	0	0
472	0	0
480	0	0
488	0	0
496	0	0
504	0	0
512	0	0
528	0	0
544	0	0
560	0	0
576	0	0
592	0	0
608	0	0
624	0	0
640	0	0
656	0	0
672	0	0
688	0	0
704	0	0
720	0	0
736	0	0
752	0	0
768	0	0
784	0	0
800	0	0
816	0	0
832	0	0
848	0	0
864	0	0
880	0	0
896	0	0
912	0	0
928	0	0
944	0	0
960	0	0
976	0	0
992	0	0
1008	0	0
1024	0	0
1056	0	0
1088	0	0
1120	0	0
1152	0	0
1184	0	0
1216	0	0
1248	0	0
1280	0	0
1312	0	0
1344	0	0
1376	0	0
1408	0	0
1440	0	0
1472	0	0
1504	0	0
1536	0	0
1568	0	0
1600	0	0
1632	0	0
1664	0	0
1696	0	0
1728	0	0
1760	0	0
1792	0	0
1824	0	0
1856	0	0
1888	0	0
1920	0	0
1952	0	0
1984	0	0
2016	0	0
2048	0	0
2112	0	0
2176	0	0
2240	0	0
2304	0	0
2368	0	0
2432	0	0
2496	0	0
2560	0	0
2624	0	0
2688	0	0
2752	0	0
2816	0	0
2880	0	0
2944	0	0
3008	0	0
3072	0	0
3136	0	0
3200	0	0
3264	0	0
3328	0	0
3392	0	0
3456	0	0
3520	0	0
3584	0	0
3648	0	0
3712	0	0
3776	0	0
3840	0	0
3904	0	0
3968	0	0
4032	0	0
4096	0	0
4224	0	0
4352	0	0
4480	0	0
4608	0	0
4736	0	0
4864	0	0
4992	0	0
5120	0	0
5248	0	0
5376	0	0
5504	0	0
5632	0	0
5760	0	0
5888	0	0
6016	0	0
6144	0	0
6272	0	0
6400	0	0
6528	0	0
6656	0	0
6784	0	0
6912	0	0
7040	0	0
7168	0	0
7296	0	0
7424	0	0
7552	0	0
7680	0	0
7808	0	0
7936	0	0
8064	0	0
8192	0	0
8448	0	0
8704	0	0
8960	0	0
9216	0	0
9472	0	0
9728	0	0
9984	0	0
10240	0	0
10496	0	0
10752	0	0
11008	0	0
11264	0	0
11520	0	0
11776	0	0
12032	0	0
12288	0	0
12544	0	0
12800	0	0
13056	0	0
13312	0	0
13568	0	0
13824	0	0
14080	0	0
14336	0	0
14592	0	0
14848	0	0
15104	0	0
15360	0	0
15616	0	0
15872	0	0
16128	0	0
16384	0	0
16896	0	0
17408	0	0
17920	0	0
18432	0	0
18944	0	0
19456	0	0
19968	0	0
20480	0	0
20992	0	0
21504	0	0
22016	0	0
22528	0	0
23040	0	0
23552	0	0
24064	0	0
24576	0	0
25088	0	0
25600	0	0
26112	0	0
26624	0	0
27136	0	0
27648	0	0
28160	0	0
28672	0	0
29184	0	0
29696	0	0
30208	0	0
30720	0	0
31232	0	0
31744	0	0
32256	0	0
32768	0	0
33792	0	0
34816	0	0
35840	0	0
36864	0	0
37888	0	0
38912	0	0
39936	0	0
40960	0	0
41984	0	0
43008	0	0
44032	0	0
45056	0	0
46080	0	0
47104	0	0
48128	0	0
49152	0	0
50176	0	0
51200	0	0
52224	0	0
53248	0	0
54272	0	0
55296	0	0
56320	0	0
57344	0	0
58368	0	0
59392	0	0
60416	0	0
61440	0	0
62464	0	0
63488	0	0
64512	0	0
65536	0	0
67584	0	0
69632	0	0
71680	0	0
73728	0	0
75776	0	0
77824	0	0
79872	0	0
81920	0	0
83968	0	0
86016	0	0
88064	0	0
90112	0	0
92160	0	0
94208	0	0
96256	0	0
98304	0	0
100352	0	0
102400	0	0
104448	0	0
106496	0	0
108544	0	0
110592	0	0
112640	0	0
114688	0	0
116736	0	0
118784	0	0
120832	0	0
122880	0	0
124928	0	0
126976	0	0
129024	0	0
131072	0	0
135168	0	0
139264	0	0
143360	0	0
147456	0	0
151552	0	0
155648	0	0
159744	0	0
163840	0	0
167936	0	0
172032	0	0
176128	0	0
180224	0	0
184320	0	0
188416	0	0
192512	0	0
196608	0	0
200704	0	0
204800	0	0
208896	0	0
212992	0	0
217088	0	0
221184	0	0
225280	0	0
229376	0	0
233472	0	0
237568	0	0
241664	0	0
245760	0	0
249856	0	0
253952	0	0
258048	0	0
262144	0	0
270336	0	0
278528	0	0
286720	0	0
294912	0	0
303104	0	0
311296	0	0
319488	0	0
327680	0	0
335872	0	0
344064	0	0
352256	0	0
360448	0	0
368640	0	0
376832	0	0
385024	0	0
393216	0	0
401408	0	0
409600	0	0
417792	0	0
425984	0	0
434176	0	0
442368	0	0
450560	0	0
458752	0	0
466944	0	0
475136	0	0
483328	0	0
491520	0	0
499712	0	0
507904	0	0
516096	0	0
524288	0	0
540672	0	0
557056	0	0
573440	0	0
589824	0	0
606208	0	0
622592	0	0
638976	0	0
655360	0	0
671744	0	0
688128	0	0
704512	0	0
720896	0	0
737280	0	0
753664	0	0
770048	0	0
786432	0	0
802816	0	0
819200	0	0
835584	0	0
851968	0	0
868352	0	0
884736	0	0
901120	0	0
917504	0	0
933888	0	0
950272	0	0
966656	0	0
983040	0	0
999424	0	0
1015808	0	0
1032192	0	0
1048576	0	0
1081344	0	0
1114112	0	0
1146880	0	0
1179648	0	0
1212416	0	0
1245184	0	0
1277952	0	0
1310720	0	0
1343488	0	0
1376256	0	0
1409024	0	0
1441792	0	0
1474560	0	0
1507328	0	0
1540096	0	0
1572864	0	0
1605632	0	0
1638400	0	0
1671168	0	0
1703936	0	0
1736704	0	0
1769472	0	0
1802240	0	0
1835008	0	0
1867776	0	0
1900544	0	0
1933312	0	0
1966080	0	0
1998848	0	0
2031616	0	0
2064384	0	0
2097152	0	0
2162688	0	0
2228224	0	0
2293760	0	0
2359296	0	0
2424832	0	0
2490368	0	0
2555904	0	0
2621440	0	0
2686976	0	0
2752512	0	0
2818048	0	0
2883584	0	0
2949120	0	0
3014656	0	0
3080192	0	0
3145728	0	0
3211264	0	0
3276800	0	0
3342336	0	0
3407872	0	0
3473408	0	0
3538944	0	0
3604480	0	0
3670016	0	0
3735552	0	0
3801088	0	0
3866624	0	0
3932160	0	0
3997696	0	0
4063232	0	0
4128768	0	0
4194304	0	0
4325376	0	0
4456448	0	0
4587520	0	0
4718592	0	0
4849664	0	0
4980736	0	0
5111808	0	0
5242880	0	0
5373952	0	0
5505024	0	0
5636096	0	0
5767168	0	0
5898240	0	0
6029312	0	0
6160384	0	0
6291456	0	0
6422528	0	0
6553600	0	0
6684672	0	0
6815744	0	0
6946816	0	0
7077888	0	0
7208960	0	0
7340032	0	0
7471104	0	0
7602176	0	0
7733248	0	0
7864320	0	0
7995392	0	0
8126464	0	0
8257536	0	0
8388608	0	0
8650752	0	0
8912896	0	0
9175040	0	0
9437184	0	0
9699328	0	0
9961472	0	0
10223616	0	0
10485760	0	0
10747904	0	0
11010048	0	0
11272192	0	0
11534336	0	0
11796480	0	0
12058624	0	0
12320768	0	0
12582912	0	0
12845056	0	0
13107200	0	0
13369344	0	0
13631488	0	0
13893632	0	0
14155776	0	0
14417920	0	0
14680064	0	0
14942208	0	0
15204352	0	0
15466496	0	0
15728640	0	0
15990784	0	0
16252928	0	0
16515072	0	0
16777216	0	0
17301504	0	0
17825792	0	0
18350080	0	0
18874368	0	0
19398656	0	0
19922944	0	0
20447232	0	0
20971520	0	0
21495808	0	0
22020096	0	0
22544384	0	0
23068672	0	0
23592960	0	0
24117248	0	0
24641536	0	0
25165824	0	0
25690112	0	0
26214400	0	0
26738688	0	0
27262976	0	0
27787264	0	0
28311552	0	0
28835840	0	0
29360128	0	0
29884416	0	0
30408704	0	0
30932992	0	0
31457280	0	0
31981568	0	0
32505856	0	0
33030144	0	0
33554432	0	0
34603008	0	0
35651584	0	0
36700160	0	0
37748736	0	0
38797312	0	0
39845888	0	0
40894464	0	0
41943040	0	0
42991616	0	0
44040192	0	0
45088768	0	0
46137344	0	0
47185920	0	0
48234496	0	0
49283072	0	0
50331648	0	0
51380224	0	0
52428800	0	0
53477376	0	0
54525952	0	0
55574528	0	0
56623104	0	0
57671680	0	0
58720256	0	0
59768832	0	0
60817408	0	0
61865984	0	0
62914560	0	0
63963136	0	0
65011712	0	0
66060288	0	0
67108864	0	0
69206016	0	0
71303168	0	0
73400320	0	0
75497472	0	0
77594624	0	0
79691776	0	0
81788928	0	0
83886080	0	0
85983232	0	0
88080384	0	0
90177536	0	0
92274688	0	0
94371840	0	0
96468992	0	0
98566144	0	0
100663296	0	0
102760448	0	0
104857600	0	0
106954752	0	0
109051904	0	0
111149056	0	0
113246208	0	0
115343360	0	0
117440512	0	0
119537664	0	0
121634816	0	0
123731968	0	0
125829120	0	0
127926272	0	0
130023424	0	0
132120576	0	0
134217728	0	0
138412032	0	0
142606336	0	0
146800640	0	0
150994944	0	0
155189248	0	0
159383552	0	0
163577856	0	0
167772160	0	0
171966464	0	0
176160768	0	0
180355072	0	0
184549376	0	0
188743680	0	0
192937984	0	0
197132288	0	0
201326592	0	0
205520896	0	0
209715200	0	0
213909504	0	0
218103808	0	0
222298112	0	0
226492416	0	0
230686720	0	0
234881024	0	0
239075328	0	0
243269632	0	0
247463936	0	0
251658240	0	0
255852544	0	0
260046848	0	0
264241152	0	0
268435456	0	0
276824064	0	0
285212672	0	0
293601280	0	0
301989888	0	0
310378496	0	0
318767104	0	0
327155712	0	0
335544320	0	0
343932928	0	0
352321536	0	0
360710144	0	0
369098752	0	0
377487360	0	0
385875968	0	0
394264576	0	0
402653184	0	0
411041792	0	0
419430400	0	0
427819008	0	0
436207616	0	0
444596224	0	0
452984832	0	0
461373440	0	0
469762048	0	0
478150656	0	0
486539264	0	0
494927872	0	0
503316480	0	0
511705088	0	0
520093696	0	0
528482304	0	0
536870912	0	0
553648128	0	0
570425344	0	0
587202560	0	0
603979776	0	0
620756992	0	0
637534208	0	0
654311424	0	0
671088640	0	0
687865856	0	0
704643072	0	0
721420288	0	0
738197504	0	0
754974720	0	0
771751936	0	0
788529152	0	0
805306368	0	0
822083584	0	0
838860800	0	0
855638016	0	0
872415232	0	0
889192448	0	0
905969664	0	0
922746880	0	0
939524096	0	0
956301312	0	0
973078528	0	0
989855744	0	0
1006632960	0	0
1023410176	0	0
1040187392	0	0
1056964608	0	0
1073741824	0	0
1107296256	0	0
1140850688	0	0
1174405120	0	0
1207959552	0	0
1241513984	0	0
1275068416	0	0
1308622848	0	0
1342177280	0	0
1375731712	0	0
1409286144	0	0
1442840576	0	0
1476395008	0	0
1509949440	0	0
1543503872	0	0
1577058304	0	0
1610612736	0	0
1644167168	0	0
1677721600	0	0
1711276032	0	0
1744830464	0	0
1778384896	0	0
1811939328	0	0
1845493760	0	0
1879048192	0	0
1912602624	0	0
1946157056	0	0
1979711488	0	0
2013265920	0	0
2046820352	0	0
2080374784	0	0
2113929216	0	0
2147483648	0	0
2214592512	0	0
2281701376	0	0
2348810240	0	0
2415919104	0	0
2483027968	0	0
2550136832	0	0
2617245696	0	0
2684354560	0	0
2751463424	0	0
2818572288	0	0
2885681152	0	0
2952790016	0	0
3019898880	0	0
3087007744	0	0
3154116608	0	0
3221225472	0	0
3288334336	0	0
3355443200	0	0
3422552064	0	0
3489660928	0	0
3556769792	0	0
3623878656	0	0
3690987520	0	0
3758096384	0	0
3825205248	0	0
3892314112	0	0
3959422976	0	0
4026531840	0	0
4093640704	0	0
4160749568	0	0
4227858432	0	0
~~~~~~~~~~Reuse Distance Profiler output end~~~~~~~~~~


DRAM Statistics
 CHANNEL 0
 RQ ROW_BUFFER_HIT:     454618  ROW_BUFFER_MISS:    8795834
 DBUS AVG_CONGESTED_CYCLE:    3.95481
 WQ ROW_BUFFER_HIT:     463788  ROW_BUFFER_MISS:    2396146  FULL:          0


CPU 0 Branch Prediction Accuracy: 98.2818% MPKI: 0.430807 Average ROB Occupancy at Mispredict: 313.406
Branch type MPKI
BRANCH_DIRECT_JUMP: 8.8e-05
BRANCH_INDIRECT: 1.66667e-05
BRANCH_CONDITIONAL: 0.430431
BRANCH_DIRECT_CALL: 0.000136667
BRANCH_INDIRECT_CALL: 5.33333e-06
BRANCH_RETURN: 0.000128667

