
*** ChampSim Multicore Out-of-Order Simulator ***

Warmup Instructions: 50000000
Simulation Instructions: 1500000000
Number of CPUs: 1
Off-chip DRAM Size: 4 GiB Channels: 1 Width: 64-bit Data Rate: 3200 MT/s

VirtualMemory physical capacity: 8588881920 num_ppages: 2096895
VirtualMemory page size: 4096 log2_page_size: 12

CPU 0 runs traces/445.gobmk-2B.champsimtrace.xz
CPU 0 Bimodal branch predictor
Basic BTB sets: 1024 ways: 8 indirect buffer size: 4096 RAS size: 64
Initializing LRU.
Initializing LRU.
Initializing LRU.
Initializing LRU.
Initializing rdLRU.
Initializing LRU.
Initializing LRU.
Heartbeat CPU 0 instructions: 2000000 cycles: 517975 heartbeat IPC: 3.86119 cumulative IPC: 3.86119 (Simulation time: 0 hr 0 min 40 sec) 
Heartbeat CPU 0 instructions: 4000003 cycles: 1036111 heartbeat IPC: 3.86 cumulative IPC: 3.86059 (Simulation time: 0 hr 1 min 25 sec) 
Heartbeat CPU 0 instructions: 6000002 cycles: 1550560 heartbeat IPC: 3.88765 cumulative IPC: 3.86957 (Simulation time: 0 hr 2 min 13 sec) 
Heartbeat CPU 0 instructions: 8000002 cycles: 2063293 heartbeat IPC: 3.90067 cumulative IPC: 3.8773 (Simulation time: 0 hr 3 min 1 sec) 
Heartbeat CPU 0 instructions: 10000002 cycles: 2579553 heartbeat IPC: 3.87402 cumulative IPC: 3.87664 (Simulation time: 0 hr 3 min 50 sec) 
Heartbeat CPU 0 instructions: 12000002 cycles: 3097005 heartbeat IPC: 3.86509 cumulative IPC: 3.87471 (Simulation time: 0 hr 4 min 36 sec) 
Heartbeat CPU 0 instructions: 14000000 cycles: 3619399 heartbeat IPC: 3.82852 cumulative IPC: 3.86805 (Simulation time: 0 hr 5 min 28 sec) 
Heartbeat CPU 0 instructions: 16000000 cycles: 4133404 heartbeat IPC: 3.89101 cumulative IPC: 3.8709 (Simulation time: 0 hr 6 min 16 sec) 
Heartbeat CPU 0 instructions: 18000002 cycles: 4651373 heartbeat IPC: 3.86124 cumulative IPC: 3.86983 (Simulation time: 0 hr 7 min 5 sec) 
Heartbeat CPU 0 instructions: 20000001 cycles: 5163589 heartbeat IPC: 3.9046 cumulative IPC: 3.87328 (Simulation time: 0 hr 7 min 52 sec) 
Heartbeat CPU 0 instructions: 22000000 cycles: 5685601 heartbeat IPC: 3.83133 cumulative IPC: 3.86942 (Simulation time: 0 hr 8 min 36 sec) 
Heartbeat CPU 0 instructions: 24000000 cycles: 6200466 heartbeat IPC: 3.88451 cumulative IPC: 3.87068 (Simulation time: 0 hr 9 min 22 sec) 
Heartbeat CPU 0 instructions: 26000001 cycles: 6718407 heartbeat IPC: 3.86145 cumulative IPC: 3.86997 (Simulation time: 0 hr 10 min 10 sec) 
Heartbeat CPU 0 instructions: 28000001 cycles: 7236675 heartbeat IPC: 3.85901 cumulative IPC: 3.86918 (Simulation time: 0 hr 11 min 0 sec) 
Heartbeat CPU 0 instructions: 30000000 cycles: 7753864 heartbeat IPC: 3.86706 cumulative IPC: 3.86904 (Simulation time: 0 hr 11 min 49 sec) 
Heartbeat CPU 0 instructions: 32000001 cycles: 8271478 heartbeat IPC: 3.86389 cumulative IPC: 3.86872 (Simulation time: 0 hr 12 min 39 sec) 
Heartbeat CPU 0 instructions: 34000002 cycles: 8791651 heartbeat IPC: 3.84488 cumulative IPC: 3.86731 (Simulation time: 0 hr 13 min 29 sec) 
Heartbeat CPU 0 instructions: 36000002 cycles: 9310633 heartbeat IPC: 3.8537 cumulative IPC: 3.86655 (Simulation time: 0 hr 14 min 19 sec) 
Heartbeat CPU 0 instructions: 38000001 cycles: 9833833 heartbeat IPC: 3.82263 cumulative IPC: 3.86421 (Simulation time: 0 hr 15 min 7 sec) 
Heartbeat CPU 0 instructions: 40000001 cycles: 10351784 heartbeat IPC: 3.86137 cumulative IPC: 3.86407 (Simulation time: 0 hr 15 min 55 sec) 
Heartbeat CPU 0 instructions: 42000000 cycles: 10866336 heartbeat IPC: 3.88687 cumulative IPC: 3.86515 (Simulation time: 0 hr 16 min 41 sec) 
Heartbeat CPU 0 instructions: 44000001 cycles: 11379108 heartbeat IPC: 3.90037 cumulative IPC: 3.86674 (Simulation time: 0 hr 17 min 30 sec) 
Heartbeat CPU 0 instructions: 46000002 cycles: 11892135 heartbeat IPC: 3.89843 cumulative IPC: 3.8681 (Simulation time: 0 hr 18 min 20 sec) 
Heartbeat CPU 0 instructions: 48000000 cycles: 12409074 heartbeat IPC: 3.86892 cumulative IPC: 3.86814 (Simulation time: 0 hr 19 min 3 sec) 
Heartbeat CPU 0 instructions: 50000002 cycles: 12931166 heartbeat IPC: 3.83075 cumulative IPC: 3.86663 (Simulation time: 0 hr 19 min 53 sec) 

Warmup complete CPU 0 instructions: 50000002 cycles: 12931166 (Simulation time: 0 hr 19 min 53 sec) 

Heartbeat CPU 0 instructions: 52000001 cycles: 15346124 heartbeat IPC: 0.828171 cumulative IPC: 0.828171 (Simulation time: 0 hr 20 min 54 sec) 

Region of Interest Statistics
cpu0_DTLB TOTAL     ACCESS:     396443  HIT:     394301  MISS:       2142
cpu0_DTLB LOAD      ACCESS:     302351  HIT:     300402  MISS:       1949
cpu0_DTLB RFO       ACCESS:      94092  HIT:      93899  MISS:        193
cpu0_DTLB PREFETCH  ACCESS:          0  HIT:          0  MISS:          0
cpu0_DTLB WRITEBACK ACCESS:          0  HIT:          0  MISS:          0
cpu0_ITLB TOTAL     ACCESS:     197851  HIT:     197842  MISS:          9
cpu0_ITLB LOAD      ACCESS:     197851  HIT:     197842  MISS:          9
cpu0_ITLB RFO       ACCESS:          0  HIT:          0  MISS:          0
cpu0_ITLB PREFETCH  ACCESS:          0  HIT:          0  MISS:          0
cpu0_ITLB WRITEBACK ACCESS:          0  HIT:          0  MISS:          0
cpu0_L1I TOTAL     ACCESS:      97991  HIT:      93809  MISS:       4182
cpu0_L1I LOAD      ACCESS:      97991  HIT:      93809  MISS:       4182
cpu0_L1I RFO       ACCESS:          0  HIT:          0  MISS:          0
cpu0_L1I PREFETCH  ACCESS:          0  HIT:          0  MISS:          0
cpu0_L1I WRITEBACK ACCESS:          0  HIT:          0  MISS:          0
cpu0_STLB TOTAL     ACCESS:       2151  HIT:       2118  MISS:         33
cpu0_STLB LOAD      ACCESS:       1958  HIT:       1931  MISS:         27
cpu0_STLB RFO       ACCESS:        193  HIT:        187  MISS:          6
cpu0_STLB PREFETCH  ACCESS:          0  HIT:          0  MISS:          0
cpu0_STLB WRITEBACK ACCESS:          0  HIT:          0  MISS:          0
cpu0_L1D TOTAL     ACCESS:     452522  HIT:     442476  MISS:      10046
cpu0_L1D LOAD      ACCESS:     292680  HIT:     285538  MISS:       7142
cpu0_L1D RFO       ACCESS:     159809  HIT:     156910  MISS:       2899
cpu0_L1D PREFETCH  ACCESS:          0  HIT:          0  MISS:          0
cpu0_L1D WRITEBACK ACCESS:          0  HIT:          0  MISS:          0
cpu0_L2C TOTAL     ACCESS:      17926  HIT:      14687  MISS:       3239
cpu0_L2C LOAD      ACCESS:      11324  HIT:       8834  MISS:       2490
cpu0_L2C RFO       ACCESS:       2899  HIT:       2151  MISS:        748
cpu0_L2C PREFETCH  ACCESS:          0  HIT:          0  MISS:          0
cpu0_L2C WRITEBACK ACCESS:       3698  HIT:       3698  MISS:          0
LLC TOTAL     ACCESS:       4804  HIT:        151  MISS:       4653
LLC LOAD      ACCESS:       2490  HIT:         73  MISS:       2417
LLC RFO       ACCESS:        748  HIT:         36  MISS:        712
LLC PREFETCH  ACCESS:          0  HIT:          0  MISS:          0
LLC WRITEBACK ACCESS:       1565  HIT:         42  MISS:       1523
Heartbeat CPU 0 instructions: 54000000 cycles: 18210814 heartbeat IPC: 0.698155 cumulative IPC: 0.757626 (Simulation time: 0 hr 22 min 3 sec) 

Region of Interest Statistics
cpu0_DTLB TOTAL     ACCESS:     829762  HIT:     825554  MISS:       4208
cpu0_DTLB LOAD      ACCESS:     614783  HIT:     610977  MISS:       3806
cpu0_DTLB RFO       ACCESS:     214979  HIT:     214577  MISS:        402
cpu0_DTLB PREFETCH  ACCESS:          0  HIT:          0  MISS:          0
cpu0_DTLB WRITEBACK ACCESS:          0  HIT:          0  MISS:          0
cpu0_ITLB TOTAL     ACCESS:     384906  HIT:     384880  MISS:         26
cpu0_ITLB LOAD      ACCESS:     384906  HIT:     384880  MISS:         26
cpu0_ITLB RFO       ACCESS:          0  HIT:          0  MISS:          0
cpu0_ITLB PREFETCH  ACCESS:          0  HIT:          0  MISS:          0
cpu0_ITLB WRITEBACK ACCESS:          0  HIT:          0  MISS:          0
cpu0_L1I TOTAL     ACCESS:     234050  HIT:     223324  MISS:      10726
cpu0_L1I LOAD      ACCESS:     234050  HIT:     223324  MISS:      10726
cpu0_L1I RFO       ACCESS:          0  HIT:          0  MISS:          0
cpu0_L1I PREFETCH  ACCESS:          0  HIT:          0  MISS:          0
cpu0_L1I WRITEBACK ACCESS:          0  HIT:          0  MISS:          0
cpu0_STLB TOTAL     ACCESS:       4234  HIT:       4137  MISS:         97
cpu0_STLB LOAD      ACCESS:       3832  HIT:       3742  MISS:         90
cpu0_STLB RFO       ACCESS:        402  HIT:        395  MISS:          7
cpu0_STLB PREFETCH  ACCESS:          0  HIT:          0  MISS:          0
cpu0_STLB WRITEBACK ACCESS:          0  HIT:          0  MISS:          0
cpu0_L1D TOTAL     ACCESS:     959119  HIT:     935528  MISS:      23591
cpu0_L1D LOAD      ACCESS:     598749  HIT:     582456  MISS:      16293
cpu0_L1D RFO       ACCESS:     360273  HIT:     352992  MISS:       7281
cpu0_L1D PREFETCH  ACCESS:          0  HIT:          0  MISS:          0
cpu0_L1D WRITEBACK ACCESS:          0  HIT:          0  MISS:          0
cpu0_L2C TOTAL     ACCESS:      44241  HIT:      35391  MISS:       8850
cpu0_L2C LOAD      ACCESS:      27019  HIT:      20110  MISS:       6909
cpu0_L2C RFO       ACCESS:       7281  HIT:       5342  MISS:       1939
cpu0_L2C PREFETCH  ACCESS:          0  HIT:          0  MISS:          0
cpu0_L2C WRITEBACK ACCESS:       9924  HIT:       9924  MISS:          0
LLC TOTAL     ACCESS:      13103  HIT:        439  MISS:      12664
LLC LOAD      ACCESS:       6909  HIT:        232  MISS:       6677
LLC RFO       ACCESS:       1939  HIT:        102  MISS:       1837
LLC PREFETCH  ACCESS:          0  HIT:          0  MISS:          0
LLC WRITEBACK ACCESS:       4253  HIT:        105  MISS:       4148
Heartbeat CPU 0 instructions: 56000001 cycles: 20879027 heartbeat IPC: 0.749566 cumulative IPC: 0.75492 (Simulation time: 0 hr 23 min 8 sec) 

Region of Interest Statistics
cpu0_DTLB TOTAL     ACCESS:    1244495  HIT:    1236663  MISS:       7832
cpu0_DTLB LOAD      ACCESS:     924966  HIT:     917836  MISS:       7130
cpu0_DTLB RFO       ACCESS:     319529  HIT:     318827  MISS:        702
cpu0_DTLB PREFETCH  ACCESS:          0  HIT:          0  MISS:          0
cpu0_DTLB WRITEBACK ACCESS:          0  HIT:          0  MISS:          0
cpu0_ITLB TOTAL     ACCESS:     578660  HIT:     578621  MISS:         39
cpu0_ITLB LOAD      ACCESS:     578660  HIT:     578621  MISS:         39
cpu0_ITLB RFO       ACCESS:          0  HIT:          0  MISS:          0
cpu0_ITLB PREFETCH  ACCESS:          0  HIT:          0  MISS:          0
cpu0_ITLB WRITEBACK ACCESS:          0  HIT:          0  MISS:          0
cpu0_L1I TOTAL     ACCESS:     340203  HIT:     323601  MISS:      16602
cpu0_L1I LOAD      ACCESS:     340203  HIT:     323601  MISS:      16602
cpu0_L1I RFO       ACCESS:          0  HIT:          0  MISS:          0
cpu0_L1I PREFETCH  ACCESS:          0  HIT:          0  MISS:          0
cpu0_L1I WRITEBACK ACCESS:          0  HIT:          0  MISS:          0
cpu0_STLB TOTAL     ACCESS:       7871  HIT:       7720  MISS:        151
cpu0_STLB LOAD      ACCESS:       7169  HIT:       7027  MISS:        142
cpu0_STLB RFO       ACCESS:        702  HIT:        693  MISS:          9
cpu0_STLB PREFETCH  ACCESS:          0  HIT:          0  MISS:          0
cpu0_STLB WRITEBACK ACCESS:          0  HIT:          0  MISS:          0
cpu0_L1D TOTAL     ACCESS:    1437987  HIT:    1402437  MISS:      35550
cpu0_L1D LOAD      ACCESS:     903434  HIT:     878076  MISS:      25358
cpu0_L1D RFO       ACCESS:     534402  HIT:     524238  MISS:      10164
cpu0_L1D PREFETCH  ACCESS:          0  HIT:          0  MISS:          0
cpu0_L1D WRITEBACK ACCESS:          0  HIT:          0  MISS:          0
cpu0_L2C TOTAL     ACCESS:      66376  HIT:      53698  MISS:      12678
cpu0_L2C LOAD      ACCESS:      41960  HIT:      31911  MISS:      10049
cpu0_L2C RFO       ACCESS:      10164  HIT:       7538  MISS:       2626
cpu0_L2C PREFETCH  ACCESS:          0  HIT:          0  MISS:          0
cpu0_L2C WRITEBACK ACCESS:      14224  HIT:      14223  MISS:          1
LLC TOTAL     ACCESS:      18514  HIT:        642  MISS:      17872
LLC LOAD      ACCESS:      10049  HIT:        315  MISS:       9734
LLC RFO       ACCESS:       2626  HIT:        155  MISS:       2471
LLC PREFETCH  ACCESS:          0  HIT:          0  MISS:          0
LLC WRITEBACK ACCESS:       5837  HIT:        172  MISS:       5665
Heartbeat CPU 0 instructions: 58000003 cycles: 23606999 heartbeat IPC: 0.733146 cumulative IPC: 0.749356 (Simulation time: 0 hr 24 min 16 sec) 

Region of Interest Statistics
cpu0_DTLB TOTAL     ACCESS:    1673886  HIT:    1663840  MISS:      10046
cpu0_DTLB LOAD      ACCESS:    1231143  HIT:    1221971  MISS:       9172
cpu0_DTLB RFO       ACCESS:     442743  HIT:     441869  MISS:        874
cpu0_DTLB PREFETCH  ACCESS:          0  HIT:          0  MISS:          0
cpu0_DTLB WRITEBACK ACCESS:          0  HIT:          0  MISS:          0
cpu0_ITLB TOTAL     ACCESS:     765881  HIT:     765822  MISS:         59
cpu0_ITLB LOAD      ACCESS:     765881  HIT:     765822  MISS:         59
cpu0_ITLB RFO       ACCESS:          0  HIT:          0  MISS:          0
cpu0_ITLB PREFETCH  ACCESS:          0  HIT:          0  MISS:          0
cpu0_ITLB WRITEBACK ACCESS:          0  HIT:          0  MISS:          0
cpu0_L1I TOTAL     ACCESS:     484376  HIT:     461238  MISS:      23138
cpu0_L1I LOAD      ACCESS:     484376  HIT:     461238  MISS:      23138
cpu0_L1I RFO       ACCESS:          0  HIT:          0  MISS:          0
cpu0_L1I PREFETCH  ACCESS:          0  HIT:          0  MISS:          0
cpu0_L1I WRITEBACK ACCESS:          0  HIT:          0  MISS:          0
cpu0_STLB TOTAL     ACCESS:      10105  HIT:       9851  MISS:        254
cpu0_STLB LOAD      ACCESS:       9231  HIT:       8988  MISS:        243
cpu0_STLB RFO       ACCESS:        874  HIT:        863  MISS:         11
cpu0_STLB PREFETCH  ACCESS:          0  HIT:          0  MISS:          0
cpu0_STLB WRITEBACK ACCESS:          0  HIT:          0  MISS:          0
cpu0_L1D TOTAL     ACCESS:    1950620  HIT:    1903165  MISS:      47455
cpu0_L1D LOAD      ACCESS:    1205939  HIT:    1172286  MISS:      33653
cpu0_L1D RFO       ACCESS:     744427  HIT:     730664  MISS:      13763
cpu0_L1D PREFETCH  ACCESS:          0  HIT:          0  MISS:          0
cpu0_L1D WRITEBACK ACCESS:          0  HIT:          0  MISS:          0
cpu0_L2C TOTAL     ACCESS:      90016  HIT:      73236  MISS:      16780
cpu0_L2C LOAD      ACCESS:      56791  HIT:      43324  MISS:      13467
cpu0_L2C RFO       ACCESS:      13763  HIT:      10453  MISS:       3310
cpu0_L2C PREFETCH  ACCESS:          0  HIT:          0  MISS:          0
cpu0_L2C WRITEBACK ACCESS:      19423  HIT:      19422  MISS:          1
LLC TOTAL     ACCESS:      24212  HIT:       1260  MISS:      22952
LLC LOAD      ACCESS:      13467  HIT:        639  MISS:      12828
LLC RFO       ACCESS:       3310  HIT:        330  MISS:       2980
LLC PREFETCH  ACCESS:          0  HIT:          0  MISS:          0
LLC WRITEBACK ACCESS:       7433  HIT:        291  MISS:       7142
Heartbeat CPU 0 instructions: 60000000 cycles: 26099852 heartbeat IPC: 0.802292 cumulative IPC: 0.759377 (Simulation time: 0 hr 25 min 18 sec) 

Region of Interest Statistics
cpu0_DTLB TOTAL     ACCESS:    2095102  HIT:    2082252  MISS:      12850
cpu0_DTLB LOAD      ACCESS:    1547040  HIT:    1535276  MISS:      11764
cpu0_DTLB RFO       ACCESS:     548062  HIT:     546976  MISS:       1086
cpu0_DTLB PREFETCH  ACCESS:          0  HIT:          0  MISS:          0
cpu0_DTLB WRITEBACK ACCESS:          0  HIT:          0  MISS:          0
cpu0_ITLB TOTAL     ACCESS:     960082  HIT:     960012  MISS:         70
cpu0_ITLB LOAD      ACCESS:     960082  HIT:     960012  MISS:         70
cpu0_ITLB RFO       ACCESS:          0  HIT:          0  MISS:          0
cpu0_ITLB PREFETCH  ACCESS:          0  HIT:          0  MISS:          0
cpu0_ITLB WRITEBACK ACCESS:          0  HIT:          0  MISS:          0
cpu0_L1I TOTAL     ACCESS:     587094  HIT:     557671  MISS:      29423
cpu0_L1I LOAD      ACCESS:     587094  HIT:     557671  MISS:      29423
cpu0_L1I RFO       ACCESS:          0  HIT:          0  MISS:          0
cpu0_L1I PREFETCH  ACCESS:          0  HIT:          0  MISS:          0
cpu0_L1I WRITEBACK ACCESS:          0  HIT:          0  MISS:          0
cpu0_STLB TOTAL     ACCESS:      12920  HIT:      12614  MISS:        306
cpu0_STLB LOAD      ACCESS:      11834  HIT:      11541  MISS:        293
cpu0_STLB RFO       ACCESS:       1086  HIT:       1073  MISS:         13
cpu0_STLB PREFETCH  ACCESS:          0  HIT:          0  MISS:          0
cpu0_STLB WRITEBACK ACCESS:          0  HIT:          0  MISS:          0
cpu0_L1D TOTAL     ACCESS:    2430294  HIT:    2369538  MISS:      60756
cpu0_L1D LOAD      ACCESS:    1514352  HIT:    1471535  MISS:      42817
cpu0_L1D RFO       ACCESS:     915636  HIT:     897752  MISS:      17884
cpu0_L1D PREFETCH  ACCESS:          0  HIT:          0  MISS:          0
cpu0_L1D WRITEBACK ACCESS:          0  HIT:          0  MISS:          0
cpu0_L2C TOTAL     ACCESS:     115520  HIT:      95642  MISS:      19878
cpu0_L2C LOAD      ACCESS:      72238  HIT:      56597  MISS:      15641
cpu0_L2C RFO       ACCESS:      17884  HIT:      13653  MISS:       4231
cpu0_L2C PREFETCH  ACCESS:          0  HIT:          0  MISS:          0
cpu0_L2C WRITEBACK ACCESS:      25343  HIT:      25341  MISS:          2
LLC TOTAL     ACCESS:      28793  HIT:       1649  MISS:      27144
LLC LOAD      ACCESS:      15641  HIT:        829  MISS:      14812
LLC RFO       ACCESS:       4231  HIT:        416  MISS:       3815
LLC PREFETCH  ACCESS:          0  HIT:          0  MISS:          0
LLC WRITEBACK ACCESS:       8917  HIT:        404  MISS:       8513
Heartbeat CPU 0 instructions: 62000000 cycles: 28698082 heartbeat IPC: 0.769755 cumulative IPC: 0.761087 (Simulation time: 0 hr 26 min 23 sec) 

Region of Interest Statistics
cpu0_DTLB TOTAL     ACCESS:    2507734  HIT:    2492659  MISS:      15075
cpu0_DTLB LOAD      ACCESS:    1851878  HIT:    1838093  MISS:      13785
cpu0_DTLB RFO       ACCESS:     655856  HIT:     654566  MISS:       1290
cpu0_DTLB PREFETCH  ACCESS:          0  HIT:          0  MISS:          0
cpu0_DTLB WRITEBACK ACCESS:          0  HIT:          0  MISS:          0
cpu0_ITLB TOTAL     ACCESS:    1153259  HIT:    1153181  MISS:         78
cpu0_ITLB LOAD      ACCESS:    1153259  HIT:    1153181  MISS:         78
cpu0_ITLB RFO       ACCESS:          0  HIT:          0  MISS:          0
cpu0_ITLB PREFETCH  ACCESS:          0  HIT:          0  MISS:          0
cpu0_ITLB WRITEBACK ACCESS:          0  HIT:          0  MISS:          0
cpu0_L1I TOTAL     ACCESS:     704529  HIT:     668854  MISS:      35675
cpu0_L1I LOAD      ACCESS:     704529  HIT:     668854  MISS:      35675
cpu0_L1I RFO       ACCESS:          0  HIT:          0  MISS:          0
cpu0_L1I PREFETCH  ACCESS:          0  HIT:          0  MISS:          0
cpu0_L1I WRITEBACK ACCESS:          0  HIT:          0  MISS:          0
cpu0_STLB TOTAL     ACCESS:      15153  HIT:      14776  MISS:        377
cpu0_STLB LOAD      ACCESS:      13863  HIT:      13500  MISS:        363
cpu0_STLB RFO       ACCESS:       1290  HIT:       1276  MISS:         14
cpu0_STLB PREFETCH  ACCESS:          0  HIT:          0  MISS:          0
cpu0_STLB WRITEBACK ACCESS:          0  HIT:          0  MISS:          0
cpu0_L1D TOTAL     ACCESS:    2908620  HIT:    2837394  MISS:      71226
cpu0_L1D LOAD      ACCESS:    1810674  HIT:    1760929  MISS:      49745
cpu0_L1D RFO       ACCESS:    1097570  HIT:    1076158  MISS:      21412
cpu0_L1D PREFETCH  ACCESS:          0  HIT:          0  MISS:          0
cpu0_L1D WRITEBACK ACCESS:          0  HIT:          0  MISS:          0
cpu0_L2C TOTAL     ACCESS:     137661  HIT:     114049  MISS:      23612
cpu0_L2C LOAD      ACCESS:      85418  HIT:      66738  MISS:      18680
cpu0_L2C RFO       ACCESS:      21412  HIT:      16490  MISS:       4922
cpu0_L2C PREFETCH  ACCESS:          0  HIT:          0  MISS:          0
cpu0_L2C WRITEBACK ACCESS:      30762  HIT:      30758  MISS:          4
LLC TOTAL     ACCESS:      34504  HIT:       2149  MISS:      32355
LLC LOAD      ACCESS:      18680  HIT:       1092  MISS:      17588
LLC RFO       ACCESS:       4922  HIT:        600  MISS:       4322
LLC PREFETCH  ACCESS:          0  HIT:          0  MISS:          0
LLC WRITEBACK ACCESS:      10896  HIT:        457  MISS:      10439
Heartbeat CPU 0 instructions: 64000003 cycles: 31515023 heartbeat IPC: 0.709991 cumulative IPC: 0.753342 (Simulation time: 0 hr 27 min 15 sec) 

Region of Interest Statistics
cpu0_DTLB TOTAL     ACCESS:    2918096  HIT:    2899899  MISS:      18197
cpu0_DTLB LOAD      ACCESS:    2157372  HIT:    2140650  MISS:      16722
cpu0_DTLB RFO       ACCESS:     760724  HIT:     759249  MISS:       1475
cpu0_DTLB PREFETCH  ACCESS:          0  HIT:          0  MISS:          0
cpu0_DTLB WRITEBACK ACCESS:          0  HIT:          0  MISS:          0
cpu0_ITLB TOTAL     ACCESS:    1346235  HIT:    1346147  MISS:         88
cpu0_ITLB LOAD      ACCESS:    1346235  HIT:    1346147  MISS:         88
cpu0_ITLB RFO       ACCESS:          0  HIT:          0  MISS:          0
cpu0_ITLB PREFETCH  ACCESS:          0  HIT:          0  MISS:          0
cpu0_ITLB WRITEBACK ACCESS:          0  HIT:          0  MISS:          0
cpu0_L1I TOTAL     ACCESS:     823842  HIT:     783140  MISS:      40702
cpu0_L1I LOAD      ACCESS:     823842  HIT:     783140  MISS:      40702
cpu0_L1I RFO       ACCESS:          0  HIT:          0  MISS:          0
cpu0_L1I PREFETCH  ACCESS:          0  HIT:          0  MISS:          0
cpu0_L1I WRITEBACK ACCESS:          0  HIT:          0  MISS:          0
cpu0_STLB TOTAL     ACCESS:      18285  HIT:      17820  MISS:        465
cpu0_STLB LOAD      ACCESS:      16810  HIT:      16365  MISS:        445
cpu0_STLB RFO       ACCESS:       1475  HIT:       1455  MISS:         20
cpu0_STLB PREFETCH  ACCESS:          0  HIT:          0  MISS:          0
cpu0_STLB WRITEBACK ACCESS:          0  HIT:          0  MISS:          0
cpu0_L1D TOTAL     ACCESS:    3388154  HIT:    3304942  MISS:      83212
cpu0_L1D LOAD      ACCESS:    2110150  HIT:    2051367  MISS:      58783
cpu0_L1D RFO       ACCESS:    1277540  HIT:    1253191  MISS:      24349
cpu0_L1D PREFETCH  ACCESS:          0  HIT:          0  MISS:          0
cpu0_L1D WRITEBACK ACCESS:          0  HIT:          0  MISS:          0
cpu0_L2C TOTAL     ACCESS:     158958  HIT:     130417  MISS:      28541
cpu0_L2C LOAD      ACCESS:      99483  HIT:      76570  MISS:      22913
cpu0_L2C RFO       ACCESS:      24349  HIT:      18735  MISS:       5614
cpu0_L2C PREFETCH  ACCESS:          0  HIT:          0  MISS:          0
cpu0_L2C WRITEBACK ACCESS:      35046  HIT:      35041  MISS:          5
LLC TOTAL     ACCESS:      41556  HIT:       2427  MISS:      39129
LLC LOAD      ACCESS:      22913  HIT:       1196  MISS:      21717
LLC RFO       ACCESS:       5614  HIT:        708  MISS:       4906
LLC PREFETCH  ACCESS:          0  HIT:          0  MISS:          0
LLC WRITEBACK ACCESS:      13020  HIT:        523  MISS:      12497
Heartbeat CPU 0 instructions: 66000000 cycles: 34118484 heartbeat IPC: 0.768207 cumulative IPC: 0.755169 (Simulation time: 0 hr 27 min 56 sec) 

Region of Interest Statistics
cpu0_DTLB TOTAL     ACCESS:    3353113  HIT:    3333142  MISS:      19971
cpu0_DTLB LOAD      ACCESS:    2456679  HIT:    2438366  MISS:      18313
cpu0_DTLB RFO       ACCESS:     896434  HIT:     894776  MISS:       1658
cpu0_DTLB PREFETCH  ACCESS:          0  HIT:          0  MISS:          0
cpu0_DTLB WRITEBACK ACCESS:          0  HIT:          0  MISS:          0
cpu0_ITLB TOTAL     ACCESS:    1525429  HIT:    1525335  MISS:         94
cpu0_ITLB LOAD      ACCESS:    1525429  HIT:    1525335  MISS:         94
cpu0_ITLB RFO       ACCESS:          0  HIT:          0  MISS:          0
cpu0_ITLB PREFETCH  ACCESS:          0  HIT:          0  MISS:          0
cpu0_ITLB WRITEBACK ACCESS:          0  HIT:          0  MISS:          0
cpu0_L1I TOTAL     ACCESS:    1029702  HIT:     982122  MISS:      47580
cpu0_L1I LOAD      ACCESS:    1029702  HIT:     982122  MISS:      47580
cpu0_L1I RFO       ACCESS:          0  HIT:          0  MISS:          0
cpu0_L1I PREFETCH  ACCESS:          0  HIT:          0  MISS:          0
cpu0_L1I WRITEBACK ACCESS:          0  HIT:          0  MISS:          0
cpu0_STLB TOTAL     ACCESS:      20065  HIT:      19452  MISS:        613
cpu0_STLB LOAD      ACCESS:      18407  HIT:      17821  MISS:        586
cpu0_STLB RFO       ACCESS:       1658  HIT:       1631  MISS:         27
cpu0_STLB PREFETCH  ACCESS:          0  HIT:          0  MISS:          0
cpu0_STLB WRITEBACK ACCESS:          0  HIT:          0  MISS:          0
cpu0_L1D TOTAL     ACCESS:    3935031  HIT:    3845098  MISS:      89933
cpu0_L1D LOAD      ACCESS:    2408637  HIT:    2345559  MISS:      63078
cpu0_L1D RFO       ACCESS:    1525782  HIT:    1499016  MISS:      26766
cpu0_L1D PREFETCH  ACCESS:          0  HIT:          0  MISS:          0
cpu0_L1D WRITEBACK ACCESS:          0  HIT:          0  MISS:          0
cpu0_L2C TOTAL     ACCESS:     175483  HIT:     144528  MISS:      30955
cpu0_L2C LOAD      ACCESS:     110656  HIT:      85750  MISS:      24906
cpu0_L2C RFO       ACCESS:      26766  HIT:      20731  MISS:       6035
cpu0_L2C PREFETCH  ACCESS:          0  HIT:          0  MISS:          0
cpu0_L2C WRITEBACK ACCESS:      37972  HIT:      37967  MISS:          5
LLC TOTAL     ACCESS:      44846  HIT:       2600  MISS:      42246
LLC LOAD      ACCESS:      24906  HIT:       1240  MISS:      23666
LLC RFO       ACCESS:       6035  HIT:        771  MISS:       5264
LLC PREFETCH  ACCESS:          0  HIT:          0  MISS:          0
LLC WRITEBACK ACCESS:      13896  HIT:        589  MISS:      13307
Heartbeat CPU 0 instructions: 68000002 cycles: 36588061 heartbeat IPC: 0.809856 cumulative IPC: 0.760878 (Simulation time: 0 hr 28 min 33 sec) 

Region of Interest Statistics
cpu0_DTLB TOTAL     ACCESS:    3807416  HIT:    3786366  MISS:      21050
cpu0_DTLB LOAD      ACCESS:    2753571  HIT:    2734281  MISS:      19290
cpu0_DTLB RFO       ACCESS:    1053845  HIT:    1052085  MISS:       1760
cpu0_DTLB PREFETCH  ACCESS:          0  HIT:          0  MISS:          0
cpu0_DTLB WRITEBACK ACCESS:          0  HIT:          0  MISS:          0
cpu0_ITLB TOTAL     ACCESS:    1698008  HIT:    1697914  MISS:         94
cpu0_ITLB LOAD      ACCESS:    1698008  HIT:    1697914  MISS:         94
cpu0_ITLB RFO       ACCESS:          0  HIT:          0  MISS:          0
cpu0_ITLB PREFETCH  ACCESS:          0  HIT:          0  MISS:          0
cpu0_ITLB WRITEBACK ACCESS:          0  HIT:          0  MISS:          0
cpu0_L1I TOTAL     ACCESS:    1276466  HIT:    1222280  MISS:      54186
cpu0_L1I LOAD      ACCESS:    1276466  HIT:    1222280  MISS:      54186
cpu0_L1I RFO       ACCESS:          0  HIT:          0  MISS:          0
cpu0_L1I PREFETCH  ACCESS:          0  HIT:          0  MISS:          0
cpu0_L1I WRITEBACK ACCESS:          0  HIT:          0  MISS:          0
cpu0_STLB TOTAL     ACCESS:      21144  HIT:      20297  MISS:        847
cpu0_STLB LOAD      ACCESS:      19384  HIT:      18567  MISS:        817
cpu0_STLB RFO       ACCESS:       1760  HIT:       1730  MISS:         30
cpu0_STLB PREFETCH  ACCESS:          0  HIT:          0  MISS:          0
cpu0_STLB WRITEBACK ACCESS:          0  HIT:          0  MISS:          0
cpu0_L1D TOTAL     ACCESS:    4526371  HIT:    4433813  MISS:      92558
cpu0_L1D LOAD      ACCESS:    2705657  HIT:    2640987  MISS:      64670
cpu0_L1D RFO       ACCESS:    1819868  HIT:    1792070  MISS:      27798
cpu0_L1D PREFETCH  ACCESS:          0  HIT:          0  MISS:          0
cpu0_L1D WRITEBACK ACCESS:          0  HIT:          0  MISS:          0
cpu0_L2C TOTAL     ACCESS:     186581  HIT:     154591  MISS:      31990
cpu0_L2C LOAD      ACCESS:     118854  HIT:      93003  MISS:      25851
cpu0_L2C RFO       ACCESS:      27798  HIT:      21674  MISS:       6124
cpu0_L2C PREFETCH  ACCESS:          0  HIT:          0  MISS:          0
cpu0_L2C WRITEBACK ACCESS:      39839  HIT:      39834  MISS:          5
LLC TOTAL     ACCESS:      46446  HIT:       2613  MISS:      43833
LLC LOAD      ACCESS:      25851  HIT:       1244  MISS:      24607
LLC RFO       ACCESS:       6124  HIT:        772  MISS:       5352
LLC PREFETCH  ACCESS:          0  HIT:          0  MISS:          0
LLC WRITEBACK ACCESS:      14461  HIT:        597  MISS:      13864
Heartbeat CPU 0 instructions: 70000003 cycles: 39255749 heartbeat IPC: 0.749713 cumulative IPC: 0.759746 (Simulation time: 0 hr 29 min 11 sec) 

Region of Interest Statistics
cpu0_DTLB TOTAL     ACCESS:    4256230  HIT:    4233607  MISS:      22623
cpu0_DTLB LOAD      ACCESS:    3057952  HIT:    3037360  MISS:      20592
cpu0_DTLB RFO       ACCESS:    1198278  HIT:    1196247  MISS:       2031
cpu0_DTLB PREFETCH  ACCESS:          0  HIT:          0  MISS:          0
cpu0_DTLB WRITEBACK ACCESS:          0  HIT:          0  MISS:          0
cpu0_ITLB TOTAL     ACCESS:    1876148  HIT:    1876049  MISS:         99
cpu0_ITLB LOAD      ACCESS:    1876148  HIT:    1876049  MISS:         99
cpu0_ITLB RFO       ACCESS:          0  HIT:          0  MISS:          0
cpu0_ITLB PREFETCH  ACCESS:          0  HIT:          0  MISS:          0
cpu0_ITLB WRITEBACK ACCESS:          0  HIT:          0  MISS:          0
cpu0_L1I TOTAL     ACCESS:    1479518  HIT:    1417648  MISS:      61870
cpu0_L1I LOAD      ACCESS:    1479518  HIT:    1417648  MISS:      61870
cpu0_L1I RFO       ACCESS:          0  HIT:          0  MISS:          0
cpu0_L1I PREFETCH  ACCESS:          0  HIT:          0  MISS:          0
cpu0_L1I WRITEBACK ACCESS:          0  HIT:          0  MISS:          0
cpu0_STLB TOTAL     ACCESS:      22722  HIT:      21726  MISS:        996
cpu0_STLB LOAD      ACCESS:      20691  HIT:      19736  MISS:        955
cpu0_STLB RFO       ACCESS:       2031  HIT:       1990  MISS:         41
cpu0_STLB PREFETCH  ACCESS:          0  HIT:          0  MISS:          0
cpu0_STLB WRITEBACK ACCESS:          0  HIT:          0  MISS:          0
cpu0_L1D TOTAL     ACCESS:    5085633  HIT:    4985041  MISS:     100592
cpu0_L1D LOAD      ACCESS:    3008240  HIT:    2938383  MISS:      69857
cpu0_L1D RFO       ACCESS:    2076398  HIT:    2045766  MISS:      30632
cpu0_L1D PREFETCH  ACCESS:          0  HIT:          0  MISS:          0
cpu0_L1D WRITEBACK ACCESS:          0  HIT:          0  MISS:          0
cpu0_L2C TOTAL     ACCESS:     206810  HIT:     171655  MISS:      35155
cpu0_L2C LOAD      ACCESS:     131725  HIT:     103345  MISS:      28380
cpu0_L2C RFO       ACCESS:      30632  HIT:      23878  MISS:       6754
cpu0_L2C PREFETCH  ACCESS:          0  HIT:          0  MISS:          0
cpu0_L2C WRITEBACK ACCESS:      44350  HIT:      44342  MISS:          8
LLC TOTAL     ACCESS:      50813  HIT:       2837  MISS:      47976
LLC LOAD      ACCESS:      28380  HIT:       1398  MISS:      26982
LLC RFO       ACCESS:       6754  HIT:        811  MISS:       5943
LLC PREFETCH  ACCESS:          0  HIT:          0  MISS:          0
LLC WRITEBACK ACCESS:      15666  HIT:        628  MISS:      15038
Heartbeat CPU 0 instructions: 72000003 cycles: 41929626 heartbeat IPC: 0.747978 cumulative IPC: 0.758661 (Simulation time: 0 hr 29 min 56 sec) 

Region of Interest Statistics
cpu0_DTLB TOTAL     ACCESS:    4693629  HIT:    4668829  MISS:      24800
cpu0_DTLB LOAD      ACCESS:    3360495  HIT:    3337950  MISS:      22545
cpu0_DTLB RFO       ACCESS:    1333134  HIT:    1330879  MISS:       2255
cpu0_DTLB PREFETCH  ACCESS:          0  HIT:          0  MISS:          0
cpu0_DTLB WRITEBACK ACCESS:          0  HIT:          0  MISS:          0
cpu0_ITLB TOTAL     ACCESS:    2058312  HIT:    2058211  MISS:        101
cpu0_ITLB LOAD      ACCESS:    2058312  HIT:    2058211  MISS:        101
cpu0_ITLB RFO       ACCESS:          0  HIT:          0  MISS:          0
cpu0_ITLB PREFETCH  ACCESS:          0  HIT:          0  MISS:          0
cpu0_ITLB WRITEBACK ACCESS:          0  HIT:          0  MISS:          0
cpu0_L1I TOTAL     ACCESS:    1674057  HIT:    1605544  MISS:      68513
cpu0_L1I LOAD      ACCESS:    1674057  HIT:    1605544  MISS:      68513
cpu0_L1I RFO       ACCESS:          0  HIT:          0  MISS:          0
cpu0_L1I PREFETCH  ACCESS:          0  HIT:          0  MISS:          0
cpu0_L1I WRITEBACK ACCESS:          0  HIT:          0  MISS:          0
cpu0_STLB TOTAL     ACCESS:      24901  HIT:      23773  MISS:       1128
cpu0_STLB LOAD      ACCESS:      22646  HIT:      21569  MISS:       1077
cpu0_STLB RFO       ACCESS:       2255  HIT:       2204  MISS:         51
cpu0_STLB PREFETCH  ACCESS:          0  HIT:          0  MISS:          0
cpu0_STLB WRITEBACK ACCESS:          0  HIT:          0  MISS:          0
cpu0_L1D TOTAL     ACCESS:    5628681  HIT:    5520854  MISS:     107827
cpu0_L1D LOAD      ACCESS:    3308688  HIT:    3233992  MISS:      74696
cpu0_L1D RFO       ACCESS:    2318866  HIT:    2285845  MISS:      33021
cpu0_L1D PREFETCH  ACCESS:          0  HIT:          0  MISS:          0
cpu0_L1D WRITEBACK ACCESS:          0  HIT:          0  MISS:          0
cpu0_L2C TOTAL     ACCESS:     223951  HIT:     185877  MISS:      38074
cpu0_L2C LOAD      ACCESS:     143207  HIT:     112436  MISS:      30771
cpu0_L2C RFO       ACCESS:      33021  HIT:      25741  MISS:       7280
cpu0_L2C PREFETCH  ACCESS:          0  HIT:          0  MISS:          0
cpu0_L2C WRITEBACK ACCESS:      47613  HIT:      47604  MISS:          9
LLC TOTAL     ACCESS:      55155  HIT:       2980  MISS:      52175
LLC LOAD      ACCESS:      30771  HIT:       1462  MISS:      29309
LLC RFO       ACCESS:       7280  HIT:        846  MISS:       6434
LLC PREFETCH  ACCESS:          0  HIT:          0  MISS:          0
LLC WRITEBACK ACCESS:      17090  HIT:        672  MISS:      16418
Heartbeat CPU 0 instructions: 74000002 cycles: 44616184 heartbeat IPC: 0.744447 cumulative IPC: 0.757456 (Simulation time: 0 hr 30 min 43 sec) 

Region of Interest Statistics
cpu0_DTLB TOTAL     ACCESS:    5145972  HIT:    5119136  MISS:      26836
cpu0_DTLB LOAD      ACCESS:    3668253  HIT:    3643901  MISS:      24352
cpu0_DTLB RFO       ACCESS:    1477719  HIT:    1475235  MISS:       2484
cpu0_DTLB PREFETCH  ACCESS:          0  HIT:          0  MISS:          0
cpu0_DTLB WRITEBACK ACCESS:          0  HIT:          0  MISS:          0
cpu0_ITLB TOTAL     ACCESS:    2238950  HIT:    2238840  MISS:        110
cpu0_ITLB LOAD      ACCESS:    2238950  HIT:    2238840  MISS:        110
cpu0_ITLB RFO       ACCESS:          0  HIT:          0  MISS:          0
cpu0_ITLB PREFETCH  ACCESS:          0  HIT:          0  MISS:          0
cpu0_ITLB WRITEBACK ACCESS:          0  HIT:          0  MISS:          0
cpu0_L1I TOTAL     ACCESS:    1873883  HIT:    1797887  MISS:      75996
cpu0_L1I LOAD      ACCESS:    1873883  HIT:    1797887  MISS:      75996
cpu0_L1I RFO       ACCESS:          0  HIT:          0  MISS:          0
cpu0_L1I PREFETCH  ACCESS:          0  HIT:          0  MISS:          0
cpu0_L1I WRITEBACK ACCESS:          0  HIT:          0  MISS:          0
cpu0_STLB TOTAL     ACCESS:      26946  HIT:      25648  MISS:       1298
cpu0_STLB LOAD      ACCESS:      24462  HIT:      23224  MISS:       1238
cpu0_STLB RFO       ACCESS:       2484  HIT:       2424  MISS:         60
cpu0_STLB PREFETCH  ACCESS:          0  HIT:          0  MISS:          0
cpu0_STLB WRITEBACK ACCESS:          0  HIT:          0  MISS:          0
cpu0_L1D TOTAL     ACCESS:    6190470  HIT:    6073931  MISS:     116539
cpu0_L1D LOAD      ACCESS:    3615308  HIT:    3535002  MISS:      80306
cpu0_L1D RFO       ACCESS:    2573865  HIT:    2537757  MISS:      36108
cpu0_L1D PREFETCH  ACCESS:          0  HIT:          0  MISS:          0
cpu0_L1D WRITEBACK ACCESS:          0  HIT:          0  MISS:          0
cpu0_L2C TOTAL     ACCESS:     244318  HIT:     203107  MISS:      41211
cpu0_L2C LOAD      ACCESS:     156300  HIT:     123076  MISS:      33224
cpu0_L2C RFO       ACCESS:      36108  HIT:      28146  MISS:       7962
cpu0_L2C PREFETCH  ACCESS:          0  HIT:          0  MISS:          0
cpu0_L2C WRITEBACK ACCESS:      51785  HIT:      51774  MISS:         11
LLC TOTAL     ACCESS:      59903  HIT:       3270  MISS:      56633
LLC LOAD      ACCESS:      33224  HIT:       1603  MISS:      31621
LLC RFO       ACCESS:       7962  HIT:        922  MISS:       7040
LLC PREFETCH  ACCESS:          0  HIT:          0  MISS:          0
LLC WRITEBACK ACCESS:      18703  HIT:        745  MISS:      17958
Heartbeat CPU 0 instructions: 76000002 cycles: 47132367 heartbeat IPC: 0.794855 cumulative IPC: 0.760207 (Simulation time: 0 hr 31 min 27 sec) 

Region of Interest Statistics
cpu0_DTLB TOTAL     ACCESS:    5584621  HIT:    5555729  MISS:      28892
cpu0_DTLB LOAD      ACCESS:    3975409  HIT:    3949247  MISS:      26162
cpu0_DTLB RFO       ACCESS:    1609212  HIT:    1606482  MISS:       2730
cpu0_DTLB PREFETCH  ACCESS:          0  HIT:          0  MISS:          0
cpu0_DTLB WRITEBACK ACCESS:          0  HIT:          0  MISS:          0
cpu0_ITLB TOTAL     ACCESS:    2423877  HIT:    2423763  MISS:        114
cpu0_ITLB LOAD      ACCESS:    2423877  HIT:    2423763  MISS:        114
cpu0_ITLB RFO       ACCESS:          0  HIT:          0  MISS:          0
cpu0_ITLB PREFETCH  ACCESS:          0  HIT:          0  MISS:          0
cpu0_ITLB WRITEBACK ACCESS:          0  HIT:          0  MISS:          0
cpu0_L1I TOTAL     ACCESS:    2049585  HIT:    1966686  MISS:      82899
cpu0_L1I LOAD      ACCESS:    2049585  HIT:    1966686  MISS:      82899
cpu0_L1I RFO       ACCESS:          0  HIT:          0  MISS:          0
cpu0_L1I PREFETCH  ACCESS:          0  HIT:          0  MISS:          0
cpu0_L1I WRITEBACK ACCESS:          0  HIT:          0  MISS:          0
cpu0_STLB TOTAL     ACCESS:      29006  HIT:      27585  MISS:       1421
cpu0_STLB LOAD      ACCESS:      26276  HIT:      24922  MISS:       1354
cpu0_STLB RFO       ACCESS:       2730  HIT:       2663  MISS:         67
cpu0_STLB PREFETCH  ACCESS:          0  HIT:          0  MISS:          0
cpu0_STLB WRITEBACK ACCESS:          0  HIT:          0  MISS:          0
cpu0_L1D TOTAL     ACCESS:    6726583  HIT:    6602289  MISS:     124294
cpu0_L1D LOAD      ACCESS:    3919021  HIT:    3833922  MISS:      85099
cpu0_L1D RFO       ACCESS:    2806142  HIT:    2767081  MISS:      39061
cpu0_L1D PREFETCH  ACCESS:          0  HIT:          0  MISS:          0
cpu0_L1D WRITEBACK ACCESS:          0  HIT:          0  MISS:          0
cpu0_L2C TOTAL     ACCESS:     262991  HIT:     219652  MISS:      43339
cpu0_L2C LOAD      ACCESS:     167996  HIT:     133174  MISS:      34822
cpu0_L2C RFO       ACCESS:      39060  HIT:      30569  MISS:       8491
cpu0_L2C PREFETCH  ACCESS:          0  HIT:          0  MISS:          0
cpu0_L2C WRITEBACK ACCESS:      55801  HIT:      55790  MISS:         11
LLC TOTAL     ACCESS:      63088  HIT:       3485  MISS:      59603
LLC LOAD      ACCESS:      34822  HIT:       1658  MISS:      33164
LLC RFO       ACCESS:       8491  HIT:        996  MISS:       7495
LLC PREFETCH  ACCESS:          0  HIT:          0  MISS:          0
LLC WRITEBACK ACCESS:      19760  HIT:        831  MISS:      18929
Heartbeat CPU 0 instructions: 78000004 cycles: 49794536 heartbeat IPC: 0.751268 cumulative IPC: 0.759562 (Simulation time: 0 hr 32 min 18 sec) 

Region of Interest Statistics
cpu0_DTLB TOTAL     ACCESS:    6026729  HIT:    5995874  MISS:      30855
cpu0_DTLB LOAD      ACCESS:    4281545  HIT:    4253670  MISS:      27875
cpu0_DTLB RFO       ACCESS:    1745184  HIT:    1742204  MISS:       2980
cpu0_DTLB PREFETCH  ACCESS:          0  HIT:          0  MISS:          0
cpu0_DTLB WRITEBACK ACCESS:          0  HIT:          0  MISS:          0
cpu0_ITLB TOTAL     ACCESS:    2606004  HIT:    2605880  MISS:        124
cpu0_ITLB LOAD      ACCESS:    2606004  HIT:    2605880  MISS:        124
cpu0_ITLB RFO       ACCESS:          0  HIT:          0  MISS:          0
cpu0_ITLB PREFETCH  ACCESS:          0  HIT:          0  MISS:          0
cpu0_ITLB WRITEBACK ACCESS:          0  HIT:          0  MISS:          0
cpu0_L1I TOTAL     ACCESS:    2224926  HIT:    2134768  MISS:      90158
cpu0_L1I LOAD      ACCESS:    2224926  HIT:    2134768  MISS:      90158
cpu0_L1I RFO       ACCESS:          0  HIT:          0  MISS:          0
cpu0_L1I PREFETCH  ACCESS:          0  HIT:          0  MISS:          0
cpu0_L1I WRITEBACK ACCESS:          0  HIT:          0  MISS:          0
cpu0_STLB TOTAL     ACCESS:      30979  HIT:      29445  MISS:       1534
cpu0_STLB LOAD      ACCESS:      27999  HIT:      26539  MISS:       1460
cpu0_STLB RFO       ACCESS:       2980  HIT:       2906  MISS:         74
cpu0_STLB PREFETCH  ACCESS:          0  HIT:          0  MISS:          0
cpu0_STLB WRITEBACK ACCESS:          0  HIT:          0  MISS:          0
cpu0_L1D TOTAL     ACCESS:    7264606  HIT:    7131411  MISS:     133195
cpu0_L1D LOAD      ACCESS:    4219464  HIT:    4128579  MISS:      90885
cpu0_L1D RFO       ACCESS:    3043609  HIT:    3001445  MISS:      42164
cpu0_L1D PREFETCH  ACCESS:          0  HIT:          0  MISS:          0
cpu0_L1D WRITEBACK ACCESS:          0  HIT:          0  MISS:          0
cpu0_L2C TOTAL     ACCESS:     283680  HIT:     236854  MISS:      46826
cpu0_L2C LOAD      ACCESS:     181041  HIT:     143409  MISS:      37632
cpu0_L2C RFO       ACCESS:      42163  HIT:      32999  MISS:       9164
cpu0_L2C PREFETCH  ACCESS:          0  HIT:          0  MISS:          0
cpu0_L2C WRITEBACK ACCESS:      60330  HIT:      60317  MISS:         13
LLC TOTAL     ACCESS:      68151  HIT:       3695  MISS:      64456
LLC LOAD      ACCESS:      37632  HIT:       1777  MISS:      35855
LLC RFO       ACCESS:       9164  HIT:       1058  MISS:       8106
LLC PREFETCH  ACCESS:          0  HIT:          0  MISS:          0
LLC WRITEBACK ACCESS:      21338  HIT:        860  MISS:      20478
Heartbeat CPU 0 instructions: 80000002 cycles: 52412594 heartbeat IPC: 0.763924 cumulative IPC: 0.759851 (Simulation time: 0 hr 33 min 4 sec) 

Region of Interest Statistics
cpu0_DTLB TOTAL     ACCESS:    6462772  HIT:    6429624  MISS:      33148
cpu0_DTLB LOAD      ACCESS:    4583875  HIT:    4553911  MISS:      29964
cpu0_DTLB RFO       ACCESS:    1878897  HIT:    1875713  MISS:       3184
cpu0_DTLB PREFETCH  ACCESS:          0  HIT:          0  MISS:          0
cpu0_DTLB WRITEBACK ACCESS:          0  HIT:          0  MISS:          0
cpu0_ITLB TOTAL     ACCESS:    2790237  HIT:    2790108  MISS:        129
cpu0_ITLB LOAD      ACCESS:    2790237  HIT:    2790108  MISS:        129
cpu0_ITLB RFO       ACCESS:          0  HIT:          0  MISS:          0
cpu0_ITLB PREFETCH  ACCESS:          0  HIT:          0  MISS:          0
cpu0_ITLB WRITEBACK ACCESS:          0  HIT:          0  MISS:          0
cpu0_L1I TOTAL     ACCESS:    2407490  HIT:    2310635  MISS:      96855
cpu0_L1I LOAD      ACCESS:    2407490  HIT:    2310635  MISS:      96855
cpu0_L1I RFO       ACCESS:          0  HIT:          0  MISS:          0
cpu0_L1I PREFETCH  ACCESS:          0  HIT:          0  MISS:          0
cpu0_L1I WRITEBACK ACCESS:          0  HIT:          0  MISS:          0
cpu0_STLB TOTAL     ACCESS:      33277  HIT:      31623  MISS:       1654
cpu0_STLB LOAD      ACCESS:      30093  HIT:      28517  MISS:       1576
cpu0_STLB RFO       ACCESS:       3184  HIT:       3106  MISS:         78
cpu0_STLB PREFETCH  ACCESS:          0  HIT:          0  MISS:          0
cpu0_STLB WRITEBACK ACCESS:          0  HIT:          0  MISS:          0
cpu0_L1D TOTAL     ACCESS:    7806650  HIT:    7667118  MISS:     139532
cpu0_L1D LOAD      ACCESS:    4519737  HIT:    4424801  MISS:      94936
cpu0_L1D RFO       ACCESS:    3285260  HIT:    3240819  MISS:      44441
cpu0_L1D PREFETCH  ACCESS:          0  HIT:          0  MISS:          0
cpu0_L1D WRITEBACK ACCESS:          0  HIT:          0  MISS:          0
cpu0_L2C TOTAL     ACCESS:     299833  HIT:     250138  MISS:      49695
cpu0_L2C LOAD      ACCESS:     191789  HIT:     151707  MISS:      40082
cpu0_L2C RFO       ACCESS:      44440  HIT:      34857  MISS:       9583
cpu0_L2C PREFETCH  ACCESS:          0  HIT:          0  MISS:          0
cpu0_L2C WRITEBACK ACCESS:      63449  HIT:      63436  MISS:         13
LLC TOTAL     ACCESS:      72484  HIT:       4009  MISS:      68475
LLC LOAD      ACCESS:      40082  HIT:       1887  MISS:      38195
LLC RFO       ACCESS:       9583  HIT:       1198  MISS:       8385
LLC PREFETCH  ACCESS:          0  HIT:          0  MISS:          0
LLC WRITEBACK ACCESS:      22802  HIT:        924  MISS:      21878
Heartbeat CPU 0 instructions: 82000000 cycles: 55013504 heartbeat IPC: 0.768961 cumulative IPC: 0.760414 (Simulation time: 0 hr 33 min 51 sec) 

Region of Interest Statistics
cpu0_DTLB TOTAL     ACCESS:    6910426  HIT:    6875174  MISS:      35252
cpu0_DTLB LOAD      ACCESS:    4893514  HIT:    4861642  MISS:      31872
cpu0_DTLB RFO       ACCESS:    2016912  HIT:    2013532  MISS:       3380
cpu0_DTLB PREFETCH  ACCESS:          0  HIT:          0  MISS:          0
cpu0_DTLB WRITEBACK ACCESS:          0  HIT:          0  MISS:          0
cpu0_ITLB TOTAL     ACCESS:    2974174  HIT:    2974039  MISS:        135
cpu0_ITLB LOAD      ACCESS:    2974174  HIT:    2974039  MISS:        135
cpu0_ITLB RFO       ACCESS:          0  HIT:          0  MISS:          0
cpu0_ITLB PREFETCH  ACCESS:          0  HIT:          0  MISS:          0
cpu0_ITLB WRITEBACK ACCESS:          0  HIT:          0  MISS:          0
cpu0_L1I TOTAL     ACCESS:    2591128  HIT:    2486850  MISS:     104278
cpu0_L1I LOAD      ACCESS:    2591128  HIT:    2486850  MISS:     104278
cpu0_L1I RFO       ACCESS:          0  HIT:          0  MISS:          0
cpu0_L1I PREFETCH  ACCESS:          0  HIT:          0  MISS:          0
cpu0_L1I WRITEBACK ACCESS:          0  HIT:          0  MISS:          0
cpu0_STLB TOTAL     ACCESS:      35387  HIT:      33639  MISS:       1748
cpu0_STLB LOAD      ACCESS:      32007  HIT:      30340  MISS:       1667
cpu0_STLB RFO       ACCESS:       3380  HIT:       3299  MISS:         81
cpu0_STLB PREFETCH  ACCESS:          0  HIT:          0  MISS:          0
cpu0_STLB WRITEBACK ACCESS:          0  HIT:          0  MISS:          0
cpu0_L1D TOTAL     ACCESS:    8356526  HIT:    8208019  MISS:     148507
cpu0_L1D LOAD      ACCESS:    4826485  HIT:    4725531  MISS:     100954
cpu0_L1D RFO       ACCESS:    3528294  HIT:    3480907  MISS:      47387
cpu0_L1D PREFETCH  ACCESS:          0  HIT:          0  MISS:          0
cpu0_L1D WRITEBACK ACCESS:          0  HIT:          0  MISS:          0
cpu0_L2C TOTAL     ACCESS:     320598  HIT:     268367  MISS:      52231
cpu0_L2C LOAD      ACCESS:     205230  HIT:     163113  MISS:      42117
cpu0_L2C RFO       ACCESS:      47386  HIT:      37302  MISS:      10084
cpu0_L2C PREFETCH  ACCESS:          0  HIT:          0  MISS:          0
cpu0_L2C WRITEBACK ACCESS:      67816  HIT:      67803  MISS:         13
LLC TOTAL     ACCESS:      76058  HIT:       4375  MISS:      71683
LLC LOAD      ACCESS:      42117  HIT:       2070  MISS:      40047
LLC RFO       ACCESS:      10084  HIT:       1296  MISS:       8788
LLC PREFETCH  ACCESS:          0  HIT:          0  MISS:          0
LLC WRITEBACK ACCESS:      23840  HIT:       1009  MISS:      22831
Heartbeat CPU 0 instructions: 84000000 cycles: 57439929 heartbeat IPC: 0.824258 cumulative IPC: 0.763894 (Simulation time: 0 hr 34 min 37 sec) 

Region of Interest Statistics
cpu0_DTLB TOTAL     ACCESS:    7335969  HIT:    7297905  MISS:      38064
cpu0_DTLB LOAD      ACCESS:    5201585  HIT:    5167139  MISS:      34446
cpu0_DTLB RFO       ACCESS:    2134384  HIT:    2130766  MISS:       3618
cpu0_DTLB PREFETCH  ACCESS:          0  HIT:          0  MISS:          0
cpu0_DTLB WRITEBACK ACCESS:          0  HIT:          0  MISS:          0
cpu0_ITLB TOTAL     ACCESS:    3164362  HIT:    3164221  MISS:        141
cpu0_ITLB LOAD      ACCESS:    3164362  HIT:    3164221  MISS:        141
cpu0_ITLB RFO       ACCESS:          0  HIT:          0  MISS:          0
cpu0_ITLB PREFETCH  ACCESS:          0  HIT:          0  MISS:          0
cpu0_ITLB WRITEBACK ACCESS:          0  HIT:          0  MISS:          0
cpu0_L1I TOTAL     ACCESS:    2739242  HIT:    2628752  MISS:     110490
cpu0_L1I LOAD      ACCESS:    2739242  HIT:    2628752  MISS:     110490
cpu0_L1I RFO       ACCESS:          0  HIT:          0  MISS:          0
cpu0_L1I PREFETCH  ACCESS:          0  HIT:          0  MISS:          0
cpu0_L1I WRITEBACK ACCESS:          0  HIT:          0  MISS:          0
cpu0_STLB TOTAL     ACCESS:      38205  HIT:      36399  MISS:       1806
cpu0_STLB LOAD      ACCESS:      34587  HIT:      32863  MISS:       1724
cpu0_STLB RFO       ACCESS:       3618  HIT:       3536  MISS:         82
cpu0_STLB PREFETCH  ACCESS:          0  HIT:          0  MISS:          0
cpu0_STLB WRITEBACK ACCESS:          0  HIT:          0  MISS:          0
cpu0_L1D TOTAL     ACCESS:    8863879  HIT:    8708148  MISS:     155731
cpu0_L1D LOAD      ACCESS:    5126718  HIT:    5021100  MISS:     105618
cpu0_L1D RFO       ACCESS:    3735356  HIT:    3685416  MISS:      49940
cpu0_L1D PREFETCH  ACCESS:          0  HIT:          0  MISS:          0
cpu0_L1D WRITEBACK ACCESS:          0  HIT:          0  MISS:          0
cpu0_L2C TOTAL     ACCESS:     337604  HIT:     283635  MISS:      53969
cpu0_L2C LOAD      ACCESS:     216106  HIT:     172513  MISS:      43593
cpu0_L2C RFO       ACCESS:      49939  HIT:      39593  MISS:      10346
cpu0_L2C PREFETCH  ACCESS:          0  HIT:          0  MISS:          0
cpu0_L2C WRITEBACK ACCESS:      71386  HIT:      71373  MISS:         13
LLC TOTAL     ACCESS:      78626  HIT:       4608  MISS:      74018
LLC LOAD      ACCESS:      43593  HIT:       2191  MISS:      41402
LLC RFO       ACCESS:      10346  HIT:       1353  MISS:       8993
LLC PREFETCH  ACCESS:          0  HIT:          0  MISS:          0
LLC WRITEBACK ACCESS:      24670  HIT:       1064  MISS:      23606
Heartbeat CPU 0 instructions: 86000001 cycles: 60040050 heartbeat IPC: 0.769195 cumulative IPC: 0.764187 (Simulation time: 0 hr 35 min 28 sec) 

Region of Interest Statistics
cpu0_DTLB TOTAL     ACCESS:    7780830  HIT:    7740723  MISS:      40107
cpu0_DTLB LOAD      ACCESS:    5510090  HIT:    5473780  MISS:      36310
cpu0_DTLB RFO       ACCESS:    2270740  HIT:    2266943  MISS:       3797
cpu0_DTLB PREFETCH  ACCESS:          0  HIT:          0  MISS:          0
cpu0_DTLB WRITEBACK ACCESS:          0  HIT:          0  MISS:          0
cpu0_ITLB TOTAL     ACCESS:    3348064  HIT:    3347918  MISS:        146
cpu0_ITLB LOAD      ACCESS:    3348064  HIT:    3347918  MISS:        146
cpu0_ITLB RFO       ACCESS:          0  HIT:          0  MISS:          0
cpu0_ITLB PREFETCH  ACCESS:          0  HIT:          0  MISS:          0
cpu0_ITLB WRITEBACK ACCESS:          0  HIT:          0  MISS:          0
cpu0_L1I TOTAL     ACCESS:    2917521  HIT:    2799892  MISS:     117629
cpu0_L1I LOAD      ACCESS:    2917521  HIT:    2799892  MISS:     117629
cpu0_L1I RFO       ACCESS:          0  HIT:          0  MISS:          0
cpu0_L1I PREFETCH  ACCESS:          0  HIT:          0  MISS:          0
cpu0_L1I WRITEBACK ACCESS:          0  HIT:          0  MISS:          0
cpu0_STLB TOTAL     ACCESS:      40253  HIT:      38334  MISS:       1919
cpu0_STLB LOAD      ACCESS:      36456  HIT:      34623  MISS:       1833
cpu0_STLB RFO       ACCESS:       3797  HIT:       3711  MISS:         86
cpu0_STLB PREFETCH  ACCESS:          0  HIT:          0  MISS:          0
cpu0_STLB WRITEBACK ACCESS:          0  HIT:          0  MISS:          0
cpu0_L1D TOTAL     ACCESS:    9407445  HIT:    9242419  MISS:     165026
cpu0_L1D LOAD      ACCESS:    5431904  HIT:    5320593  MISS:     111311
cpu0_L1D RFO       ACCESS:    3973623  HIT:    3920092  MISS:      53531
cpu0_L1D PREFETCH  ACCESS:          0  HIT:          0  MISS:          0
cpu0_L1D WRITEBACK ACCESS:          0  HIT:          0  MISS:          0
cpu0_L2C TOTAL     ACCESS:     359114  HIT:     302336  MISS:      56778
cpu0_L2C LOAD      ACCESS:     228938  HIT:     183169  MISS:      45769
cpu0_L2C RFO       ACCESS:      53530  HIT:      42552  MISS:      10978
cpu0_L2C PREFETCH  ACCESS:          0  HIT:          0  MISS:          0
cpu0_L2C WRITEBACK ACCESS:      76462  HIT:      76449  MISS:         13
LLC TOTAL     ACCESS:      82769  HIT:       5142  MISS:      77627
LLC LOAD      ACCESS:      45769  HIT:       2401  MISS:      43368
LLC RFO       ACCESS:      10978  HIT:       1547  MISS:       9431
LLC PREFETCH  ACCESS:          0  HIT:          0  MISS:          0
LLC WRITEBACK ACCESS:      26004  HIT:       1194  MISS:      24810
Heartbeat CPU 0 instructions: 88000000 cycles: 62640440 heartbeat IPC: 0.769115 cumulative IPC: 0.764445 (Simulation time: 0 hr 36 min 15 sec) 

Region of Interest Statistics
cpu0_DTLB TOTAL     ACCESS:    8219653  HIT:    8176611  MISS:      43042
cpu0_DTLB LOAD      ACCESS:    5825401  HIT:    5786409  MISS:      38992
cpu0_DTLB RFO       ACCESS:    2394252  HIT:    2390202  MISS:       4050
cpu0_DTLB PREFETCH  ACCESS:          0  HIT:          0  MISS:          0
cpu0_DTLB WRITEBACK ACCESS:          0  HIT:          0  MISS:          0
cpu0_ITLB TOTAL     ACCESS:    3536255  HIT:    3536103  MISS:        152
cpu0_ITLB LOAD      ACCESS:    3536255  HIT:    3536103  MISS:        152
cpu0_ITLB RFO       ACCESS:          0  HIT:          0  MISS:          0
cpu0_ITLB PREFETCH  ACCESS:          0  HIT:          0  MISS:          0
cpu0_ITLB WRITEBACK ACCESS:          0  HIT:          0  MISS:          0
cpu0_L1I TOTAL     ACCESS:    3057674  HIT:    2933530  MISS:     124144
cpu0_L1I LOAD      ACCESS:    3057674  HIT:    2933530  MISS:     124144
cpu0_L1I RFO       ACCESS:          0  HIT:          0  MISS:          0
cpu0_L1I PREFETCH  ACCESS:          0  HIT:          0  MISS:          0
cpu0_L1I WRITEBACK ACCESS:          0  HIT:          0  MISS:          0
cpu0_STLB TOTAL     ACCESS:      43194  HIT:      41179  MISS:       2015
cpu0_STLB LOAD      ACCESS:      39144  HIT:      37220  MISS:       1924
cpu0_STLB RFO       ACCESS:       4050  HIT:       3959  MISS:         91
cpu0_STLB PREFETCH  ACCESS:          0  HIT:          0  MISS:          0
cpu0_STLB WRITEBACK ACCESS:          0  HIT:          0  MISS:          0
cpu0_L1D TOTAL     ACCESS:    9920255  HIT:    9743550  MISS:     176705
cpu0_L1D LOAD      ACCESS:    5737719  HIT:    5618827  MISS:     118892
cpu0_L1D RFO       ACCESS:    4180522  HIT:    4122905  MISS:      57617
cpu0_L1D PREFETCH  ACCESS:          0  HIT:          0  MISS:          0
cpu0_L1D WRITEBACK ACCESS:          0  HIT:          0  MISS:          0
cpu0_L2C TOTAL     ACCESS:     382896  HIT:     322719  MISS:      60177
cpu0_L2C LOAD      ACCESS:     243034  HIT:     194535  MISS:      48499
cpu0_L2C RFO       ACCESS:      57616  HIT:      45970  MISS:      11646
cpu0_L2C PREFETCH  ACCESS:          0  HIT:          0  MISS:          0
cpu0_L2C WRITEBACK ACCESS:      82050  HIT:      82037  MISS:         13
LLC TOTAL     ACCESS:      87922  HIT:       5611  MISS:      82311
LLC LOAD      ACCESS:      48499  HIT:       2613  MISS:      45886
LLC RFO       ACCESS:      11646  HIT:       1706  MISS:       9940
LLC PREFETCH  ACCESS:          0  HIT:          0  MISS:          0
LLC WRITEBACK ACCESS:      27758  HIT:       1292  MISS:      26466
Heartbeat CPU 0 instructions: 90000002 cycles: 65425649 heartbeat IPC: 0.71808 cumulative IPC: 0.761985 (Simulation time: 0 hr 37 min 9 sec) 

Region of Interest Statistics
cpu0_DTLB TOTAL     ACCESS:    8652491  HIT:    8607236  MISS:      45255
cpu0_DTLB LOAD      ACCESS:    6133335  HIT:    6092325  MISS:      41010
cpu0_DTLB RFO       ACCESS:    2519156  HIT:    2514911  MISS:       4245
cpu0_DTLB PREFETCH  ACCESS:          0  HIT:          0  MISS:          0
cpu0_DTLB WRITEBACK ACCESS:          0  HIT:          0  MISS:          0
cpu0_ITLB TOTAL     ACCESS:    3722517  HIT:    3722349  MISS:        168
cpu0_ITLB LOAD      ACCESS:    3722517  HIT:    3722349  MISS:        168
cpu0_ITLB RFO       ACCESS:          0  HIT:          0  MISS:          0
cpu0_ITLB PREFETCH  ACCESS:          0  HIT:          0  MISS:          0
cpu0_ITLB WRITEBACK ACCESS:          0  HIT:          0  MISS:          0
cpu0_L1I TOTAL     ACCESS:    3208521  HIT:    3077920  MISS:     130601
cpu0_L1I LOAD      ACCESS:    3208521  HIT:    3077920  MISS:     130601
cpu0_L1I RFO       ACCESS:          0  HIT:          0  MISS:          0
cpu0_L1I PREFETCH  ACCESS:          0  HIT:          0  MISS:          0
cpu0_L1I WRITEBACK ACCESS:          0  HIT:          0  MISS:          0
cpu0_STLB TOTAL     ACCESS:      45423  HIT:      43298  MISS:       2125
cpu0_STLB LOAD      ACCESS:      41178  HIT:      39154  MISS:       2024
cpu0_STLB RFO       ACCESS:       4245  HIT:       4144  MISS:        101
cpu0_STLB PREFETCH  ACCESS:          0  HIT:          0  MISS:          0
cpu0_STLB WRITEBACK ACCESS:          0  HIT:          0  MISS:          0
cpu0_L1D TOTAL     ACCESS:   10437303  HIT:   10249571  MISS:     187732
cpu0_L1D LOAD      ACCESS:    6039833  HIT:    5913182  MISS:     126651
cpu0_L1D RFO       ACCESS:    4395346  HIT:    4334476  MISS:      60870
cpu0_L1D PREFETCH  ACCESS:          0  HIT:          0  MISS:          0
cpu0_L1D WRITEBACK ACCESS:          0  HIT:          0  MISS:          0
cpu0_L2C TOTAL     ACCESS:     405311  HIT:     340244  MISS:      65067
cpu0_L2C LOAD      ACCESS:     257250  HIT:     204859  MISS:      52391
cpu0_L2C RFO       ACCESS:      60869  HIT:      48226  MISS:      12643
cpu0_L2C PREFETCH  ACCESS:          0  HIT:          0  MISS:          0
cpu0_L2C WRITEBACK ACCESS:      86981  HIT:      86968  MISS:         13
LLC TOTAL     ACCESS:      95350  HIT:       5777  MISS:      89573
LLC LOAD      ACCESS:      52391  HIT:       2691  MISS:      49700
LLC RFO       ACCESS:      12643  HIT:       1774  MISS:      10869
LLC PREFETCH  ACCESS:          0  HIT:          0  MISS:          0
LLC WRITEBACK ACCESS:      30296  HIT:       1312  MISS:      28984
Heartbeat CPU 0 instructions: 92000000 cycles: 68034888 heartbeat IPC: 0.766506 cumulative IPC: 0.762199 (Simulation time: 0 hr 37 min 56 sec) 

Region of Interest Statistics
cpu0_DTLB TOTAL     ACCESS:    9092884  HIT:    9045721  MISS:      47163
cpu0_DTLB LOAD      ACCESS:    6441549  HIT:    6398789  MISS:      42760
cpu0_DTLB RFO       ACCESS:    2651335  HIT:    2646932  MISS:       4403
cpu0_DTLB PREFETCH  ACCESS:          0  HIT:          0  MISS:          0
cpu0_DTLB WRITEBACK ACCESS:          0  HIT:          0  MISS:          0
cpu0_ITLB TOTAL     ACCESS:    3906941  HIT:    3906766  MISS:        175
cpu0_ITLB LOAD      ACCESS:    3906941  HIT:    3906766  MISS:        175
cpu0_ITLB RFO       ACCESS:          0  HIT:          0  MISS:          0
cpu0_ITLB PREFETCH  ACCESS:          0  HIT:          0  MISS:          0
cpu0_ITLB WRITEBACK ACCESS:          0  HIT:          0  MISS:          0
cpu0_L1I TOTAL     ACCESS:    3385377  HIT:    3247616  MISS:     137761
cpu0_L1I LOAD      ACCESS:    3385377  HIT:    3247616  MISS:     137761
cpu0_L1I RFO       ACCESS:          0  HIT:          0  MISS:          0
cpu0_L1I PREFETCH  ACCESS:          0  HIT:          0  MISS:          0
cpu0_L1I WRITEBACK ACCESS:          0  HIT:          0  MISS:          0
cpu0_STLB TOTAL     ACCESS:      47338  HIT:      45104  MISS:       2234
cpu0_STLB LOAD      ACCESS:      42935  HIT:      40804  MISS:       2131
cpu0_STLB RFO       ACCESS:       4403  HIT:       4300  MISS:        103
cpu0_STLB PREFETCH  ACCESS:          0  HIT:          0  MISS:          0
cpu0_STLB WRITEBACK ACCESS:          0  HIT:          0  MISS:          0
cpu0_L1D TOTAL     ACCESS:   10973465  HIT:   10778365  MISS:     195100
cpu0_L1D LOAD      ACCESS:    6343169  HIT:    6211588  MISS:     131581
cpu0_L1D RFO       ACCESS:    4628063  HIT:    4564762  MISS:      63301
cpu0_L1D PREFETCH  ACCESS:          0  HIT:          0  MISS:          0
cpu0_L1D WRITEBACK ACCESS:          0  HIT:          0  MISS:          0
cpu0_L2C TOTAL     ACCESS:     423180  HIT:     355678  MISS:      67502
cpu0_L2C LOAD      ACCESS:     269339  HIT:     214895  MISS:      54444
cpu0_L2C RFO       ACCESS:      63300  HIT:      50275  MISS:      13025
cpu0_L2C PREFETCH  ACCESS:          0  HIT:          0  MISS:          0
cpu0_L2C WRITEBACK ACCESS:      90323  HIT:      90310  MISS:         13
LLC TOTAL     ACCESS:      98747  HIT:       5979  MISS:      92768
LLC LOAD      ACCESS:      54444  HIT:       2797  MISS:      51647
LLC RFO       ACCESS:      13025  HIT:       1834  MISS:      11191
LLC PREFETCH  ACCESS:          0  HIT:          0  MISS:          0
LLC WRITEBACK ACCESS:      31258  HIT:       1348  MISS:      29910
Heartbeat CPU 0 instructions: 94000000 cycles: 70751569 heartbeat IPC: 0.736192 cumulative IPC: 0.760977 (Simulation time: 0 hr 38 min 46 sec) 

Region of Interest Statistics
cpu0_DTLB TOTAL     ACCESS:    9520396  HIT:    9470670  MISS:      49726
cpu0_DTLB LOAD      ACCESS:    6752680  HIT:    6707571  MISS:      45109
cpu0_DTLB RFO       ACCESS:    2767716  HIT:    2763099  MISS:       4617
cpu0_DTLB PREFETCH  ACCESS:          0  HIT:          0  MISS:          0
cpu0_DTLB WRITEBACK ACCESS:          0  HIT:          0  MISS:          0
cpu0_ITLB TOTAL     ACCESS:    4096966  HIT:    4096783  MISS:        183
cpu0_ITLB LOAD      ACCESS:    4096966  HIT:    4096783  MISS:        183
cpu0_ITLB RFO       ACCESS:          0  HIT:          0  MISS:          0
cpu0_ITLB PREFETCH  ACCESS:          0  HIT:          0  MISS:          0
cpu0_ITLB WRITEBACK ACCESS:          0  HIT:          0  MISS:          0
cpu0_L1I TOTAL     ACCESS:    3524643  HIT:    3380198  MISS:     144445
cpu0_L1I LOAD      ACCESS:    3524643  HIT:    3380198  MISS:     144445
cpu0_L1I RFO       ACCESS:          0  HIT:          0  MISS:          0
cpu0_L1I PREFETCH  ACCESS:          0  HIT:          0  MISS:          0
cpu0_L1I WRITEBACK ACCESS:          0  HIT:          0  MISS:          0
cpu0_STLB TOTAL     ACCESS:      49909  HIT:      47605  MISS:       2304
cpu0_STLB LOAD      ACCESS:      45292  HIT:      43093  MISS:       2199
cpu0_STLB RFO       ACCESS:       4617  HIT:       4512  MISS:        105
cpu0_STLB PREFETCH  ACCESS:          0  HIT:          0  MISS:          0
cpu0_STLB WRITEBACK ACCESS:          0  HIT:          0  MISS:          0
cpu0_L1D TOTAL     ACCESS:   11478750  HIT:   11272342  MISS:     206408
cpu0_L1D LOAD      ACCESS:    6647372  HIT:    6507581  MISS:     139791
cpu0_L1D RFO       ACCESS:    4829075  HIT:    4762685  MISS:      66390
cpu0_L1D PREFETCH  ACCESS:          0  HIT:          0  MISS:          0
cpu0_L1D WRITEBACK ACCESS:          0  HIT:          0  MISS:          0
cpu0_L2C TOTAL     ACCESS:     446013  HIT:     374627  MISS:      71386
cpu0_L2C LOAD      ACCESS:     284233  HIT:     226404  MISS:      57829
cpu0_L2C RFO       ACCESS:      66389  HIT:      52867  MISS:      13522
cpu0_L2C PREFETCH  ACCESS:          0  HIT:          0  MISS:          0
cpu0_L2C WRITEBACK ACCESS:      95164  HIT:      95150  MISS:         14
LLC TOTAL     ACCESS:     103998  HIT:       6551  MISS:      97447
LLC LOAD      ACCESS:      57829  HIT:       3127  MISS:      54702
LLC RFO       ACCESS:      13522  HIT:       1951  MISS:      11571
LLC PREFETCH  ACCESS:          0  HIT:          0  MISS:          0
LLC WRITEBACK ACCESS:      32626  HIT:       1473  MISS:      31153
Heartbeat CPU 0 instructions: 96000002 cycles: 73401648 heartbeat IPC: 0.754695 cumulative IPC: 0.760702 (Simulation time: 0 hr 39 min 35 sec) 

Region of Interest Statistics
cpu0_DTLB TOTAL     ACCESS:    9957796  HIT:    9905502  MISS:      52294
cpu0_DTLB LOAD      ACCESS:    7066416  HIT:    7018991  MISS:      47425
cpu0_DTLB RFO       ACCESS:    2891380  HIT:    2886511  MISS:       4869
cpu0_DTLB PREFETCH  ACCESS:          0  HIT:          0  MISS:          0
cpu0_DTLB WRITEBACK ACCESS:          0  HIT:          0  MISS:          0
cpu0_ITLB TOTAL     ACCESS:    4284971  HIT:    4284778  MISS:        193
cpu0_ITLB LOAD      ACCESS:    4284971  HIT:    4284778  MISS:        193
cpu0_ITLB RFO       ACCESS:          0  HIT:          0  MISS:          0
cpu0_ITLB PREFETCH  ACCESS:          0  HIT:          0  MISS:          0
cpu0_ITLB WRITEBACK ACCESS:          0  HIT:          0  MISS:          0
cpu0_L1I TOTAL     ACCESS:    3677553  HIT:    3526111  MISS:     151442
cpu0_L1I LOAD      ACCESS:    3677553  HIT:    3526111  MISS:     151442
cpu0_L1I RFO       ACCESS:          0  HIT:          0  MISS:          0
cpu0_L1I PREFETCH  ACCESS:          0  HIT:          0  MISS:          0
cpu0_L1I WRITEBACK ACCESS:          0  HIT:          0  MISS:          0
cpu0_STLB TOTAL     ACCESS:      52487  HIT:      50082  MISS:       2405
cpu0_STLB LOAD      ACCESS:      47618  HIT:      45320  MISS:       2298
cpu0_STLB RFO       ACCESS:       4869  HIT:       4762  MISS:        107
cpu0_STLB PREFETCH  ACCESS:          0  HIT:          0  MISS:          0
cpu0_STLB WRITEBACK ACCESS:          0  HIT:          0  MISS:          0
cpu0_L1D TOTAL     ACCESS:   11998335  HIT:   11781698  MISS:     216637
cpu0_L1D LOAD      ACCESS:    6953070  HIT:    6806054  MISS:     147016
cpu0_L1D RFO       ACCESS:    5042861  HIT:    4973477  MISS:      69384
cpu0_L1D PREFETCH  ACCESS:          0  HIT:          0  MISS:          0
cpu0_L1D WRITEBACK ACCESS:          0  HIT:          0  MISS:          0
cpu0_L2C TOTAL     ACCESS:     467582  HIT:     393059  MISS:      74523
cpu0_L2C LOAD      ACCESS:     298455  HIT:     238003  MISS:      60452
cpu0_L2C RFO       ACCESS:      69383  HIT:      55348  MISS:      14035
cpu0_L2C PREFETCH  ACCESS:          0  HIT:          0  MISS:          0
cpu0_L2C WRITEBACK ACCESS:      99507  HIT:      99493  MISS:         14
LLC TOTAL     ACCESS:     108008  HIT:       7050  MISS:     100958
LLC LOAD      ACCESS:      60452  HIT:       3392  MISS:      57060
LLC RFO       ACCESS:      14035  HIT:       2096  MISS:      11939
LLC PREFETCH  ACCESS:          0  HIT:          0  MISS:          0
LLC WRITEBACK ACCESS:      33499  HIT:       1562  MISS:      31937
Heartbeat CPU 0 instructions: 98000000 cycles: 76009181 heartbeat IPC: 0.767008 cumulative IPC: 0.760962 (Simulation time: 0 hr 40 min 27 sec) 

Region of Interest Statistics
cpu0_DTLB TOTAL     ACCESS:   10389426  HIT:   10334360  MISS:      55066
cpu0_DTLB LOAD      ACCESS:    7383918  HIT:    7333973  MISS:      49945
cpu0_DTLB RFO       ACCESS:    3005508  HIT:    3000387  MISS:       5121
cpu0_DTLB PREFETCH  ACCESS:          0  HIT:          0  MISS:          0
cpu0_DTLB WRITEBACK ACCESS:          0  HIT:          0  MISS:          0
cpu0_ITLB TOTAL     ACCESS:    4478511  HIT:    4478299  MISS:        212
cpu0_ITLB LOAD      ACCESS:    4478511  HIT:    4478299  MISS:        212
cpu0_ITLB RFO       ACCESS:          0  HIT:          0  MISS:          0
cpu0_ITLB PREFETCH  ACCESS:          0  HIT:          0  MISS:          0
cpu0_ITLB WRITEBACK ACCESS:          0  HIT:          0  MISS:          0
cpu0_L1I TOTAL     ACCESS:    3805989  HIT:    3647890  MISS:     158099
cpu0_L1I LOAD      ACCESS:    3805989  HIT:    3647890  MISS:     158099
cpu0_L1I RFO       ACCESS:          0  HIT:          0  MISS:          0
cpu0_L1I PREFETCH  ACCESS:          0  HIT:          0  MISS:          0
cpu0_L1I WRITEBACK ACCESS:          0  HIT:          0  MISS:          0
cpu0_STLB TOTAL     ACCESS:      55278  HIT:      52808  MISS:       2470
cpu0_STLB LOAD      ACCESS:      50157  HIT:      47797  MISS:       2360
cpu0_STLB RFO       ACCESS:       5121  HIT:       5011  MISS:        110
cpu0_STLB PREFETCH  ACCESS:          0  HIT:          0  MISS:          0
cpu0_STLB WRITEBACK ACCESS:          0  HIT:          0  MISS:          0
cpu0_L1D TOTAL     ACCESS:   12491633  HIT:   12264390  MISS:     227243
cpu0_L1D LOAD      ACCESS:    7256516  HIT:    7102374  MISS:     154142
cpu0_L1D RFO       ACCESS:    5232648  HIT:    5159796  MISS:      72852
cpu0_L1D PREFETCH  ACCESS:          0  HIT:          0  MISS:          0
cpu0_L1D WRITEBACK ACCESS:          0  HIT:          0  MISS:          0
cpu0_L2C TOTAL     ACCESS:     489112  HIT:     411369  MISS:      77743
cpu0_L2C LOAD      ACCESS:     312238  HIT:     249225  MISS:      63013
cpu0_L2C RFO       ACCESS:      72851  HIT:      58159  MISS:      14692
cpu0_L2C PREFETCH  ACCESS:          0  HIT:          0  MISS:          0
cpu0_L2C WRITEBACK ACCESS:     103774  HIT:     103760  MISS:         14
LLC TOTAL     ACCESS:     112590  HIT:       7257  MISS:     105333
LLC LOAD      ACCESS:      63013  HIT:       3494  MISS:      59519
LLC RFO       ACCESS:      14692  HIT:       2164  MISS:      12528
LLC PREFETCH  ACCESS:          0  HIT:          0  MISS:          0
LLC WRITEBACK ACCESS:      34861  HIT:       1599  MISS:      33262
Heartbeat CPU 0 instructions: 100000000 cycles: 78464240 heartbeat IPC: 0.814644 cumulative IPC: 0.762973 (Simulation time: 0 hr 41 min 15 sec) 

Region of Interest Statistics
cpu0_DTLB TOTAL     ACCESS:   10796446  HIT:   10738174  MISS:      58272
cpu0_DTLB LOAD      ACCESS:    7694975  HIT:    7642034  MISS:      52941
cpu0_DTLB RFO       ACCESS:    3101471  HIT:    3096140  MISS:       5331
cpu0_DTLB PREFETCH  ACCESS:          0  HIT:          0  MISS:          0
cpu0_DTLB WRITEBACK ACCESS:          0  HIT:          0  MISS:          0
cpu0_ITLB TOTAL     ACCESS:    4677596  HIT:    4677366  MISS:        230
cpu0_ITLB LOAD      ACCESS:    4677596  HIT:    4677366  MISS:        230
cpu0_ITLB RFO       ACCESS:          0  HIT:          0  MISS:          0
cpu0_ITLB PREFETCH  ACCESS:          0  HIT:          0  MISS:          0
cpu0_ITLB WRITEBACK ACCESS:          0  HIT:          0  MISS:          0
cpu0_L1I TOTAL     ACCESS:    3897312  HIT:    3733808  MISS:     163504
cpu0_L1I LOAD      ACCESS:    3897312  HIT:    3733808  MISS:     163504
cpu0_L1I RFO       ACCESS:          0  HIT:          0  MISS:          0
cpu0_L1I PREFETCH  ACCESS:          0  HIT:          0  MISS:          0
cpu0_L1I WRITEBACK ACCESS:          0  HIT:          0  MISS:          0
cpu0_STLB TOTAL     ACCESS:      58502  HIT:      55989  MISS:       2513
cpu0_STLB LOAD      ACCESS:      53171  HIT:      50774  MISS:       2397
cpu0_STLB RFO       ACCESS:       5331  HIT:       5215  MISS:        116
cpu0_STLB PREFETCH  ACCESS:          0  HIT:          0  MISS:          0
cpu0_STLB WRITEBACK ACCESS:          0  HIT:          0  MISS:          0
cpu0_L1D TOTAL     ACCESS:   12954206  HIT:   12715588  MISS:     238618
cpu0_L1D LOAD      ACCESS:    7558624  HIT:    7395896  MISS:     162728
cpu0_L1D RFO       ACCESS:    5393070  HIT:    5317442  MISS:      75628
cpu0_L1D PREFETCH  ACCESS:          0  HIT:          0  MISS:          0
cpu0_L1D WRITEBACK ACCESS:          0  HIT:          0  MISS:          0
cpu0_L2C TOTAL     ACCESS:     510054  HIT:     429539  MISS:      80515
cpu0_L2C LOAD      ACCESS:     326229  HIT:     261067  MISS:      65162
cpu0_L2C RFO       ACCESS:      75627  HIT:      60314  MISS:      15313
cpu0_L2C PREFETCH  ACCESS:          0  HIT:          0  MISS:          0
cpu0_L2C WRITEBACK ACCESS:     107936  HIT:     107922  MISS:         14
LLC TOTAL     ACCESS:     116535  HIT:       7558  MISS:     108977
LLC LOAD      ACCESS:      65162  HIT:       3687  MISS:      61475
LLC RFO       ACCESS:      15313  HIT:       2206  MISS:      13107
LLC PREFETCH  ACCESS:          0  HIT:          0  MISS:          0
LLC WRITEBACK ACCESS:      36034  HIT:       1665  MISS:      34369
Heartbeat CPU 0 instructions: 102000000 cycles: 80851692 heartbeat IPC: 0.837713 cumulative IPC: 0.765601 (Simulation time: 0 hr 42 min 3 sec) 

Region of Interest Statistics
cpu0_DTLB TOTAL     ACCESS:   11206761  HIT:   11146605  MISS:      60156
cpu0_DTLB LOAD      ACCESS:    8006755  HIT:    7952114  MISS:      54641
cpu0_DTLB RFO       ACCESS:    3200006  HIT:    3194491  MISS:       5515
cpu0_DTLB PREFETCH  ACCESS:          0  HIT:          0  MISS:          0
cpu0_DTLB WRITEBACK ACCESS:          0  HIT:          0  MISS:          0
cpu0_ITLB TOTAL     ACCESS:    4874635  HIT:    4874388  MISS:        247
cpu0_ITLB LOAD      ACCESS:    4874635  HIT:    4874388  MISS:        247
cpu0_ITLB RFO       ACCESS:          0  HIT:          0  MISS:          0
cpu0_ITLB PREFETCH  ACCESS:          0  HIT:          0  MISS:          0
cpu0_ITLB WRITEBACK ACCESS:          0  HIT:          0  MISS:          0
cpu0_L1I TOTAL     ACCESS:    3986564  HIT:    3818668  MISS:     167896
cpu0_L1I LOAD      ACCESS:    3986564  HIT:    3818668  MISS:     167896
cpu0_L1I RFO       ACCESS:          0  HIT:          0  MISS:          0
cpu0_L1I PREFETCH  ACCESS:          0  HIT:          0  MISS:          0
cpu0_L1I WRITEBACK ACCESS:          0  HIT:          0  MISS:          0
cpu0_STLB TOTAL     ACCESS:      60403  HIT:      57855  MISS:       2548
cpu0_STLB LOAD      ACCESS:      54888  HIT:      52468  MISS:       2420
cpu0_STLB RFO       ACCESS:       5515  HIT:       5387  MISS:        128
cpu0_STLB PREFETCH  ACCESS:          0  HIT:          0  MISS:          0
cpu0_STLB WRITEBACK ACCESS:          0  HIT:          0  MISS:          0
cpu0_L1D TOTAL     ACCESS:   13409179  HIT:   13158571  MISS:     250608
cpu0_L1D LOAD      ACCESS:    7856059  HIT:    7685263  MISS:     170796
cpu0_L1D RFO       ACCESS:    5550573  HIT:    5471031  MISS:      79542
cpu0_L1D PREFETCH  ACCESS:          0  HIT:          0  MISS:          0
cpu0_L1D WRITEBACK ACCESS:          0  HIT:          0  MISS:          0
cpu0_L2C TOTAL     ACCESS:     531667  HIT:     448027  MISS:      83640
cpu0_L2C LOAD      ACCESS:     338688  HIT:     271363  MISS:      67325
cpu0_L2C RFO       ACCESS:      79541  HIT:      63266  MISS:      16275
cpu0_L2C PREFETCH  ACCESS:          0  HIT:          0  MISS:          0
cpu0_L2C WRITEBACK ACCESS:     113168  HIT:     113154  MISS:         14
LLC TOTAL     ACCESS:     121110  HIT:       7681  MISS:     113429
LLC LOAD      ACCESS:      67325  HIT:       3748  MISS:      63577
LLC RFO       ACCESS:      16275  HIT:       2242  MISS:      14033
LLC PREFETCH  ACCESS:          0  HIT:          0  MISS:          0
LLC WRITEBACK ACCESS:      37484  HIT:       1691  MISS:      35793
Heartbeat CPU 0 instructions: 104000003 cycles: 83513994 heartbeat IPC: 0.751231 cumulative IPC: 0.765059 (Simulation time: 0 hr 42 min 54 sec) 

Region of Interest Statistics
cpu0_DTLB TOTAL     ACCESS:   11623283  HIT:   11561058  MISS:      62225
cpu0_DTLB LOAD      ACCESS:    8306055  HIT:    8249520  MISS:      56535
cpu0_DTLB RFO       ACCESS:    3317228  HIT:    3311538  MISS:       5690
cpu0_DTLB PREFETCH  ACCESS:          0  HIT:          0  MISS:          0
cpu0_DTLB WRITEBACK ACCESS:          0  HIT:          0  MISS:          0
cpu0_ITLB TOTAL     ACCESS:    5062606  HIT:    5062347  MISS:        259
cpu0_ITLB LOAD      ACCESS:    5062606  HIT:    5062347  MISS:        259
cpu0_ITLB RFO       ACCESS:          0  HIT:          0  MISS:          0
cpu0_ITLB PREFETCH  ACCESS:          0  HIT:          0  MISS:          0
cpu0_ITLB WRITEBACK ACCESS:          0  HIT:          0  MISS:          0
cpu0_L1I TOTAL     ACCESS:    4134686  HIT:    3961026  MISS:     173660
cpu0_L1I LOAD      ACCESS:    4134686  HIT:    3961026  MISS:     173660
cpu0_L1I RFO       ACCESS:          0  HIT:          0  MISS:          0
cpu0_L1I PREFETCH  ACCESS:          0  HIT:          0  MISS:          0
cpu0_L1I WRITEBACK ACCESS:          0  HIT:          0  MISS:          0
cpu0_STLB TOTAL     ACCESS:      62484  HIT:      59813  MISS:       2671
cpu0_STLB LOAD      ACCESS:      56794  HIT:      54259  MISS:       2535
cpu0_STLB RFO       ACCESS:       5690  HIT:       5554  MISS:        136
cpu0_STLB PREFETCH  ACCESS:          0  HIT:          0  MISS:          0
cpu0_STLB WRITEBACK ACCESS:          0  HIT:          0  MISS:          0
cpu0_L1D TOTAL     ACCESS:   13912490  HIT:   13652617  MISS:     259873
cpu0_L1D LOAD      ACCESS:    8151718  HIT:    7974287  MISS:     177431
cpu0_L1D RFO       ACCESS:    5758102  HIT:    5675942  MISS:      82160
cpu0_L1D PREFETCH  ACCESS:          0  HIT:          0  MISS:          0
cpu0_L1D WRITEBACK ACCESS:          0  HIT:          0  MISS:          0
cpu0_L2C TOTAL     ACCESS:     550653  HIT:     462766  MISS:      87887
cpu0_L2C LOAD      ACCESS:     351087  HIT:     280357  MISS:      70730
cpu0_L2C RFO       ACCESS:      82159  HIT:      65046  MISS:      17113
cpu0_L2C PREFETCH  ACCESS:          0  HIT:          0  MISS:          0
cpu0_L2C WRITEBACK ACCESS:     117125  HIT:     117110  MISS:         15
LLC TOTAL     ACCESS:     127604  HIT:       7867  MISS:     119737
LLC LOAD      ACCESS:      70730  HIT:       3835  MISS:      66895
LLC RFO       ACCESS:      17113  HIT:       2304  MISS:      14809
LLC PREFETCH  ACCESS:          0  HIT:          0  MISS:          0
LLC WRITEBACK ACCESS:      39732  HIT:       1728  MISS:      38004
Heartbeat CPU 0 instructions: 106000004 cycles: 86168629 heartbeat IPC: 0.7534 cumulative IPC: 0.764636 (Simulation time: 0 hr 43 min 45 sec) 

Region of Interest Statistics
cpu0_DTLB TOTAL     ACCESS:   12064316  HIT:   12000144  MISS:      64172
cpu0_DTLB LOAD      ACCESS:    8612474  HIT:    8554237  MISS:      58237
cpu0_DTLB RFO       ACCESS:    3451842  HIT:    3445907  MISS:       5935
cpu0_DTLB PREFETCH  ACCESS:          0  HIT:          0  MISS:          0
cpu0_DTLB WRITEBACK ACCESS:          0  HIT:          0  MISS:          0
cpu0_ITLB TOTAL     ACCESS:    5245240  HIT:    5244975  MISS:        265
cpu0_ITLB LOAD      ACCESS:    5245240  HIT:    5244975  MISS:        265
cpu0_ITLB RFO       ACCESS:          0  HIT:          0  MISS:          0
cpu0_ITLB PREFETCH  ACCESS:          0  HIT:          0  MISS:          0
cpu0_ITLB WRITEBACK ACCESS:          0  HIT:          0  MISS:          0
cpu0_L1I TOTAL     ACCESS:    4313605  HIT:    4132472  MISS:     181133
cpu0_L1I LOAD      ACCESS:    4313605  HIT:    4132472  MISS:     181133
cpu0_L1I RFO       ACCESS:          0  HIT:          0  MISS:          0
cpu0_L1I PREFETCH  ACCESS:          0  HIT:          0  MISS:          0
cpu0_L1I WRITEBACK ACCESS:          0  HIT:          0  MISS:          0
cpu0_STLB TOTAL     ACCESS:      64437  HIT:      61643  MISS:       2794
cpu0_STLB LOAD      ACCESS:      58502  HIT:      55851  MISS:       2651
cpu0_STLB RFO       ACCESS:       5935  HIT:       5792  MISS:        143
cpu0_STLB PREFETCH  ACCESS:          0  HIT:          0  MISS:          0
cpu0_STLB WRITEBACK ACCESS:          0  HIT:          0  MISS:          0
cpu0_L1D TOTAL     ACCESS:   14449570  HIT:   14180601  MISS:     268969
cpu0_L1D LOAD      ACCESS:    8453393  HIT:    8270215  MISS:     183178
cpu0_L1D RFO       ACCESS:    5993384  HIT:    5907885  MISS:      85499
cpu0_L1D PREFETCH  ACCESS:          0  HIT:          0  MISS:          0
cpu0_L1D WRITEBACK ACCESS:          0  HIT:          0  MISS:          0
cpu0_L2C TOTAL     ACCESS:     571861  HIT:     480672  MISS:      91189
cpu0_L2C LOAD      ACCESS:     364307  HIT:     291058  MISS:      73249
cpu0_L2C RFO       ACCESS:      85498  HIT:      67602  MISS:      17896
cpu0_L2C PREFETCH  ACCESS:          0  HIT:          0  MISS:          0
[...]
cpu0_DTLB LOAD      ACCESS:  229910813  HIT:  229215412  MISS:     695401
cpu0_DTLB RFO       ACCESS:  112118605  HIT:  112015948  MISS:     102657
cpu0_DTLB PREFETCH  ACCESS:          0  HIT:          0  MISS:          0
cpu0_DTLB WRITEBACK ACCESS:          0  HIT:          0  MISS:          0
cpu0_ITLB TOTAL     ACCESS:  132991845  HIT:  132986466  MISS:       5379
cpu0_ITLB LOAD      ACCESS:  132991845  HIT:  132986466  MISS:       5379
cpu0_ITLB RFO       ACCESS:          0  HIT:          0  MISS:          0
cpu0_ITLB PREFETCH  ACCESS:          0  HIT:          0  MISS:          0
cpu0_ITLB WRITEBACK ACCESS:          0  HIT:          0  MISS:          0
cpu0_L1I TOTAL     ACCESS:  154276190  HIT:  149656077  MISS:    4620113
cpu0_L1I LOAD      ACCESS:  154276190  HIT:  149656077  MISS:    4620113
cpu0_L1I RFO       ACCESS:          0  HIT:          0  MISS:          0
cpu0_L1I PREFETCH  ACCESS:          0  HIT:          0  MISS:          0
cpu0_L1I WRITEBACK ACCESS:          0  HIT:          0  MISS:          0
cpu0_STLB TOTAL     ACCESS:     803437  HIT:     732633  MISS:      70804
cpu0_STLB LOAD      ACCESS:     700780  HIT:     632661  MISS:      68119
cpu0_STLB RFO       ACCESS:     102657  HIT:      99972  MISS:       2685
cpu0_STLB PREFETCH  ACCESS:          0  HIT:          0  MISS:          0
cpu0_STLB WRITEBACK ACCESS:          0  HIT:          0  MISS:          0
cpu0_L1D TOTAL     ACCESS:  428050424  HIT:  423553374  MISS:    4497050
cpu0_L1D LOAD      ACCESS:  227091966  HIT:  224385722  MISS:    2706244
cpu0_L1D RFO       ACCESS:  200887709  HIT:  199102010  MISS:    1785699
cpu0_L1D PREFETCH  ACCESS:          0  HIT:          0  MISS:          0
cpu0_L1D WRITEBACK ACCESS:          0  HIT:          0  MISS:          0
cpu0_L2C TOTAL     ACCESS:   11587734  HIT:   10318767  MISS:    1268967
cpu0_L2C LOAD      ACCESS:    7326321  HIT:    6324463  MISS:    1001858
cpu0_L2C RFO       ACCESS:    1785666  HIT:    1520044  MISS:     265622
cpu0_L2C PREFETCH  ACCESS:          0  HIT:          0  MISS:          0
cpu0_L2C WRITEBACK ACCESS:    2470640  HIT:    2469413  MISS:       1227
LLC TOTAL     ACCESS:    1920173  HIT:     151418  MISS:    1768755
LLC LOAD      ACCESS:    1001856  HIT:      62595  MISS:     939261
LLC RFO       ACCESS:     265622  HIT:      48592  MISS:     217030
LLC PREFETCH  ACCESS:          0  HIT:          0  MISS:          0
LLC WRITEBACK ACCESS:     652435  HIT:      40231  MISS:     612204
Heartbeat CPU 0 instructions: 1550000004 cycles: 1832271613 heartbeat IPC: 0.861678 cumulative IPC: 0.824475 (Simulation time: 10 hr 50 min 19 sec) 

Region of Interest Statistics
cpu0_DTLB TOTAL     ACCESS:  342492246  HIT:  341694135  MISS:     798111
cpu0_DTLB LOAD      ACCESS:  230220681  HIT:  229525246  MISS:     695435
cpu0_DTLB RFO       ACCESS:  112271565  HIT:  112168889  MISS:     102676
cpu0_DTLB PREFETCH  ACCESS:          0  HIT:          0  MISS:          0
cpu0_DTLB WRITEBACK ACCESS:          0  HIT:          0  MISS:          0
cpu0_ITLB TOTAL     ACCESS:  133167803  HIT:  133162424  MISS:       5379
cpu0_ITLB LOAD      ACCESS:  133167803  HIT:  133162424  MISS:       5379
cpu0_ITLB RFO       ACCESS:          0  HIT:          0  MISS:          0
cpu0_ITLB PREFETCH  ACCESS:          0  HIT:          0  MISS:          0
cpu0_ITLB WRITEBACK ACCESS:          0  HIT:          0  MISS:          0
cpu0_L1I TOTAL     ACCESS:  154534578  HIT:  149908288  MISS:    4626290
cpu0_L1I LOAD      ACCESS:  154534578  HIT:  149908288  MISS:    4626290
cpu0_L1I RFO       ACCESS:          0  HIT:          0  MISS:          0
cpu0_L1I PREFETCH  ACCESS:          0  HIT:          0  MISS:          0
cpu0_L1I WRITEBACK ACCESS:          0  HIT:          0  MISS:          0
cpu0_STLB TOTAL     ACCESS:     803490  HIT:     732685  MISS:      70805
cpu0_STLB LOAD      ACCESS:     700814  HIT:     632695  MISS:      68119
cpu0_STLB RFO       ACCESS:     102676  HIT:      99990  MISS:       2686
cpu0_STLB PREFETCH  ACCESS:          0  HIT:          0  MISS:          0
cpu0_STLB WRITEBACK ACCESS:          0  HIT:          0  MISS:          0
cpu0_L1D TOTAL     ACCESS:  428645660  HIT:  424147747  MISS:    4497913
cpu0_L1D LOAD      ACCESS:  227400271  HIT:  224693772  MISS:    2706499
cpu0_L1D RFO       ACCESS:  201174639  HIT:  199388333  MISS:    1786306
cpu0_L1D PREFETCH  ACCESS:          0  HIT:          0  MISS:          0
cpu0_L1D WRITEBACK ACCESS:          0  HIT:          0  MISS:          0
cpu0_L2C TOTAL     ACCESS:   11595472  HIT:   10326486  MISS:    1268986
cpu0_L2C LOAD      ACCESS:    7332753  HIT:    6330895  MISS:    1001858
cpu0_L2C RFO       ACCESS:    1786273  HIT:    1520632  MISS:     265641
cpu0_L2C PREFETCH  ACCESS:          0  HIT:          0  MISS:          0
cpu0_L2C WRITEBACK ACCESS:    2471338  HIT:    2470111  MISS:       1227
LLC TOTAL     ACCESS:    1920205  HIT:     151422  MISS:    1768783
LLC LOAD      ACCESS:    1001856  HIT:      62595  MISS:     939261
LLC RFO       ACCESS:     265641  HIT:      48593  MISS:     217048
LLC PREFETCH  ACCESS:          0  HIT:          0  MISS:          0
LLC WRITEBACK ACCESS:     652448  HIT:      40234  MISS:     612214
Finished CPU 0 instructions: 1500000002 cycles: 1819340447 cumulative IPC: 0.824475 (Simulation time: 10 hr 50 min 19 sec) 

ChampSim completed all CPUs

Region of Interest Statistics

CPU 0 cumulative IPC: 0.824475 instructions: 1500000002 cycles: 1819340447
cpu0_DTLB TOTAL     ACCESS:  342492246  HIT:  341694135  MISS:     798111
cpu0_DTLB LOAD      ACCESS:  230220681  HIT:  229525246  MISS:     695435
cpu0_DTLB RFO       ACCESS:  112271565  HIT:  112168889  MISS:     102676
cpu0_DTLB PREFETCH  ACCESS:          0  HIT:          0  MISS:          0
cpu0_DTLB WRITEBACK ACCESS:          0  HIT:          0  MISS:          0
cpu0_DTLB TRANSLATION ACCESS:          0  HIT:          0  MISS:          0
cpu0_DTLB PREFETCH  REQUESTED:          0  ISSUED:          0  USEFUL:          0  USELESS:          0
cpu0_DTLB AVERAGE MISS LATENCY: 10.6058 cycles
cpu0_ITLB TOTAL     ACCESS:  133167803  HIT:  133162424  MISS:       5379
cpu0_ITLB LOAD      ACCESS:  133167803  HIT:  133162424  MISS:       5379
cpu0_ITLB RFO       ACCESS:          0  HIT:          0  MISS:          0
cpu0_ITLB PREFETCH  ACCESS:          0  HIT:          0  MISS:          0
cpu0_ITLB WRITEBACK ACCESS:          0  HIT:          0  MISS:          0
cpu0_ITLB TRANSLATION ACCESS:          0  HIT:          0  MISS:          0
cpu0_ITLB PREFETCH  REQUESTED:          0  ISSUED:          0  USEFUL:          0  USELESS:          0
cpu0_ITLB AVERAGE MISS LATENCY: 13.9228 cycles
cpu0_L1I TOTAL     ACCESS:  154534578  HIT:  149908288  MISS:    4626290
cpu0_L1I LOAD      ACCESS:  154534578  HIT:  149908288  MISS:    4626290
cpu0_L1I RFO       ACCESS:          0  HIT:          0  MISS:          0
cpu0_L1I PREFETCH  ACCESS:          0  HIT:          0  MISS:          0
cpu0_L1I WRITEBACK ACCESS:          0  HIT:          0  MISS:          0
cpu0_L1I TRANSLATION ACCESS:          0  HIT:          0  MISS:          0
cpu0_L1I PREFETCH  REQUESTED:          0  ISSUED:          0  USEFUL:          0  USELESS:          0
cpu0_L1I AVERAGE MISS LATENCY: 15.6741 cycles
cpu0_STLB TOTAL     ACCESS:     803490  HIT:     732685  MISS:      70805
cpu0_STLB LOAD      ACCESS:     700814  HIT:     632695  MISS:      68119
cpu0_STLB RFO       ACCESS:     102676  HIT:      99990  MISS:       2686
cpu0_STLB PREFETCH  ACCESS:          0  HIT:          0  MISS:          0
cpu0_STLB WRITEBACK ACCESS:          0  HIT:          0  MISS:          0
cpu0_STLB TRANSLATION ACCESS:          0  HIT:          0  MISS:          0
cpu0_STLB PREFETCH  REQUESTED:          0  ISSUED:          0  USEFUL:          0  USELESS:          0
cpu0_STLB AVERAGE MISS LATENCY: 18.412 cycles
cpu0_L1D TOTAL     ACCESS:  428645660  HIT:  424147747  MISS:    4497913
cpu0_L1D LOAD      ACCESS:  227400271  HIT:  224693772  MISS:    2706499
cpu0_L1D RFO       ACCESS:  201174639  HIT:  199388333  MISS:    1786306
cpu0_L1D PREFETCH  ACCESS:          0  HIT:          0  MISS:          0
cpu0_L1D WRITEBACK ACCESS:          0  HIT:          0  MISS:          0
cpu0_L1D TRANSLATION ACCESS:      70750  HIT:      65642  MISS:       5108
cpu0_L1D PREFETCH  REQUESTED:          0  ISSUED:          0  USEFUL:          0  USELESS:          0
cpu0_L1D AVERAGE MISS LATENCY: 80.6393 cycles
cpu0_L2C TOTAL     ACCESS:   11595472  HIT:   10326486  MISS:    1268986
cpu0_L2C LOAD      ACCESS:    7332753  HIT:    6330895  MISS:    1001858
cpu0_L2C RFO       ACCESS:    1786273  HIT:    1520632  MISS:     265641
cpu0_L2C PREFETCH  ACCESS:          0  HIT:          0  MISS:          0
cpu0_L2C WRITEBACK ACCESS:    2471338  HIT:    2470111  MISS:       1227
cpu0_L2C TRANSLATION ACCESS:       5108  HIT:       4848  MISS:        260
cpu0_L2C PREFETCH  REQUESTED:          0  ISSUED:          0  USEFUL:          0  USELESS:          0
cpu0_L2C AVERAGE MISS LATENCY: 263.642 cycles
LLC TOTAL     ACCESS:    1920205  HIT:     151422  MISS:    1768783
LLC LOAD      ACCESS:    1001856  HIT:      62595  MISS:     939261
LLC RFO       ACCESS:     265641  HIT:      48593  MISS:     217048
LLC PREFETCH  ACCESS:          0  HIT:          0  MISS:          0
LLC WRITEBACK ACCESS:     652448  HIT:      40234  MISS:     612214
LLC TRANSLATION ACCESS:        260  HIT:          0  MISS:        260
LLC PREFETCH  REQUESTED:          0  ISSUED:          0  USEFUL:          0  USELESS:          0
LLC AVERAGE MISS LATENCY: 174.094 cycles
~~~~~~~~~~Reuse Distance Profiler output~~~~~~~~~~
0	0	0
1	0	0
2	0	0
3	0	0
4	0	0
5	0	0
6	0	0
7	0	0
8	0	0
9	0	0
10	0	0
11	0	0
12	0	0
13	0	0
14	0	0
15	0	0
16	0	0
17	0	0
18	0	0
19	0	0
20	0	0
21	0	0
22	0	0
23	0	0
24	0	0
25	0	0
26	0	0
27	0	0
28	0	0
29	0	0
30	0	0
31	0	0
32	0	0
33	0	0
34	0	0
35	0	0
36	0	0
37	0	0
38	0	0
39	0	0
40	0	0
41	0	0
42	0	0
43	0	0
44	0	0
45	0	0
46	0	0
47	0	0
48	0	0
49	0	0
50	0	0
51	0	0
52	0	0
53	0	0
54	0	0
55	0	0
56	0	0
57	0	0
58	0	0
59	0	0
60	0	0
61	0	0
62	0	0
63	0	0
64	0	0
66	0	0
68	0	0
70	0	0
72	0	0
74	0	0
76	0	0
78	0	0
80	0	0
82	0	0
84	0	0
86	0	0
88	0	0
90	0	0
92	0	0
94	0	0
96	0	0
98	0	0
100	0	0
102	0	0
104	0	0
106	0	0
108	0	0
110	0	0
112	0	0
114	0	0
116	0	0
118	0	0
120	0	0
122	0	0
124	0	0
126	0	0
128	0	0
132	0	0
136	0	0
140	0	0
144	0	0
148	0	0
152	0	0
156	0	0
160	0	0
164	0	0
168	0	0
172	0	0
176	0	0
180	0	0
184	0	0
188	0	0
192	0	0
196	0	0
200	0	0
204	0	0
208	0	0
212	0	0
216	0	0
220	0	0
224	0	0
228	0	0
232	0	0
236	0	0
240	0	0
244	0	0
248	0	0
252	0	0
256	0	0
264	0	0
272	0	0
280	0	0
288	0	0
296	0	0
304	0	0
312	0	0
320	0	0
328	0	0
336	0	0
344	0	0
352	0	0
360	0	0
368	0	0
376	0	0
384	0	0
392	0	0
400	0	0
408	0	0
416	0	0
424	0	0
432	0	0
440	0	0
448	0	0
456	0	0
464	0	0
472	0	0
480	0	0
488	0	0
496	0	0
504	0	0
512	0	0
528	0	0
544	0	0
560	0	0
576	0	0
592	0	0
608	0	0
624	0	0
640	0	0
656	0	0
672	0	0
688	0	0
704	0	0
720	0	0
736	0	0
752	0	0
768	0	0
784	0	0
800	0	0
816	0	0
832	0	0
848	0	0
864	0	0
880	0	0
896	0	0
912	0	0
928	0	0
944	0	0
960	0	0
976	0	0
992	0	0
1008	0	0
1024	0	0
1056	0	0
1088	0	0
1120	0	0
1152	0	0
1184	0	0
1216	0	0
1248	0	0
1280	0	0
1312	0	0
1344	0	0
1376	0	0
1408	0	0
1440	0	0
1472	0	0
1504	0	0
1536	0	0
1568	0	0
1600	0	0
1632	0	0
1664	0	0
1696	0	0
1728	0	0
1760	0	0
1792	0	0
1824	0	0
1856	0	0
1888	0	0
1920	0	0
1952	0	0
1984	0	0
2016	0	0
2048	0	0
2112	0	0
2176	0	0
2240	0	0
2304	0	0
2368	0	0
2432	0	0
2496	0	0
2560	0	0
2624	0	0
2688	0	0
2752	0	0
2816	0	0
2880	0	0
2944	0	0
3008	0	0
3072	0	0
3136	0	0
3200	0	0
3264	0	0
3328	0	0
3392	0	0
3456	0	0
3520	0	0
3584	0	0
3648	0	0
3712	0	0
3776	0	0
3840	0	0
3904	0	0
3968	0	0
4032	0	0
4096	0	0
4224	0	0
4352	0	0
4480	0	0
4608	0	0
4736	0	0
4864	0	0
4992	0	0
5120	0	0
5248	0	0
5376	0	0
5504	0	0
5632	0	0
5760	0	0
5888	0	0
6016	0	0
6144	0	0
6272	0	0
6400	0	0
6528	0	0
6656	0	0
6784	0	0
6912	0	0
7040	0	0
7168	0	0
7296	0	0
7424	0	0
7552	0	0
7680	0	0
7808	0	0
7936	0	0
8064	0	0
8192	0	0
8448	0	0
8704	0	0
8960	0	0
9216	0	0
9472	0	0
9728	0	0
9984	0	0
10240	0	0
10496	0	0
10752	0	0
11008	0	0
11264	0	0
11520	0	0
11776	0	0
12032	0	0
12288	0	0
12544	0	0
12800	0	0
13056	0	0
13312	0	0
13568	0	0
13824	0	0
14080	0	0
14336	0	0
14592	0	0
14848	0	0
15104	0	0
15360	0	0
15616	0	0
15872	0	0
16128	0	0
16384	0	0
16896	0	0
17408	0	0
17920	0	0
18432	0	0
18944	0	0
19456	0	0
19968	0	0
20480	0	0
20992	0	0
21504	0	0
22016	0	0
22528	0	0
23040	0	0
23552	0	0
24064	0	0
24576	0	0
25088	0	0
25600	0	0
26112	0	0
26624	0	0
27136	0	0
27648	0	0
28160	0	0
28672	0	0
29184	0	0
29696	0	0
30208	0	0
30720	0	0
31232	0	0
31744	0	0
32256	0	0
32768	0	0
33792	0	0
34816	0	0
35840	0	0
36864	0	0
37888	0	0
38912	0	0
39936	0	0
40960	0	0
41984	0	0
43008	0	0
44032	0	0
45056	0	0
46080	0	0
47104	0	0
48128	0	0
49152	0	0
50176	0	0
51200	0	0
52224	0	0
53248	0	0
54272	0	0
55296	0	0
56320	0	0
57344	0	0
58368	0	0
59392	0	0
60416	0	0
61440	0	0
62464	0	0
63488	0	0
64512	0	0
65536	0	0
67584	0	0
69632	0	0
71680	0	0
73728	0	0
75776	0	0
77824	0	0
79872	0	0
81920	0	0
83968	0	0
86016	0	0
88064	0	0
90112	0	0
92160	0	0
94208	0	0
96256	0	0
98304	0	0
100352	0	0
102400	0	0
104448	0	0
106496	0	0
108544	0	0
110592	0	0
112640	0	0
114688	0	0
116736	0	0
118784	0	0
120832	0	0
122880	0	0
124928	0	0
126976	0	0
129024	0	0
131072	0	0
135168	0	0
139264	0	0
143360	0	0
147456	0	0
151552	0	0
155648	0	0
159744	0	0
163840	0	0
167936	0	0
172032	0	0
176128	0	0
180224	0	0
184320	0	0
188416	0	0
192512	0	0
196608	0	0
200704	0	0
204800	0	0
208896	0	0
212992	0	0
217088	0	0
221184	0	0
225280	0	0
229376	0	0
233472	0	0
237568	0	0
241664	0	0
245760	0	0
249856	0	0
253952	0	0
258048	0	0
262144	0	0
270336	0	0
278528	0	0
286720	0	0
294912	0	0
303104	0	0
311296	0	0
319488	0	0
327680	0	0
335872	0	0
344064	0	0
352256	0	0
360448	0	0
368640	0	0
376832	0	0
385024	0	0
393216	0	0
401408	0	0
409600	0	0
417792	0	0
425984	0	0
434176	0	0
442368	0	0
450560	0	0
458752	0	0
466944	0	0
475136	0	0
483328	0	0
491520	0	0
499712	0	0
507904	0	0
516096	0	0
524288	0	0
540672	0	0
557056	0	0
573440	0	0
589824	0	0
606208	0	0
622592	0	0
638976	0	0
655360	0	0
671744	0	0
688128	0	0
704512	0	0
720896	0	0
737280	0	0
753664	0	0
770048	0	0
786432	0	0
802816	0	0
819200	0	0
835584	0	0
851968	0	0
868352	0	0
884736	0	0
901120	0	0
917504	0	0
933888	0	0
950272	0	0
966656	0	0
983040	0	0
999424	0	0
1015808	0	0
1032192	0	0
1048576	0	0
1081344	0	0
1114112	0	0
1146880	0	0
1179648	0	0
1212416	0	0
1245184	0	0
1277952	0	0
1310720	0	0
1343488	0	0
1376256	0	0
1409024	0	0
1441792	0	0
1474560	0	0
1507328	0	0
1540096	0	0
1572864	0	0
1605632	0	0
1638400	0	0
1671168	0	0
1703936	0	0
1736704	0	0
1769472	0	0
1802240	0	0
1835008	0	0
1867776	0	0
1900544	0	0
1933312	0	0
1966080	0	0
1998848	0	0
2031616	0	0
2064384	0	0
2097152	0	0
2162688	0	0
2228224	0	0
2293760	0	0
2359296	0	0
2424832	0	0
2490368	0	0
2555904	0	0
2621440	0	0
2686976	0	0
2752512	0	0
2818048	0	0
2883584	0	0
2949120	0	0
3014656	0	0
3080192	0	0
3145728	0	0
3211264	0	0
3276800	0	0
3342336	0	0
3407872	0	0
3473408	0	0
3538944	0	0
3604480	0	0
3670016	0	0
3735552	0	0
3801088	0	0
3866624	0	0
3932160	0	0
3997696	0	0
4063232	0	0
4128768	0	0
4194304	0	0
4325376	0	0
4456448	0	0
4587520	0	0
4718592	0	0
4849664	0	0
4980736	0	0
5111808	0	0
5242880	0	0
5373952	0	0
5505024	0	0
5636096	0	0
5767168	0	0
5898240	0	0
6029312	0	0
6160384	0	0
6291456	0	0
6422528	0	0
6553600	0	0
6684672	0	0
6815744	0	0
6946816	0	0
7077888	0	0
7208960	0	0
7340032	0	0
7471104	0	0
7602176	0	0
7733248	0	0
7864320	0	0
7995392	0	0
8126464	0	0
8257536	0	0
8388608	0	0
8650752	0	0
8912896	0	0
9175040	0	0
9437184	0	0
9699328	0	0
9961472	0	0
10223616	0	0
10485760	0	0
10747904	0	0
11010048	0	0
11272192	0	0
11534336	0	0
11796480	0	0
12058624	0	0
12320768	0	0
12582912	0	0
12845056	0	0
13107200	0	0
13369344	0	0
13631488	0	0
13893632	0	0
14155776	0	0
14417920	0	0
14680064	0	0
14942208	0	0
15204352	0	0
15466496	0	0
15728640	0	0
15990784	0	0
16252928	0	0
16515072	0	0
16777216	0	0
17301504	0	0
17825792	0	0
18350080	0	0
18874368	0	0
19398656	0	0
19922944	0	0
20447232	0	0
20971520	0	0
21495808	0	0
22020096	0	0
22544384	0	0
23068672	0	0
23592960	0	0
24117248	0	0
24641536	0	0
25165824	0	0
25690112	0	0
26214400	0	0
26738688	0	0
27262976	0	0
27787264	0	0
28311552	0	0
28835840	0	0
29360128	0	0
29884416	0	0
30408704	0	0
30932992	0	0
31457280	0	0
31981568	0	0
32505856	0	0
33030144	0	0
33554432	0	0
34603008	0	0
35651584	0	0
36700160	0	0
37748736	0	0
38797312	0	0
39845888	0	0
40894464	0	0
41943040	0	0
42991616	0	0
44040192	0	0
45088768	0	0
46137344	0	0
47185920	0	0
48234496	0	0
49283072	0	0
50331648	0	0
51380224	0	0
52428800	0	0
53477376	0	0
54525952	0	0
55574528	0	0
56623104	0	0
57671680	0	0
58720256	0	0
59768832	0	0
60817408	0	0
61865984	0	0
62914560	0	0
63963136	0	0
65011712	0	0
66060288	0	0
67108864	0	0
69206016	0	0
71303168	0	0
73400320	0	0
75497472	0	0
77594624	0	0
79691776	0	0
81788928	0	0
83886080	0	0
85983232	0	0
88080384	0	0
90177536	0	0
92274688	0	0
94371840	0	0
96468992	0	0
98566144	0	0
100663296	0	0
102760448	0	0
104857600	0	0
106954752	0	0
109051904	0	0
111149056	0	0
113246208	0	0
115343360	0	0
117440512	0	0
119537664	0	0
121634816	0	0
123731968	0	0
125829120	0	0
127926272	0	0
130023424	0	0
132120576	0	0
134217728	0	0
138412032	0	0
142606336	0	0
146800640	0	0
150994944	0	0
155189248	0	0
159383552	0	0
163577856	0	0
167772160	0	0
171966464	0	0
176160768	0	0
180355072	0	0
184549376	0	0
188743680	0	0
192937984	0	0
197132288	0	0
201326592	0	0
205520896	0	0
209715200	0	0
213909504	0	0
218103808	0	0
222298112	0	0
226492416	0	0
230686720	0	0
234881024	0	0
239075328	0	0
243269632	0	0
247463936	0	0
251658240	0	0
255852544	0	0
260046848	0	0
264241152	0	0
268435456	0	0
276824064	0	0
285212672	0	0
293601280	0	0
301989888	0	0
310378496	0	0
318767104	0	0
327155712	0	0
335544320	0	0
343932928	0	0
352321536	0	0
360710144	0	0
369098752	0	0
377487360	0	0
385875968	0	0
394264576	0	0
402653184	0	0
411041792	0	0
419430400	0	0
427819008	0	0
436207616	0	0
444596224	0	0
452984832	0	0
461373440	0	0
469762048	0	0
478150656	0	0
486539264	0	0
494927872	0	0
503316480	0	0
511705088	0	0
520093696	0	0
528482304	0	0
536870912	0	0
553648128	0	0
570425344	0	0
587202560	0	0
603979776	0	0
620756992	0	0
637534208	0	0
654311424	0	0
671088640	0	0
687865856	0	0
704643072	0	0
721420288	0	0
738197504	0	0
754974720	0	0
771751936	0	0
788529152	0	0
805306368	0	0
822083584	0	0
838860800	0	0
855638016	0	0
872415232	0	0
889192448	0	0
905969664	0	0
922746880	0	0
939524096	0	0
956301312	0	0
973078528	0	0
989855744	0	0
1006632960	0	0
1023410176	0	0
1040187392	0	0
1056964608	0	0
1073741824	0	0
1107296256	0	0
1140850688	0	0
1174405120	0	0
1207959552	0	0
1241513984	0	0
1275068416	0	0
1308622848	0	0
1342177280	0	0
1375731712	0	0
1409286144	0	0
1442840576	0	0
1476395008	0	0
1509949440	0	0
1543503872	0	0
1577058304	0	0
1610612736	0	0
1644167168	0	0
1677721600	0	0
1711276032	0	0
1744830464	0	0
1778384896	0	0
1811939328	0	0
1845493760	0	0
1879048192	0	0
1912602624	0	0
1946157056	0	0
1979711488	0	0
2013265920	0	0
2046820352	0	0
2080374784	0	0
2113929216	0	0
2147483648	0	0
2214592512	0	0
2281701376	0	0
2348810240	0	0
2415919104	0	0
2483027968	0	0
2550136832	0	0
2617245696	0	0
2684354560	0	0
2751463424	0	0
2818572288	0	0
2885681152	0	0
2952790016	0	0
3019898880	0	0
3087007744	0	0
3154116608	0	0
3221225472	0	0
3288334336	0	0
3355443200	0	0
3422552064	0	0
3489660928	0	0
3556769792	0	0
3623878656	0	0
3690987520	0	0
3758096384	0	0
3825205248	0	0
3892314112	0	0
3959422976	0	0
4026531840	0	0
4093640704	0	0
4160749568	0	0
4227858432	0	0
~~~~~~~~~~Reuse Distance Profiler output end~~~~~~~~~~


DRAM Statistics
 CHANNEL 0
 RQ ROW_BUFFER_HIT:     152370  ROW_BUFFER_MISS:    1002587
 DBUS AVG_CONGESTED_CYCLE:    3.95398
 WQ ROW_BUFFER_HIT:     127509  ROW_BUFFER_MISS:     514796  FULL:          0


CPU 0 Branch Prediction Accuracy: 86.1257% MPKI: 25.8481 Average ROB Occupancy at Mispredict: 14.1278
Branch type MPKI
BRANCH_DIRECT_JUMP: 0.000570667
BRANCH_INDIRECT: 0.000119333
BRANCH_CONDITIONAL: 25.8207
BRANCH_DIRECT_CALL: 0.00116933
BRANCH_INDIRECT_CALL: 0.0238013
BRANCH_RETURN: 0.00171867

