
*** ChampSim Multicore Out-of-Order Simulator ***

Warmup Instructions: 50000000
Simulation Instructions: 1500000000
Number of CPUs: 1
Off-chip DRAM Size: 4 GiB Channels: 1 Width: 64-bit Data Rate: 3200 MT/s

VirtualMemory physical capacity: 8588881920 num_ppages: 2096895
VirtualMemory page size: 4096 log2_page_size: 12

CPU 0 runs traces/458.sjeng-283B.champsimtrace.xz
CPU 0 Bimodal branch predictor
Basic BTB sets: 1024 ways: 8 indirect buffer size: 4096 RAS size: 64
Initializing LRU.
Initializing LRU.
Initializing LRU.
Initializing LRU.
Initializing rdLRU.
Initializing LRU.
Initializing LRU.
Heartbeat CPU 0 instructions: 2000001 cycles: 500248 heartbeat IPC: 3.99802 cumulative IPC: 3.99802 (Simulation time: 0 hr 0 min 42 sec) 
Heartbeat CPU 0 instructions: 4000000 cycles: 1000281 heartbeat IPC: 3.99973 cumulative IPC: 3.99888 (Simulation time: 0 hr 1 min 25 sec) 
Heartbeat CPU 0 instructions: 6000000 cycles: 1500281 heartbeat IPC: 4 cumulative IPC: 3.99925 (Simulation time: 0 hr 2 min 10 sec) 
Heartbeat CPU 0 instructions: 8000000 cycles: 2000281 heartbeat IPC: 4 cumulative IPC: 3.99944 (Simulation time: 0 hr 2 min 57 sec) 
Heartbeat CPU 0 instructions: 10000000 cycles: 2500281 heartbeat IPC: 4 cumulative IPC: 3.99955 (Simulation time: 0 hr 3 min 41 sec) 
Heartbeat CPU 0 instructions: 12000000 cycles: 3000281 heartbeat IPC: 4 cumulative IPC: 3.99963 (Simulation time: 0 hr 4 min 23 sec) 
Heartbeat CPU 0 instructions: 14000000 cycles: 3500281 heartbeat IPC: 4 cumulative IPC: 3.99968 (Simulation time: 0 hr 5 min 4 sec) 
Heartbeat CPU 0 instructions: 16000000 cycles: 4000281 heartbeat IPC: 4 cumulative IPC: 3.99972 (Simulation time: 0 hr 5 min 41 sec) 
Heartbeat CPU 0 instructions: 18000001 cycles: 4500285 heartbeat IPC: 3.99997 cumulative IPC: 3.99975 (Simulation time: 0 hr 6 min 21 sec) 
Heartbeat CPU 0 instructions: 20000001 cycles: 5000329 heartbeat IPC: 3.99965 cumulative IPC: 3.99974 (Simulation time: 0 hr 7 min 2 sec) 
Heartbeat CPU 0 instructions: 22000001 cycles: 5500329 heartbeat IPC: 4 cumulative IPC: 3.99976 (Simulation time: 0 hr 7 min 45 sec) 
Heartbeat CPU 0 instructions: 24000002 cycles: 6000346 heartbeat IPC: 3.99987 cumulative IPC: 3.99977 (Simulation time: 0 hr 8 min 26 sec) 
Heartbeat CPU 0 instructions: 26000002 cycles: 6500346 heartbeat IPC: 4 cumulative IPC: 3.99979 (Simulation time: 0 hr 9 min 8 sec) 
Heartbeat CPU 0 instructions: 28000002 cycles: 7000346 heartbeat IPC: 4 cumulative IPC: 3.9998 (Simulation time: 0 hr 9 min 52 sec) 
Heartbeat CPU 0 instructions: 30000002 cycles: 7500346 heartbeat IPC: 4 cumulative IPC: 3.99982 (Simulation time: 0 hr 10 min 37 sec) 
Heartbeat CPU 0 instructions: 32000002 cycles: 8000346 heartbeat IPC: 4 cumulative IPC: 3.99983 (Simulation time: 0 hr 11 min 20 sec) 
Heartbeat CPU 0 instructions: 34000002 cycles: 8500346 heartbeat IPC: 4 cumulative IPC: 3.99984 (Simulation time: 0 hr 12 min 1 sec) 
Heartbeat CPU 0 instructions: 36000002 cycles: 9000346 heartbeat IPC: 4 cumulative IPC: 3.99985 (Simulation time: 0 hr 12 min 48 sec) 
Heartbeat CPU 0 instructions: 38000002 cycles: 9500346 heartbeat IPC: 4 cumulative IPC: 3.99985 (Simulation time: 0 hr 13 min 33 sec) 
Heartbeat CPU 0 instructions: 40000002 cycles: 10000346 heartbeat IPC: 4 cumulative IPC: 3.99986 (Simulation time: 0 hr 14 min 20 sec) 
Heartbeat CPU 0 instructions: 42000002 cycles: 10500346 heartbeat IPC: 4 cumulative IPC: 3.99987 (Simulation time: 0 hr 15 min 6 sec) 
Heartbeat CPU 0 instructions: 44000002 cycles: 11000346 heartbeat IPC: 4 cumulative IPC: 3.99987 (Simulation time: 0 hr 15 min 53 sec) 
Heartbeat CPU 0 instructions: 46000002 cycles: 11500346 heartbeat IPC: 4 cumulative IPC: 3.99988 (Simulation time: 0 hr 16 min 40 sec) 
Heartbeat CPU 0 instructions: 48000002 cycles: 12000346 heartbeat IPC: 4 cumulative IPC: 3.99988 (Simulation time: 0 hr 17 min 24 sec) 
Heartbeat CPU 0 instructions: 50000002 cycles: 12500346 heartbeat IPC: 4 cumulative IPC: 3.99989 (Simulation time: 0 hr 18 min 8 sec) 

Warmup complete CPU 0 instructions: 50000002 cycles: 12500346 (Simulation time: 0 hr 18 min 8 sec) 

Heartbeat CPU 0 instructions: 52000001 cycles: 15000360 heartbeat IPC: 0.799995 cumulative IPC: 0.799995 (Simulation time: 0 hr 19 min 6 sec) 

Region of Interest Statistics
cpu0_DTLB TOTAL     ACCESS:     435085  HIT:     432115  MISS:       2970
cpu0_DTLB LOAD      ACCESS:     332795  HIT:     330146  MISS:       2649
cpu0_DTLB RFO       ACCESS:     102290  HIT:     101969  MISS:        321
cpu0_DTLB PREFETCH  ACCESS:          0  HIT:          0  MISS:          0
cpu0_DTLB WRITEBACK ACCESS:          0  HIT:          0  MISS:          0
cpu0_ITLB TOTAL     ACCESS:     198668  HIT:     198668  MISS:          0
cpu0_ITLB LOAD      ACCESS:     198668  HIT:     198668  MISS:          0
cpu0_ITLB RFO       ACCESS:          0  HIT:          0  MISS:          0
cpu0_ITLB PREFETCH  ACCESS:          0  HIT:          0  MISS:          0
cpu0_ITLB WRITEBACK ACCESS:          0  HIT:          0  MISS:          0
cpu0_L1I TOTAL     ACCESS:     150554  HIT:     150541  MISS:         13
cpu0_L1I LOAD      ACCESS:     150554  HIT:     150541  MISS:         13
cpu0_L1I RFO       ACCESS:          0  HIT:          0  MISS:          0
cpu0_L1I PREFETCH  ACCESS:          0  HIT:          0  MISS:          0
cpu0_L1I WRITEBACK ACCESS:          0  HIT:          0  MISS:          0
cpu0_STLB TOTAL     ACCESS:       2970  HIT:       2197  MISS:        773
cpu0_STLB LOAD      ACCESS:       2649  HIT:       1878  MISS:        771
cpu0_STLB RFO       ACCESS:        321  HIT:        319  MISS:          2
cpu0_STLB PREFETCH  ACCESS:          0  HIT:          0  MISS:          0
cpu0_STLB WRITEBACK ACCESS:          0  HIT:          0  MISS:          0
cpu0_L1D TOTAL     ACCESS:     527317  HIT:     526000  MISS:       1317
cpu0_L1D LOAD      ACCESS:     357917  HIT:     356768  MISS:       1149
cpu0_L1D RFO       ACCESS:     168627  HIT:     168461  MISS:        166
cpu0_L1D PREFETCH  ACCESS:          0  HIT:          0  MISS:          0
cpu0_L1D WRITEBACK ACCESS:          0  HIT:          0  MISS:          0
cpu0_L2C TOTAL     ACCESS:       2224  HIT:       1290  MISS:        934
cpu0_L2C LOAD      ACCESS:       1162  HIT:        303  MISS:        859
cpu0_L2C RFO       ACCESS:        166  HIT:        105  MISS:         61
cpu0_L2C PREFETCH  ACCESS:          0  HIT:          0  MISS:          0
cpu0_L2C WRITEBACK ACCESS:        894  HIT:        881  MISS:         13
LLC TOTAL     ACCESS:       1649  HIT:          1  MISS:       1648
LLC LOAD      ACCESS:        859  HIT:          1  MISS:        858
LLC RFO       ACCESS:         61  HIT:          0  MISS:         61
LLC PREFETCH  ACCESS:          0  HIT:          0  MISS:          0
LLC WRITEBACK ACCESS:        728  HIT:          0  MISS:        728
Heartbeat CPU 0 instructions: 54000002 cycles: 17537660 heartbeat IPC: 0.78824 cumulative IPC: 0.794074 (Simulation time: 0 hr 20 min 1 sec) 

Region of Interest Statistics
cpu0_DTLB TOTAL     ACCESS:     883127  HIT:     876893  MISS:       6234
cpu0_DTLB LOAD      ACCESS:     671356  HIT:     665884  MISS:       5472
cpu0_DTLB RFO       ACCESS:     211771  HIT:     211009  MISS:        762
cpu0_DTLB PREFETCH  ACCESS:          0  HIT:          0  MISS:          0
cpu0_DTLB WRITEBACK ACCESS:          0  HIT:          0  MISS:          0
cpu0_ITLB TOTAL     ACCESS:     393776  HIT:     393776  MISS:          0
cpu0_ITLB LOAD      ACCESS:     393776  HIT:     393776  MISS:          0
cpu0_ITLB RFO       ACCESS:          0  HIT:          0  MISS:          0
cpu0_ITLB PREFETCH  ACCESS:          0  HIT:          0  MISS:          0
cpu0_ITLB WRITEBACK ACCESS:          0  HIT:          0  MISS:          0
cpu0_L1I TOTAL     ACCESS:     300743  HIT:     300672  MISS:         71
cpu0_L1I LOAD      ACCESS:     300743  HIT:     300672  MISS:         71
cpu0_L1I RFO       ACCESS:          0  HIT:          0  MISS:          0
cpu0_L1I PREFETCH  ACCESS:          0  HIT:          0  MISS:          0
cpu0_L1I WRITEBACK ACCESS:          0  HIT:          0  MISS:          0
cpu0_STLB TOTAL     ACCESS:       6234  HIT:       4655  MISS:       1579
cpu0_STLB LOAD      ACCESS:       5472  HIT:       3903  MISS:       1569
cpu0_STLB RFO       ACCESS:        762  HIT:        752  MISS:         10
cpu0_STLB PREFETCH  ACCESS:          0  HIT:          0  MISS:          0
cpu0_STLB WRITEBACK ACCESS:          0  HIT:          0  MISS:          0
cpu0_L1D TOTAL     ACCESS:    1062582  HIT:    1059503  MISS:       3079
cpu0_L1D LOAD      ACCESS:     711855  HIT:     709327  MISS:       2528
cpu0_L1D RFO       ACCESS:     349148  HIT:     348605  MISS:        543
cpu0_L1D PREFETCH  ACCESS:          0  HIT:          0  MISS:          0
cpu0_L1D WRITEBACK ACCESS:          0  HIT:          0  MISS:          0
cpu0_L2C TOTAL     ACCESS:       5162  HIT:       3124  MISS:       2038
cpu0_L2C LOAD      ACCESS:       2599  HIT:        763  MISS:       1836
cpu0_L2C RFO       ACCESS:        543  HIT:        370  MISS:        173
cpu0_L2C PREFETCH  ACCESS:          0  HIT:          0  MISS:          0
cpu0_L2C WRITEBACK ACCESS:       2012  HIT:       1984  MISS:         28
LLC TOTAL     ACCESS:       3604  HIT:          5  MISS:       3599
LLC LOAD      ACCESS:       1836  HIT:          3  MISS:       1833
LLC RFO       ACCESS:        173  HIT:          2  MISS:        171
LLC PREFETCH  ACCESS:          0  HIT:          0  MISS:          0
LLC WRITEBACK ACCESS:       1594  HIT:          0  MISS:       1594
Heartbeat CPU 0 instructions: 56000003 cycles: 20085285 heartbeat IPC: 0.785045 cumulative IPC: 0.791041 (Simulation time: 0 hr 20 min 54 sec) 

Region of Interest Statistics
cpu0_DTLB TOTAL     ACCESS:    1329823  HIT:    1320342  MISS:       9481
cpu0_DTLB LOAD      ACCESS:    1012505  HIT:    1004319  MISS:       8186
cpu0_DTLB RFO       ACCESS:     317318  HIT:     316023  MISS:       1295
cpu0_DTLB PREFETCH  ACCESS:          0  HIT:          0  MISS:          0
cpu0_DTLB WRITEBACK ACCESS:          0  HIT:          0  MISS:          0
cpu0_ITLB TOTAL     ACCESS:     588539  HIT:     588539  MISS:          0
cpu0_ITLB LOAD      ACCESS:     588539  HIT:     588539  MISS:          0
cpu0_ITLB RFO       ACCESS:          0  HIT:          0  MISS:          0
cpu0_ITLB PREFETCH  ACCESS:          0  HIT:          0  MISS:          0
cpu0_ITLB WRITEBACK ACCESS:          0  HIT:          0  MISS:          0
cpu0_L1I TOTAL     ACCESS:     452393  HIT:     452296  MISS:         97
cpu0_L1I LOAD      ACCESS:     452393  HIT:     452296  MISS:         97
cpu0_L1I RFO       ACCESS:          0  HIT:          0  MISS:          0
cpu0_L1I PREFETCH  ACCESS:          0  HIT:          0  MISS:          0
cpu0_L1I WRITEBACK ACCESS:          0  HIT:          0  MISS:          0
cpu0_STLB TOTAL     ACCESS:       9481  HIT:       7135  MISS:       2346
cpu0_STLB LOAD      ACCESS:       8186  HIT:       5856  MISS:       2330
cpu0_STLB RFO       ACCESS:       1295  HIT:       1279  MISS:         16
cpu0_STLB PREFETCH  ACCESS:          0  HIT:          0  MISS:          0
cpu0_STLB WRITEBACK ACCESS:          0  HIT:          0  MISS:          0
cpu0_L1D TOTAL     ACCESS:    1596520  HIT:    1591909  MISS:       4611
cpu0_L1D LOAD      ACCESS:    1068330  HIT:    1064573  MISS:       3757
cpu0_L1D RFO       ACCESS:     525844  HIT:     525000  MISS:        844
cpu0_L1D PREFETCH  ACCESS:          0  HIT:          0  MISS:          0
cpu0_L1D WRITEBACK ACCESS:          0  HIT:          0  MISS:          0
cpu0_L2C TOTAL     ACCESS:       7817  HIT:       4786  MISS:       3031
cpu0_L2C LOAD      ACCESS:       3854  HIT:       1138  MISS:       2716
cpu0_L2C RFO       ACCESS:        844  HIT:        559  MISS:        285
cpu0_L2C PREFETCH  ACCESS:          0  HIT:          0  MISS:          0
cpu0_L2C WRITEBACK ACCESS:       3109  HIT:       3080  MISS:         29
LLC TOTAL     ACCESS:       5377  HIT:          5  MISS:       5372
LLC LOAD      ACCESS:       2716  HIT:          3  MISS:       2713
LLC RFO       ACCESS:        285  HIT:          2  MISS:        283
LLC PREFETCH  ACCESS:          0  HIT:          0  MISS:          0
LLC WRITEBACK ACCESS:       2375  HIT:          0  MISS:       2375
Heartbeat CPU 0 instructions: 58000004 cycles: 22549554 heartbeat IPC: 0.8116 cumulative IPC: 0.796083 (Simulation time: 0 hr 21 min 50 sec) 

Region of Interest Statistics
cpu0_DTLB TOTAL     ACCESS:    1777283  HIT:    1764606  MISS:      12677
cpu0_DTLB LOAD      ACCESS:    1350789  HIT:    1339935  MISS:      10854
cpu0_DTLB RFO       ACCESS:     426494  HIT:     424671  MISS:       1823
cpu0_DTLB PREFETCH  ACCESS:          0  HIT:          0  MISS:          0
cpu0_DTLB WRITEBACK ACCESS:          0  HIT:          0  MISS:          0
cpu0_ITLB TOTAL     ACCESS:     785937  HIT:     785937  MISS:          0
cpu0_ITLB LOAD      ACCESS:     785937  HIT:     785937  MISS:          0
cpu0_ITLB RFO       ACCESS:          0  HIT:          0  MISS:          0
cpu0_ITLB PREFETCH  ACCESS:          0  HIT:          0  MISS:          0
cpu0_ITLB WRITEBACK ACCESS:          0  HIT:          0  MISS:          0
cpu0_L1I TOTAL     ACCESS:     593354  HIT:     593245  MISS:        109
cpu0_L1I LOAD      ACCESS:     593354  HIT:     593245  MISS:        109
cpu0_L1I RFO       ACCESS:          0  HIT:          0  MISS:          0
cpu0_L1I PREFETCH  ACCESS:          0  HIT:          0  MISS:          0
cpu0_L1I WRITEBACK ACCESS:          0  HIT:          0  MISS:          0
cpu0_STLB TOTAL     ACCESS:      12677  HIT:       9650  MISS:       3027
cpu0_STLB LOAD      ACCESS:      10854  HIT:       7845  MISS:       3009
cpu0_STLB RFO       ACCESS:       1823  HIT:       1805  MISS:         18
cpu0_STLB PREFETCH  ACCESS:          0  HIT:          0  MISS:          0
cpu0_STLB WRITEBACK ACCESS:          0  HIT:          0  MISS:          0
cpu0_L1D TOTAL     ACCESS:    2131064  HIT:    2124972  MISS:       6092
cpu0_L1D LOAD      ACCESS:    1418610  HIT:    1413725  MISS:       4885
cpu0_L1D RFO       ACCESS:     709427  HIT:     708232  MISS:       1195
cpu0_L1D PREFETCH  ACCESS:          0  HIT:          0  MISS:          0
cpu0_L1D WRITEBACK ACCESS:          0  HIT:          0  MISS:          0
cpu0_L2C TOTAL     ACCESS:      10335  HIT:       6470  MISS:       3865
cpu0_L2C LOAD      ACCESS:       4994  HIT:       1505  MISS:       3489
cpu0_L2C RFO       ACCESS:       1195  HIT:        852  MISS:        343
cpu0_L2C PREFETCH  ACCESS:          0  HIT:          0  MISS:          0
cpu0_L2C WRITEBACK ACCESS:       4134  HIT:       4103  MISS:         31
LLC TOTAL     ACCESS:       6866  HIT:          6  MISS:       6860
LLC LOAD      ACCESS:       3489  HIT:          4  MISS:       3485
LLC RFO       ACCESS:        343  HIT:          2  MISS:        341
LLC PREFETCH  ACCESS:          0  HIT:          0  MISS:          0
LLC WRITEBACK ACCESS:       3032  HIT:          0  MISS:       3032
Heartbeat CPU 0 instructions: 60000003 cycles: 25128141 heartbeat IPC: 0.775618 cumulative IPC: 0.791904 (Simulation time: 0 hr 22 min 46 sec) 

Region of Interest Statistics
cpu0_DTLB TOTAL     ACCESS:    2224402  HIT:    2208243  MISS:      16159
cpu0_DTLB LOAD      ACCESS:    1692230  HIT:    1678452  MISS:      13778
cpu0_DTLB RFO       ACCESS:     532172  HIT:     529791  MISS:       2381
cpu0_DTLB PREFETCH  ACCESS:          0  HIT:          0  MISS:          0
cpu0_DTLB WRITEBACK ACCESS:          0  HIT:          0  MISS:          0
cpu0_ITLB TOTAL     ACCESS:     979902  HIT:     979902  MISS:          0
cpu0_ITLB LOAD      ACCESS:     979902  HIT:     979902  MISS:          0
cpu0_ITLB RFO       ACCESS:          0  HIT:          0  MISS:          0
cpu0_ITLB PREFETCH  ACCESS:          0  HIT:          0  MISS:          0
cpu0_ITLB WRITEBACK ACCESS:          0  HIT:          0  MISS:          0
cpu0_L1I TOTAL     ACCESS:     747508  HIT:     747377  MISS:        131
cpu0_L1I LOAD      ACCESS:     747508  HIT:     747377  MISS:        131
cpu0_L1I RFO       ACCESS:          0  HIT:          0  MISS:          0
cpu0_L1I PREFETCH  ACCESS:          0  HIT:          0  MISS:          0
cpu0_L1I WRITEBACK ACCESS:          0  HIT:          0  MISS:          0
cpu0_STLB TOTAL     ACCESS:      16159  HIT:      12407  MISS:       3752
cpu0_STLB LOAD      ACCESS:      13778  HIT:      10046  MISS:       3732
cpu0_STLB RFO       ACCESS:       2381  HIT:       2361  MISS:         20
cpu0_STLB PREFETCH  ACCESS:          0  HIT:          0  MISS:          0
cpu0_STLB WRITEBACK ACCESS:          0  HIT:          0  MISS:          0
cpu0_L1D TOTAL     ACCESS:    2668082  HIT:    2660623  MISS:       7459
cpu0_L1D LOAD      ACCESS:    1776664  HIT:    1770646  MISS:       6018
cpu0_L1D RFO       ACCESS:     887666  HIT:     886240  MISS:       1426
cpu0_L1D PREFETCH  ACCESS:          0  HIT:          0  MISS:          0
cpu0_L1D WRITEBACK ACCESS:          0  HIT:          0  MISS:          0
cpu0_L2C TOTAL     ACCESS:      12744  HIT:       8007  MISS:       4737
cpu0_L2C LOAD      ACCESS:       6149  HIT:       1844  MISS:       4305
cpu0_L2C RFO       ACCESS:       1425  HIT:       1027  MISS:        398
cpu0_L2C PREFETCH  ACCESS:          0  HIT:          0  MISS:          0
cpu0_L2C WRITEBACK ACCESS:       5155  HIT:       5123  MISS:         32
LLC TOTAL     ACCESS:       8433  HIT:          6  MISS:       8427
LLC LOAD      ACCESS:       4305  HIT:          4  MISS:       4301
LLC RFO       ACCESS:        398  HIT:          2  MISS:        396
LLC PREFETCH  ACCESS:          0  HIT:          0  MISS:          0
LLC WRITEBACK ACCESS:       3728  HIT:          0  MISS:       3728
Heartbeat CPU 0 instructions: 62000003 cycles: 27686761 heartbeat IPC: 0.781671 cumulative IPC: 0.79018 (Simulation time: 0 hr 23 min 45 sec) 

Region of Interest Statistics
cpu0_DTLB TOTAL     ACCESS:    2665546  HIT:    2645992  MISS:      19554
cpu0_DTLB LOAD      ACCESS:    2027068  HIT:    2010385  MISS:      16683
cpu0_DTLB RFO       ACCESS:     638478  HIT:     635607  MISS:       2871
cpu0_DTLB PREFETCH  ACCESS:          0  HIT:          0  MISS:          0
cpu0_DTLB WRITEBACK ACCESS:          0  HIT:          0  MISS:          0
cpu0_ITLB TOTAL     ACCESS:    1177544  HIT:    1177544  MISS:          0
cpu0_ITLB LOAD      ACCESS:    1177544  HIT:    1177544  MISS:          0
cpu0_ITLB RFO       ACCESS:          0  HIT:          0  MISS:          0
cpu0_ITLB PREFETCH  ACCESS:          0  HIT:          0  MISS:          0
cpu0_ITLB WRITEBACK ACCESS:          0  HIT:          0  MISS:          0
cpu0_L1I TOTAL     ACCESS:     896703  HIT:     896559  MISS:        144
cpu0_L1I LOAD      ACCESS:     896703  HIT:     896559  MISS:        144
cpu0_L1I RFO       ACCESS:          0  HIT:          0  MISS:          0
cpu0_L1I PREFETCH  ACCESS:          0  HIT:          0  MISS:          0
cpu0_L1I WRITEBACK ACCESS:          0  HIT:          0  MISS:          0
cpu0_STLB TOTAL     ACCESS:      19554  HIT:      14874  MISS:       4680
cpu0_STLB LOAD      ACCESS:      16683  HIT:      12029  MISS:       4654
cpu0_STLB RFO       ACCESS:       2871  HIT:       2845  MISS:         26
cpu0_STLB PREFETCH  ACCESS:          0  HIT:          0  MISS:          0
cpu0_STLB WRITEBACK ACCESS:          0  HIT:          0  MISS:          0
cpu0_L1D TOTAL     ACCESS:    3196636  HIT:    3187275  MISS:       9361
cpu0_L1D LOAD      ACCESS:    2127334  HIT:    2119827  MISS:       7507
cpu0_L1D RFO       ACCESS:    1064622  HIT:    1062786  MISS:       1836
cpu0_L1D PREFETCH  ACCESS:          0  HIT:          0  MISS:          0
cpu0_L1D WRITEBACK ACCESS:          0  HIT:          0  MISS:          0
cpu0_L2C TOTAL     ACCESS:      15884  HIT:      10125  MISS:       5759
cpu0_L2C LOAD      ACCESS:       7651  HIT:       2394  MISS:       5257
cpu0_L2C RFO       ACCESS:       1835  HIT:       1370  MISS:        465
cpu0_L2C PREFETCH  ACCESS:          0  HIT:          0  MISS:          0
cpu0_L2C WRITEBACK ACCESS:       6380  HIT:       6345  MISS:         35
LLC TOTAL     ACCESS:      10276  HIT:          7  MISS:      10269
LLC LOAD      ACCESS:       5257  HIT:          5  MISS:       5252
LLC RFO       ACCESS:        465  HIT:          2  MISS:        463
LLC PREFETCH  ACCESS:          0  HIT:          0  MISS:          0
LLC WRITEBACK ACCESS:       4552  HIT:          0  MISS:       4552
Heartbeat CPU 0 instructions: 64000000 cycles: 30244719 heartbeat IPC: 0.781873 cumulative IPC: 0.788982 (Simulation time: 0 hr 24 min 43 sec) 

Region of Interest Statistics
cpu0_DTLB TOTAL     ACCESS:    3111313  HIT:    3088348  MISS:      22965
cpu0_DTLB LOAD      ACCESS:    2364357  HIT:    2344709  MISS:      19648
cpu0_DTLB RFO       ACCESS:     746956  HIT:     743639  MISS:       3317
cpu0_DTLB PREFETCH  ACCESS:          0  HIT:          0  MISS:          0
cpu0_DTLB WRITEBACK ACCESS:          0  HIT:          0  MISS:          0
cpu0_ITLB TOTAL     ACCESS:    1372548  HIT:    1372548  MISS:          0
cpu0_ITLB LOAD      ACCESS:    1372548  HIT:    1372548  MISS:          0
cpu0_ITLB RFO       ACCESS:          0  HIT:          0  MISS:          0
cpu0_ITLB PREFETCH  ACCESS:          0  HIT:          0  MISS:          0
cpu0_ITLB WRITEBACK ACCESS:          0  HIT:          0  MISS:          0
cpu0_L1I TOTAL     ACCESS:    1055867  HIT:    1055687  MISS:        180
cpu0_L1I LOAD      ACCESS:    1055867  HIT:    1055687  MISS:        180
cpu0_L1I RFO       ACCESS:          0  HIT:          0  MISS:          0
cpu0_L1I PREFETCH  ACCESS:          0  HIT:          0  MISS:          0
cpu0_L1I WRITEBACK ACCESS:          0  HIT:          0  MISS:          0
cpu0_STLB TOTAL     ACCESS:      22965  HIT:      17460  MISS:       5505
cpu0_STLB LOAD      ACCESS:      19648  HIT:      14173  MISS:       5475
cpu0_STLB RFO       ACCESS:       3317  HIT:       3287  MISS:         30
cpu0_STLB PREFETCH  ACCESS:          0  HIT:          0  MISS:          0
cpu0_STLB WRITEBACK ACCESS:          0  HIT:          0  MISS:          0
cpu0_L1D TOTAL     ACCESS:    3728365  HIT:    3717436  MISS:      10929
cpu0_L1D LOAD      ACCESS:    2481614  HIT:    2472861  MISS:       8753
cpu0_L1D RFO       ACCESS:    1241246  HIT:    1239094  MISS:       2152
cpu0_L1D PREFETCH  ACCESS:          0  HIT:          0  MISS:          0
cpu0_L1D WRITEBACK ACCESS:          0  HIT:          0  MISS:          0
cpu0_L2C TOTAL     ACCESS:      18534  HIT:      11797  MISS:       6737
cpu0_L2C LOAD      ACCESS:       8933  HIT:       2776  MISS:       6157
cpu0_L2C RFO       ACCESS:       2151  HIT:       1611  MISS:        540
cpu0_L2C PREFETCH  ACCESS:          0  HIT:          0  MISS:          0
cpu0_L2C WRITEBACK ACCESS:       7426  HIT:       7388  MISS:         38
LLC TOTAL     ACCESS:      12052  HIT:         12  MISS:      12040
LLC LOAD      ACCESS:       6157  HIT:          7  MISS:       6150
LLC RFO       ACCESS:        540  HIT:          5  MISS:        535
LLC PREFETCH  ACCESS:          0  HIT:          0  MISS:          0
LLC WRITEBACK ACCESS:       5353  HIT:          0  MISS:       5353
Heartbeat CPU 0 instructions: 66000002 cycles: 32794487 heartbeat IPC: 0.784386 cumulative IPC: 0.788405 (Simulation time: 0 hr 25 min 42 sec) 

Region of Interest Statistics
cpu0_DTLB TOTAL     ACCESS:    3562813  HIT:    3536308  MISS:      26505
cpu0_DTLB LOAD      ACCESS:    2704138  HIT:    2681509  MISS:      22629
cpu0_DTLB RFO       ACCESS:     858675  HIT:     854799  MISS:       3876
cpu0_DTLB PREFETCH  ACCESS:          0  HIT:          0  MISS:          0
cpu0_DTLB WRITEBACK ACCESS:          0  HIT:          0  MISS:          0
cpu0_ITLB TOTAL     ACCESS:    1569407  HIT:    1569407  MISS:          0
cpu0_ITLB LOAD      ACCESS:    1569407  HIT:    1569407  MISS:          0
cpu0_ITLB RFO       ACCESS:          0  HIT:          0  MISS:          0
cpu0_ITLB PREFETCH  ACCESS:          0  HIT:          0  MISS:          0
cpu0_ITLB WRITEBACK ACCESS:          0  HIT:          0  MISS:          0
cpu0_L1I TOTAL     ACCESS:    1213085  HIT:    1212820  MISS:        265
cpu0_L1I LOAD      ACCESS:    1213085  HIT:    1212820  MISS:        265
cpu0_L1I RFO       ACCESS:          0  HIT:          0  MISS:          0
cpu0_L1I PREFETCH  ACCESS:          0  HIT:          0  MISS:          0
cpu0_L1I WRITEBACK ACCESS:          0  HIT:          0  MISS:          0
cpu0_STLB TOTAL     ACCESS:      26505  HIT:      20108  MISS:       6397
cpu0_STLB LOAD      ACCESS:      22629  HIT:      16263  MISS:       6366
cpu0_STLB RFO       ACCESS:       3876  HIT:       3845  MISS:         31
cpu0_STLB PREFETCH  ACCESS:          0  HIT:          0  MISS:          0
cpu0_STLB WRITEBACK ACCESS:          0  HIT:          0  MISS:          0
cpu0_L1D TOTAL     ACCESS:    4264133  HIT:    4251415  MISS:      12718
cpu0_L1D LOAD      ACCESS:    2834382  HIT:    2824271  MISS:      10111
cpu0_L1D RFO       ACCESS:    1423354  HIT:    1420775  MISS:       2579
cpu0_L1D PREFETCH  ACCESS:          0  HIT:          0  MISS:          0
cpu0_L1D WRITEBACK ACCESS:          0  HIT:          0  MISS:          0
cpu0_L2C TOTAL     ACCESS:      21588  HIT:      13791  MISS:       7797
cpu0_L2C LOAD      ACCESS:      10376  HIT:       3246  MISS:       7130
cpu0_L2C RFO       ACCESS:       2578  HIT:       1952  MISS:        626
cpu0_L2C PREFETCH  ACCESS:          0  HIT:          0  MISS:          0
cpu0_L2C WRITEBACK ACCESS:       8606  HIT:       8567  MISS:         39
LLC TOTAL     ACCESS:      13983  HIT:         12  MISS:      13971
LLC LOAD      ACCESS:       7130  HIT:          7  MISS:       7123
LLC RFO       ACCESS:        626  HIT:          5  MISS:        621
LLC PREFETCH  ACCESS:          0  HIT:          0  MISS:          0
LLC WRITEBACK ACCESS:       6225  HIT:          0  MISS:       6225
Heartbeat CPU 0 instructions: 68000001 cycles: 35383217 heartbeat IPC: 0.772579 cumulative IPC: 0.786615 (Simulation time: 0 hr 26 min 38 sec) 

Region of Interest Statistics
cpu0_DTLB TOTAL     ACCESS:    4009384  HIT:    3979765  MISS:      29619
cpu0_DTLB LOAD      ACCESS:    3040060  HIT:    3014873  MISS:      25187
cpu0_DTLB RFO       ACCESS:     969324  HIT:     964892  MISS:       4432
cpu0_DTLB PREFETCH  ACCESS:          0  HIT:          0  MISS:          0
cpu0_DTLB WRITEBACK ACCESS:          0  HIT:          0  MISS:          0
cpu0_ITLB TOTAL     ACCESS:    1763765  HIT:    1763765  MISS:          0
cpu0_ITLB LOAD      ACCESS:    1763765  HIT:    1763765  MISS:          0
cpu0_ITLB RFO       ACCESS:          0  HIT:          0  MISS:          0
cpu0_ITLB PREFETCH  ACCESS:          0  HIT:          0  MISS:          0
cpu0_ITLB WRITEBACK ACCESS:          0  HIT:          0  MISS:          0
cpu0_L1I TOTAL     ACCESS:    1367452  HIT:    1367154  MISS:        298
cpu0_L1I LOAD      ACCESS:    1367452  HIT:    1367154  MISS:        298
cpu0_L1I RFO       ACCESS:          0  HIT:          0  MISS:          0
cpu0_L1I PREFETCH  ACCESS:          0  HIT:          0  MISS:          0
cpu0_L1I WRITEBACK ACCESS:          0  HIT:          0  MISS:          0
cpu0_STLB TOTAL     ACCESS:      29619  HIT:      22319  MISS:       7300
cpu0_STLB LOAD      ACCESS:      25187  HIT:      17929  MISS:       7258
cpu0_STLB RFO       ACCESS:       4432  HIT:       4390  MISS:         42
cpu0_STLB PREFETCH  ACCESS:          0  HIT:          0  MISS:          0
cpu0_STLB WRITEBACK ACCESS:          0  HIT:          0  MISS:          0
cpu0_L1D TOTAL     ACCESS:    4798165  HIT:    4783558  MISS:      14607
cpu0_L1D LOAD      ACCESS:    3183627  HIT:    3172128  MISS:      11499
cpu0_L1D RFO       ACCESS:    1607238  HIT:    1604163  MISS:       3075
cpu0_L1D PREFETCH  ACCESS:          0  HIT:          0  MISS:          0
cpu0_L1D WRITEBACK ACCESS:          0  HIT:          0  MISS:          0
cpu0_L2C TOTAL     ACCESS:      24766  HIT:      15900  MISS:       8866
cpu0_L2C LOAD      ACCESS:      11797  HIT:       3685  MISS:       8112
cpu0_L2C RFO       ACCESS:       3074  HIT:       2362  MISS:        712
cpu0_L2C PREFETCH  ACCESS:          0  HIT:          0  MISS:          0
cpu0_L2C WRITEBACK ACCESS:       9862  HIT:       9822  MISS:         40
LLC TOTAL     ACCESS:      15936  HIT:         14  MISS:      15922
LLC LOAD      ACCESS:       8112  HIT:          9  MISS:       8103
LLC RFO       ACCESS:        712  HIT:          5  MISS:        707
LLC PREFETCH  ACCESS:          0  HIT:          0  MISS:          0
LLC WRITEBACK ACCESS:       7110  HIT:          0  MISS:       7110
Heartbeat CPU 0 instructions: 70000004 cycles: 37973313 heartbeat IPC: 0.772173 cumulative IPC: 0.785146 (Simulation time: 0 hr 27 min 31 sec) 

Region of Interest Statistics
cpu0_DTLB TOTAL     ACCESS:    4453908  HIT:    4420637  MISS:      33271
cpu0_DTLB LOAD      ACCESS:    3378032  HIT:    3349722  MISS:      28310
cpu0_DTLB RFO       ACCESS:    1075876  HIT:    1070915  MISS:       4961
cpu0_DTLB PREFETCH  ACCESS:          0  HIT:          0  MISS:          0
cpu0_DTLB WRITEBACK ACCESS:          0  HIT:          0  MISS:          0
cpu0_ITLB TOTAL     ACCESS:    1953082  HIT:    1953082  MISS:          0
cpu0_ITLB LOAD      ACCESS:    1953082  HIT:    1953082  MISS:          0
cpu0_ITLB RFO       ACCESS:          0  HIT:          0  MISS:          0
cpu0_ITLB PREFETCH  ACCESS:          0  HIT:          0  MISS:          0
cpu0_ITLB WRITEBACK ACCESS:          0  HIT:          0  MISS:          0
cpu0_L1I TOTAL     ACCESS:    1539331  HIT:    1538979  MISS:        352
cpu0_L1I LOAD      ACCESS:    1539331  HIT:    1538979  MISS:        352
cpu0_L1I RFO       ACCESS:          0  HIT:          0  MISS:          0
cpu0_L1I PREFETCH  ACCESS:          0  HIT:          0  MISS:          0
cpu0_L1I WRITEBACK ACCESS:          0  HIT:          0  MISS:          0
cpu0_STLB TOTAL     ACCESS:      33271  HIT:      25134  MISS:       8137
cpu0_STLB LOAD      ACCESS:      28310  HIT:      20220  MISS:       8090
cpu0_STLB RFO       ACCESS:       4961  HIT:       4914  MISS:         47
cpu0_STLB PREFETCH  ACCESS:          0  HIT:          0  MISS:          0
cpu0_STLB WRITEBACK ACCESS:          0  HIT:          0  MISS:          0
cpu0_L1D TOTAL     ACCESS:    5327488  HIT:    5311230  MISS:      16258
cpu0_L1D LOAD      ACCESS:    3539939  HIT:    3527105  MISS:      12834
cpu0_L1D RFO       ACCESS:    1779412  HIT:    1776027  MISS:       3385
cpu0_L1D PREFETCH  ACCESS:          0  HIT:          0  MISS:          0
cpu0_L1D WRITEBACK ACCESS:          0  HIT:          0  MISS:          0
cpu0_L2C TOTAL     ACCESS:      27565  HIT:      17624  MISS:       9941
cpu0_L2C LOAD      ACCESS:      13186  HIT:       4121  MISS:       9065
cpu0_L2C RFO       ACCESS:       3384  HIT:       2556  MISS:        828
cpu0_L2C PREFETCH  ACCESS:          0  HIT:          0  MISS:          0
cpu0_L2C WRITEBACK ACCESS:      10956  HIT:      10911  MISS:         45
LLC TOTAL     ACCESS:      17894  HIT:         16  MISS:      17878
LLC LOAD      ACCESS:       9065  HIT:          9  MISS:       9056
LLC RFO       ACCESS:        828  HIT:          7  MISS:        821
LLC PREFETCH  ACCESS:          0  HIT:          0  MISS:          0
LLC WRITEBACK ACCESS:       7998  HIT:          0  MISS:       7998
Heartbeat CPU 0 instructions: 72000002 cycles: 40242393 heartbeat IPC: 0.881414 cumulative IPC: 0.79302 (Simulation time: 0 hr 28 min 25 sec) 

Region of Interest Statistics
cpu0_DTLB TOTAL     ACCESS:    4886805  HIT:    4851193  MISS:      35612
cpu0_DTLB LOAD      ACCESS:    3700347  HIT:    3670064  MISS:      30283
cpu0_DTLB RFO       ACCESS:    1186458  HIT:    1181129  MISS:       5329
cpu0_DTLB PREFETCH  ACCESS:          0  HIT:          0  MISS:          0
cpu0_DTLB WRITEBACK ACCESS:          0  HIT:          0  MISS:          0
cpu0_ITLB TOTAL     ACCESS:    2151859  HIT:    2151859  MISS:          0
cpu0_ITLB LOAD      ACCESS:    2151859  HIT:    2151859  MISS:          0
cpu0_ITLB RFO       ACCESS:          0  HIT:          0  MISS:          0
cpu0_ITLB PREFETCH  ACCESS:          0  HIT:          0  MISS:          0
cpu0_ITLB WRITEBACK ACCESS:          0  HIT:          0  MISS:          0
cpu0_L1I TOTAL     ACCESS:    1659754  HIT:    1659180  MISS:        574
cpu0_L1I LOAD      ACCESS:    1659754  HIT:    1659180  MISS:        574
cpu0_L1I RFO       ACCESS:          0  HIT:          0  MISS:          0
cpu0_L1I PREFETCH  ACCESS:          0  HIT:          0  MISS:          0
cpu0_L1I WRITEBACK ACCESS:          0  HIT:          0  MISS:          0
cpu0_STLB TOTAL     ACCESS:      35612  HIT:      26920  MISS:       8692
cpu0_STLB LOAD      ACCESS:      30283  HIT:      21639  MISS:       8644
cpu0_STLB RFO       ACCESS:       5329  HIT:       5281  MISS:         48
cpu0_STLB PREFETCH  ACCESS:          0  HIT:          0  MISS:          0
cpu0_STLB WRITEBACK ACCESS:          0  HIT:          0  MISS:          0
cpu0_L1D TOTAL     ACCESS:    5834810  HIT:    5817201  MISS:      17609
cpu0_L1D LOAD      ACCESS:    3862470  HIT:    3848710  MISS:      13760
cpu0_L1D RFO       ACCESS:    1963648  HIT:    1959842  MISS:       3806
cpu0_L1D PREFETCH  ACCESS:          0  HIT:          0  MISS:          0
cpu0_L1D WRITEBACK ACCESS:          0  HIT:          0  MISS:          0
cpu0_L2C TOTAL     ACCESS:      30028  HIT:      19322  MISS:      10706
cpu0_L2C LOAD      ACCESS:      14334  HIT:       4579  MISS:       9755
cpu0_L2C RFO       ACCESS:       3805  HIT:       2903  MISS:        902
cpu0_L2C PREFETCH  ACCESS:          0  HIT:          0  MISS:          0
cpu0_L2C WRITEBACK ACCESS:      11846  HIT:      11801  MISS:         45
LLC TOTAL     ACCESS:      19274  HIT:         16  MISS:      19258
LLC LOAD      ACCESS:       9755  HIT:          9  MISS:       9746
LLC RFO       ACCESS:        902  HIT:          7  MISS:        895
LLC PREFETCH  ACCESS:          0  HIT:          0  MISS:          0
LLC WRITEBACK ACCESS:       8613  HIT:          0  MISS:       8613
Heartbeat CPU 0 instructions: 74000000 cycles: 42522374 heartbeat IPC: 0.877199 cumulative IPC: 0.799413 (Simulation time: 0 hr 29 min 4 sec) 

Region of Interest Statistics
cpu0_DTLB TOTAL     ACCESS:    5310598  HIT:    5272430  MISS:      38168
cpu0_DTLB LOAD      ACCESS:    4015238  HIT:    3982851  MISS:      32387
cpu0_DTLB RFO       ACCESS:    1295360  HIT:    1289579  MISS:       5781
cpu0_DTLB PREFETCH  ACCESS:          0  HIT:          0  MISS:          0
cpu0_DTLB WRITEBACK ACCESS:          0  HIT:          0  MISS:          0
cpu0_ITLB TOTAL     ACCESS:    2349237  HIT:    2349237  MISS:          0
cpu0_ITLB LOAD      ACCESS:    2349237  HIT:    2349237  MISS:          0
cpu0_ITLB RFO       ACCESS:          0  HIT:          0  MISS:          0
cpu0_ITLB PREFETCH  ACCESS:          0  HIT:          0  MISS:          0
cpu0_ITLB WRITEBACK ACCESS:          0  HIT:          0  MISS:          0
cpu0_L1I TOTAL     ACCESS:    1775748  HIT:    1775017  MISS:        731
cpu0_L1I LOAD      ACCESS:    1775748  HIT:    1775017  MISS:        731
cpu0_L1I RFO       ACCESS:          0  HIT:          0  MISS:          0
cpu0_L1I PREFETCH  ACCESS:          0  HIT:          0  MISS:          0
cpu0_L1I WRITEBACK ACCESS:          0  HIT:          0  MISS:          0
cpu0_STLB TOTAL     ACCESS:      38168  HIT:      28870  MISS:       9298
cpu0_STLB LOAD      ACCESS:      32387  HIT:      23137  MISS:       9250
cpu0_STLB RFO       ACCESS:       5781  HIT:       5733  MISS:         48
cpu0_STLB PREFETCH  ACCESS:          0  HIT:          0  MISS:          0
cpu0_STLB WRITEBACK ACCESS:          0  HIT:          0  MISS:          0
cpu0_L1D TOTAL     ACCESS:    6339194  HIT:    6320273  MISS:      18921
cpu0_L1D LOAD      ACCESS:    4183712  HIT:    4168919  MISS:      14793
cpu0_L1D RFO       ACCESS:    2146184  HIT:    2142099  MISS:       4085
cpu0_L1D PREFETCH  ACCESS:          0  HIT:          0  MISS:          0
cpu0_L1D WRITEBACK ACCESS:          0  HIT:          0  MISS:          0
cpu0_L2C TOTAL     ACCESS:      32322  HIT:      20875  MISS:      11447
cpu0_L2C LOAD      ACCESS:      15524  HIT:       5078  MISS:      10446
cpu0_L2C RFO       ACCESS:       4084  HIT:       3132  MISS:        952
cpu0_L2C PREFETCH  ACCESS:          0  HIT:          0  MISS:          0
cpu0_L2C WRITEBACK ACCESS:      12671  HIT:      12626  MISS:         45
LLC TOTAL     ACCESS:      20617  HIT:         17  MISS:      20600
LLC LOAD      ACCESS:      10446  HIT:         10  MISS:      10436
LLC RFO       ACCESS:        952  HIT:          7  MISS:        945
LLC PREFETCH  ACCESS:          0  HIT:          0  MISS:          0
LLC WRITEBACK ACCESS:       9215  HIT:          0  MISS:       9215
Heartbeat CPU 0 instructions: 76000001 cycles: 44786872 heartbeat IPC: 0.883198 cumulative IPC: 0.805289 (Simulation time: 0 hr 29 min 56 sec) 

Region of Interest Statistics
cpu0_DTLB TOTAL     ACCESS:    5741117  HIT:    5700217  MISS:      40900
cpu0_DTLB LOAD      ACCESS:    4332908  HIT:    4298249  MISS:      34659
cpu0_DTLB RFO       ACCESS:    1408209  HIT:    1401968  MISS:       6241
cpu0_DTLB PREFETCH  ACCESS:          0  HIT:          0  MISS:          0
cpu0_DTLB WRITEBACK ACCESS:          0  HIT:          0  MISS:          0
cpu0_ITLB TOTAL     ACCESS:    2546092  HIT:    2546092  MISS:          0
cpu0_ITLB LOAD      ACCESS:    2546092  HIT:    2546092  MISS:          0
cpu0_ITLB RFO       ACCESS:          0  HIT:          0  MISS:          0
cpu0_ITLB PREFETCH  ACCESS:          0  HIT:          0  MISS:          0
cpu0_ITLB WRITEBACK ACCESS:          0  HIT:          0  MISS:          0
cpu0_L1I TOTAL     ACCESS:    1893166  HIT:    1892329  MISS:        837
cpu0_L1I LOAD      ACCESS:    1893166  HIT:    1892329  MISS:        837
cpu0_L1I RFO       ACCESS:          0  HIT:          0  MISS:          0
cpu0_L1I PREFETCH  ACCESS:          0  HIT:          0  MISS:          0
cpu0_L1I WRITEBACK ACCESS:          0  HIT:          0  MISS:          0
cpu0_STLB TOTAL     ACCESS:      40900  HIT:      30993  MISS:       9907
cpu0_STLB LOAD      ACCESS:      34659  HIT:      24802  MISS:       9857
cpu0_STLB RFO       ACCESS:       6241  HIT:       6191  MISS:         50
cpu0_STLB PREFETCH  ACCESS:          0  HIT:          0  MISS:          0
cpu0_STLB WRITEBACK ACCESS:          0  HIT:          0  MISS:          0
cpu0_L1D TOTAL     ACCESS:    6852880  HIT:    6832549  MISS:      20331
cpu0_L1D LOAD      ACCESS:    4509249  HIT:    4493404  MISS:      15845
cpu0_L1D RFO       ACCESS:    2333724  HIT:    2329283  MISS:       4441
cpu0_L1D PREFETCH  ACCESS:          0  HIT:          0  MISS:          0
cpu0_L1D WRITEBACK ACCESS:          0  HIT:          0  MISS:          0
cpu0_L2C TOTAL     ACCESS:      34693  HIT:      22510  MISS:      12183
cpu0_L2C LOAD      ACCESS:      16682  HIT:       5563  MISS:      11119
cpu0_L2C RFO       ACCESS:       4440  HIT:       3425  MISS:       1015
cpu0_L2C PREFETCH  ACCESS:          0  HIT:          0  MISS:          0
cpu0_L2C WRITEBACK ACCESS:      13526  HIT:      13481  MISS:         45
LLC TOTAL     ACCESS:      21958  HIT:         17  MISS:      21941
LLC LOAD      ACCESS:      11119  HIT:         10  MISS:      11109
LLC RFO       ACCESS:       1015  HIT:          7  MISS:       1008
LLC PREFETCH  ACCESS:          0  HIT:          0  MISS:          0
LLC WRITEBACK ACCESS:       9820  HIT:          0  MISS:       9820
Heartbeat CPU 0 instructions: 78000001 cycles: 46916988 heartbeat IPC: 0.938916 cumulative IPC: 0.81356 (Simulation time: 0 hr 30 min 42 sec) 

Region of Interest Statistics
cpu0_DTLB TOTAL     ACCESS:    6163420  HIT:    6120638  MISS:      42782
cpu0_DTLB LOAD      ACCESS:    4646208  HIT:    4609949  MISS:      36259
cpu0_DTLB RFO       ACCESS:    1517212  HIT:    1510689  MISS:       6523
cpu0_DTLB PREFETCH  ACCESS:          0  HIT:          0  MISS:          0
cpu0_DTLB WRITEBACK ACCESS:          0  HIT:          0  MISS:          0
cpu0_ITLB TOTAL     ACCESS:    2757495  HIT:    2757495  MISS:          0
cpu0_ITLB LOAD      ACCESS:    2757495  HIT:    2757495  MISS:          0
cpu0_ITLB RFO       ACCESS:          0  HIT:          0  MISS:          0
cpu0_ITLB PREFETCH  ACCESS:          0  HIT:          0  MISS:          0
cpu0_ITLB WRITEBACK ACCESS:          0  HIT:          0  MISS:          0
cpu0_L1I TOTAL     ACCESS:    1984569  HIT:    1983578  MISS:        991
cpu0_L1I LOAD      ACCESS:    1984569  HIT:    1983578  MISS:        991
cpu0_L1I RFO       ACCESS:          0  HIT:          0  MISS:          0
cpu0_L1I PREFETCH  ACCESS:          0  HIT:          0  MISS:          0
cpu0_L1I WRITEBACK ACCESS:          0  HIT:          0  MISS:          0
cpu0_STLB TOTAL     ACCESS:      42782  HIT:      32494  MISS:      10288
cpu0_STLB LOAD      ACCESS:      36259  HIT:      26022  MISS:      10237
cpu0_STLB RFO       ACCESS:       6523  HIT:       6472  MISS:         51
cpu0_STLB PREFETCH  ACCESS:          0  HIT:          0  MISS:          0
cpu0_STLB WRITEBACK ACCESS:          0  HIT:          0  MISS:          0
cpu0_L1D TOTAL     ACCESS:    7337524  HIT:    7316336  MISS:      21188
cpu0_L1D LOAD      ACCESS:    4812434  HIT:    4795928  MISS:      16506
cpu0_L1D RFO       ACCESS:    2514802  HIT:    2510169  MISS:       4633
cpu0_L1D PREFETCH  ACCESS:          0  HIT:          0  MISS:          0
cpu0_L1D WRITEBACK ACCESS:          0  HIT:          0  MISS:          0
cpu0_L2C TOTAL     ACCESS:      36221  HIT:      23564  MISS:      12657
cpu0_L2C LOAD      ACCESS:      17497  HIT:       5941  MISS:      11556
cpu0_L2C RFO       ACCESS:       4632  HIT:       3580  MISS:       1052
cpu0_L2C PREFETCH  ACCESS:          0  HIT:          0  MISS:          0
cpu0_L2C WRITEBACK ACCESS:      14043  HIT:      13998  MISS:         45
LLC TOTAL     ACCESS:      22809  HIT:         17  MISS:      22792
LLC LOAD      ACCESS:      11556  HIT:         10  MISS:      11546
LLC RFO       ACCESS:       1052  HIT:          7  MISS:       1045
LLC PREFETCH  ACCESS:          0  HIT:          0  MISS:          0
LLC WRITEBACK ACCESS:      10197  HIT:          0  MISS:      10197
Heartbeat CPU 0 instructions: 80000000 cycles: 49297834 heartbeat IPC: 0.840037 cumulative IPC: 0.815273 (Simulation time: 0 hr 31 min 35 sec) 

Region of Interest Statistics
cpu0_DTLB TOTAL     ACCESS:    6594058  HIT:    6548658  MISS:      45400
cpu0_DTLB LOAD      ACCESS:    4972502  HIT:    4934037  MISS:      38465
cpu0_DTLB RFO       ACCESS:    1621556  HIT:    1614621  MISS:       6935
cpu0_DTLB PREFETCH  ACCESS:          0  HIT:          0  MISS:          0
cpu0_DTLB WRITEBACK ACCESS:          0  HIT:          0  MISS:          0
cpu0_ITLB TOTAL     ACCESS:    2961051  HIT:    2961051  MISS:          0
cpu0_ITLB LOAD      ACCESS:    2961051  HIT:    2961051  MISS:          0
cpu0_ITLB RFO       ACCESS:          0  HIT:          0  MISS:          0
cpu0_ITLB PREFETCH  ACCESS:          0  HIT:          0  MISS:          0
cpu0_ITLB WRITEBACK ACCESS:          0  HIT:          0  MISS:          0
cpu0_L1I TOTAL     ACCESS:    2109731  HIT:    2108660  MISS:       1071
cpu0_L1I LOAD      ACCESS:    2109731  HIT:    2108660  MISS:       1071
cpu0_L1I RFO       ACCESS:          0  HIT:          0  MISS:          0
cpu0_L1I PREFETCH  ACCESS:          0  HIT:          0  MISS:          0
cpu0_L1I WRITEBACK ACCESS:          0  HIT:          0  MISS:          0
cpu0_STLB TOTAL     ACCESS:      45400  HIT:      34566  MISS:      10834
cpu0_STLB LOAD      ACCESS:      38465  HIT:      27686  MISS:      10779
cpu0_STLB RFO       ACCESS:       6935  HIT:       6880  MISS:         55
cpu0_STLB PREFETCH  ACCESS:          0  HIT:          0  MISS:          0
cpu0_STLB WRITEBACK ACCESS:          0  HIT:          0  MISS:          0
cpu0_L1D TOTAL     ACCESS:    7840962  HIT:    7818525  MISS:      22437
cpu0_L1D LOAD      ACCESS:    5139600  HIT:    5122173  MISS:      17427
cpu0_L1D RFO       ACCESS:    2690528  HIT:    2685573  MISS:       4955
cpu0_L1D PREFETCH  ACCESS:          0  HIT:          0  MISS:          0
cpu0_L1D WRITEBACK ACCESS:          0  HIT:          0  MISS:          0
cpu0_L2C TOTAL     ACCESS:      38384  HIT:      25062  MISS:      13322
cpu0_L2C LOAD      ACCESS:      18498  HIT:       6344  MISS:      12154
cpu0_L2C RFO       ACCESS:       4954  HIT:       3840  MISS:       1114
cpu0_L2C PREFETCH  ACCESS:          0  HIT:          0  MISS:          0
cpu0_L2C WRITEBACK ACCESS:      14877  HIT:      14828  MISS:         49
LLC TOTAL     ACCESS:      23984  HIT:         18  MISS:      23966
LLC LOAD      ACCESS:      12154  HIT:         10  MISS:      12144
LLC RFO       ACCESS:       1114  HIT:          8  MISS:       1106
LLC PREFETCH  ACCESS:          0  HIT:          0  MISS:          0
LLC WRITEBACK ACCESS:      10711  HIT:          0  MISS:      10711
Heartbeat CPU 0 instructions: 82000003 cycles: 51655948 heartbeat IPC: 0.848137 cumulative IPC: 0.817252 (Simulation time: 0 hr 32 min 31 sec) 

Region of Interest Statistics
cpu0_DTLB TOTAL     ACCESS:    7031584  HIT:    6983249  MISS:      48335
cpu0_DTLB LOAD      ACCESS:    5300478  HIT:    5259558  MISS:      40920
cpu0_DTLB RFO       ACCESS:    1731106  HIT:    1723691  MISS:       7415
cpu0_DTLB PREFETCH  ACCESS:          0  HIT:          0  MISS:          0
cpu0_DTLB WRITEBACK ACCESS:          0  HIT:          0  MISS:          0
cpu0_ITLB TOTAL     ACCESS:    3161878  HIT:    3161878  MISS:          0
cpu0_ITLB LOAD      ACCESS:    3161878  HIT:    3161878  MISS:          0
cpu0_ITLB RFO       ACCESS:          0  HIT:          0  MISS:          0
cpu0_ITLB PREFETCH  ACCESS:          0  HIT:          0  MISS:          0
cpu0_ITLB WRITEBACK ACCESS:          0  HIT:          0  MISS:          0
cpu0_L1I TOTAL     ACCESS:    2236487  HIT:    2235266  MISS:       1221
cpu0_L1I LOAD      ACCESS:    2236487  HIT:    2235266  MISS:       1221
cpu0_L1I RFO       ACCESS:          0  HIT:          0  MISS:          0
cpu0_L1I PREFETCH  ACCESS:          0  HIT:          0  MISS:          0
cpu0_L1I WRITEBACK ACCESS:          0  HIT:          0  MISS:          0
cpu0_STLB TOTAL     ACCESS:      48335  HIT:      36860  MISS:      11475
cpu0_STLB LOAD      ACCESS:      40920  HIT:      29504  MISS:      11416
cpu0_STLB RFO       ACCESS:       7415  HIT:       7356  MISS:         59
cpu0_STLB PREFETCH  ACCESS:          0  HIT:          0  MISS:          0
cpu0_STLB WRITEBACK ACCESS:          0  HIT:          0  MISS:          0
cpu0_L1D TOTAL     ACCESS:    8355478  HIT:    8331449  MISS:      24029
cpu0_L1D LOAD      ACCESS:    5470102  HIT:    5451499  MISS:      18603
cpu0_L1D RFO       ACCESS:    2873901  HIT:    2868535  MISS:       5366
cpu0_L1D PREFETCH  ACCESS:          0  HIT:          0  MISS:          0
cpu0_L1D WRITEBACK ACCESS:          0  HIT:          0  MISS:          0
cpu0_L2C TOTAL     ACCESS:      41164  HIT:      27053  MISS:      14111
cpu0_L2C LOAD      ACCESS:      19824  HIT:       6946  MISS:      12878
cpu0_L2C RFO       ACCESS:       5365  HIT:       4188  MISS:       1177
cpu0_L2C PREFETCH  ACCESS:          0  HIT:          0  MISS:          0
cpu0_L2C WRITEBACK ACCESS:      15915  HIT:      15864  MISS:         51
LLC TOTAL     ACCESS:      25365  HIT:         19  MISS:      25346
LLC LOAD      ACCESS:      12878  HIT:         10  MISS:      12868
LLC RFO       ACCESS:       1177  HIT:          9  MISS:       1168
LLC PREFETCH  ACCESS:          0  HIT:          0  MISS:          0
LLC WRITEBACK ACCESS:      11305  HIT:          0  MISS:      11305
Heartbeat CPU 0 instructions: 84000001 cycles: 54022875 heartbeat IPC: 0.844977 cumulative IPC: 0.818833 (Simulation time: 0 hr 33 min 22 sec) 

Region of Interest Statistics
cpu0_DTLB TOTAL     ACCESS:    7463609  HIT:    7412437  MISS:      51172
cpu0_DTLB LOAD      ACCESS:    5625432  HIT:    5582126  MISS:      43306
cpu0_DTLB RFO       ACCESS:    1838177  HIT:    1830311  MISS:       7866
cpu0_DTLB PREFETCH  ACCESS:          0  HIT:          0  MISS:          0
cpu0_DTLB WRITEBACK ACCESS:          0  HIT:          0  MISS:          0
cpu0_ITLB TOTAL     ACCESS:    3366803  HIT:    3366803  MISS:          0
cpu0_ITLB LOAD      ACCESS:    3366803  HIT:    3366803  MISS:          0
cpu0_ITLB RFO       ACCESS:          0  HIT:          0  MISS:          0
cpu0_ITLB PREFETCH  ACCESS:          0  HIT:          0  MISS:          0
cpu0_ITLB WRITEBACK ACCESS:          0  HIT:          0  MISS:          0
cpu0_L1I TOTAL     ACCESS:    2357548  HIT:    2356156  MISS:       1392
cpu0_L1I LOAD      ACCESS:    2357548  HIT:    2356156  MISS:       1392
cpu0_L1I RFO       ACCESS:          0  HIT:          0  MISS:          0
cpu0_L1I PREFETCH  ACCESS:          0  HIT:          0  MISS:          0
cpu0_L1I WRITEBACK ACCESS:          0  HIT:          0  MISS:          0
cpu0_STLB TOTAL     ACCESS:      51172  HIT:      39071  MISS:      12101
cpu0_STLB LOAD      ACCESS:      43306  HIT:      31264  MISS:      12042
cpu0_STLB RFO       ACCESS:       7866  HIT:       7807  MISS:         59
cpu0_STLB PREFETCH  ACCESS:          0  HIT:          0  MISS:          0
cpu0_STLB WRITEBACK ACCESS:          0  HIT:          0  MISS:          0
cpu0_L1D TOTAL     ACCESS:    8863159  HIT:    8837621  MISS:      25538
cpu0_L1D LOAD      ACCESS:    5797865  HIT:    5778155  MISS:      19710
cpu0_L1D RFO       ACCESS:    3053193  HIT:    3047428  MISS:       5765
cpu0_L1D PREFETCH  ACCESS:          0  HIT:          0  MISS:          0
cpu0_L1D WRITEBACK ACCESS:          0  HIT:          0  MISS:          0
cpu0_L2C TOTAL     ACCESS:      43845  HIT:      28959  MISS:      14886
cpu0_L2C LOAD      ACCESS:      21102  HIT:       7506  MISS:      13596
cpu0_L2C RFO       ACCESS:       5764  HIT:       4533  MISS:       1231
cpu0_L2C PREFETCH  ACCESS:          0  HIT:          0  MISS:          0
cpu0_L2C WRITEBACK ACCESS:      16916  HIT:      16862  MISS:         54
LLC TOTAL     ACCESS:      26746  HIT:         19  MISS:      26727
LLC LOAD      ACCESS:      13596  HIT:         10  MISS:      13586
LLC RFO       ACCESS:       1231  HIT:          9  MISS:       1222
LLC PREFETCH  ACCESS:          0  HIT:          0  MISS:          0
LLC WRITEBACK ACCESS:      11914  HIT:          0  MISS:      11914
Heartbeat CPU 0 instructions: 86000001 cycles: 56435373 heartbeat IPC: 0.829016 cumulative IPC: 0.819392 (Simulation time: 0 hr 34 min 17 sec) 

Region of Interest Statistics
cpu0_DTLB TOTAL     ACCESS:    7889351  HIT:    7835266  MISS:      54085
cpu0_DTLB LOAD      ACCESS:    5949205  HIT:    5903390  MISS:      45815
cpu0_DTLB RFO       ACCESS:    1940146  HIT:    1931876  MISS:       8270
cpu0_DTLB PREFETCH  ACCESS:          0  HIT:          0  MISS:          0
cpu0_DTLB WRITEBACK ACCESS:          0  HIT:          0  MISS:          0
cpu0_ITLB TOTAL     ACCESS:    3566746  HIT:    3566746  MISS:          0
cpu0_ITLB LOAD      ACCESS:    3566746  HIT:    3566746  MISS:          0
cpu0_ITLB RFO       ACCESS:          0  HIT:          0  MISS:          0
cpu0_ITLB PREFETCH  ACCESS:          0  HIT:          0  MISS:          0
cpu0_ITLB WRITEBACK ACCESS:          0  HIT:          0  MISS:          0
cpu0_L1I TOTAL     ACCESS:    2487848  HIT:    2486372  MISS:       1476
cpu0_L1I LOAD      ACCESS:    2487848  HIT:    2486372  MISS:       1476
cpu0_L1I RFO       ACCESS:          0  HIT:          0  MISS:          0
cpu0_L1I PREFETCH  ACCESS:          0  HIT:          0  MISS:          0
cpu0_L1I WRITEBACK ACCESS:          0  HIT:          0  MISS:          0
cpu0_STLB TOTAL     ACCESS:      54085  HIT:      41376  MISS:      12709
cpu0_STLB LOAD      ACCESS:      45815  HIT:      33167  MISS:      12648
cpu0_STLB RFO       ACCESS:       8270  HIT:       8209  MISS:         61
cpu0_STLB PREFETCH  ACCESS:          0  HIT:          0  MISS:          0
cpu0_STLB WRITEBACK ACCESS:          0  HIT:          0  MISS:          0
cpu0_L1D TOTAL     ACCESS:    9370418  HIT:    9343665  MISS:      26753
cpu0_L1D LOAD      ACCESS:    6130741  HIT:    6110000  MISS:      20741
cpu0_L1D RFO       ACCESS:    3226968  HIT:    3221025  MISS:       5943
cpu0_L1D PREFETCH  ACCESS:          0  HIT:          0  MISS:          0
cpu0_L1D WRITEBACK ACCESS:          0  HIT:          0  MISS:          0
cpu0_L2C TOTAL     ACCESS:      45938  HIT:      30291  MISS:      15647
cpu0_L2C LOAD      ACCESS:      22217  HIT:       7899  MISS:      14318
cpu0_L2C RFO       ACCESS:       5942  HIT:       4673  MISS:       1269
cpu0_L2C PREFETCH  ACCESS:          0  HIT:          0  MISS:          0
cpu0_L2C WRITEBACK ACCESS:      17710  HIT:      17655  MISS:         55
LLC TOTAL     ACCESS:      28113  HIT:         19  MISS:      28094
LLC LOAD      ACCESS:      14318  HIT:         10  MISS:      14308
LLC RFO       ACCESS:       1269  HIT:          9  MISS:       1260
LLC PREFETCH  ACCESS:          0  HIT:          0  MISS:          0
LLC WRITEBACK ACCESS:      12521  HIT:          0  MISS:      12521
Heartbeat CPU 0 instructions: 88000002 cycles: 58866174 heartbeat IPC: 0.822774 cumulative IPC: 0.819569 (Simulation time: 0 hr 35 min 12 sec) 

Region of Interest Statistics
cpu0_DTLB TOTAL     ACCESS:    8321666  HIT:    8264296  MISS:      57370
cpu0_DTLB LOAD      ACCESS:    6277739  HIT:    6229097  MISS:      48642
cpu0_DTLB RFO       ACCESS:    2043927  HIT:    2035199  MISS:       8728
cpu0_DTLB PREFETCH  ACCESS:          0  HIT:          0  MISS:          0
cpu0_DTLB WRITEBACK ACCESS:          0  HIT:          0  MISS:          0
cpu0_ITLB TOTAL     ACCESS:    3770214  HIT:    3770214  MISS:          0
cpu0_ITLB LOAD      ACCESS:    3770214  HIT:    3770214  MISS:          0
cpu0_ITLB RFO       ACCESS:          0  HIT:          0  MISS:          0
cpu0_ITLB PREFETCH  ACCESS:          0  HIT:          0  MISS:          0
cpu0_ITLB WRITEBACK ACCESS:          0  HIT:          0  MISS:          0
cpu0_L1I TOTAL     ACCESS:    2621102  HIT:    2619517  MISS:       1585
cpu0_L1I LOAD      ACCESS:    2621102  HIT:    2619517  MISS:       1585
cpu0_L1I RFO       ACCESS:          0  HIT:          0  MISS:          0
cpu0_L1I PREFETCH  ACCESS:          0  HIT:          0  MISS:          0
cpu0_L1I WRITEBACK ACCESS:          0  HIT:          0  MISS:          0
cpu0_STLB TOTAL     ACCESS:      57370  HIT:      43983  MISS:      13387
cpu0_STLB LOAD      ACCESS:      48642  HIT:      35316  MISS:      13326
cpu0_STLB RFO       ACCESS:       8728  HIT:       8667  MISS:         61
cpu0_STLB PREFETCH  ACCESS:          0  HIT:          0  MISS:          0
cpu0_STLB WRITEBACK ACCESS:          0  HIT:          0  MISS:          0
cpu0_L1D TOTAL     ACCESS:    9883758  HIT:    9855583  MISS:      28175
cpu0_L1D LOAD      ACCESS:    6468250  HIT:    6446299  MISS:      21951
cpu0_L1D RFO       ACCESS:    3402121  HIT:    3395971  MISS:       6150
cpu0_L1D PREFETCH  ACCESS:          0  HIT:          0  MISS:          0
cpu0_L1D WRITEBACK ACCESS:          0  HIT:          0  MISS:          0
cpu0_L2C TOTAL     ACCESS:      48412  HIT:      31946  MISS:      16466
cpu0_L2C LOAD      ACCESS:      23536  HIT:       8445  MISS:      15091
cpu0_L2C RFO       ACCESS:       6149  HIT:       4836  MISS:       1313
cpu0_L2C PREFETCH  ACCESS:          0  HIT:          0  MISS:          0
cpu0_L2C WRITEBACK ACCESS:      18653  HIT:      18597  MISS:         56
LLC TOTAL     ACCESS:      29546  HIT:         19  MISS:      29527
LLC LOAD      ACCESS:      15091  HIT:         10  MISS:      15081
LLC RFO       ACCESS:       1313  HIT:          9  MISS:       1304
LLC PREFETCH  ACCESS:          0  HIT:          0  MISS:          0
LLC WRITEBACK ACCESS:      13136  HIT:          0  MISS:      13136
Heartbeat CPU 0 instructions: 90000001 cycles: 61321023 heartbeat IPC: 0.814714 cumulative IPC: 0.819325 (Simulation time: 0 hr 36 min 3 sec) 

Region of Interest Statistics
cpu0_DTLB TOTAL     ACCESS:    8757305  HIT:    8696871  MISS:      60434
cpu0_DTLB LOAD      ACCESS:    6607645  HIT:    6556403  MISS:      51242
cpu0_DTLB RFO       ACCESS:    2149660  HIT:    2140468  MISS:       9192
cpu0_DTLB PREFETCH  ACCESS:          0  HIT:          0  MISS:          0
cpu0_DTLB WRITEBACK ACCESS:          0  HIT:          0  MISS:          0
cpu0_ITLB TOTAL     ACCESS:    3969007  HIT:    3969007  MISS:          0
cpu0_ITLB LOAD      ACCESS:    3969007  HIT:    3969007  MISS:          0
cpu0_ITLB RFO       ACCESS:          0  HIT:          0  MISS:          0
cpu0_ITLB PREFETCH  ACCESS:          0  HIT:          0  MISS:          0
cpu0_ITLB WRITEBACK ACCESS:          0  HIT:          0  MISS:          0
cpu0_L1I TOTAL     ACCESS:    2759263  HIT:    2757549  MISS:       1714
cpu0_L1I LOAD      ACCESS:    2759263  HIT:    2757549  MISS:       1714
cpu0_L1I RFO       ACCESS:          0  HIT:          0  MISS:          0
cpu0_L1I PREFETCH  ACCESS:          0  HIT:          0  MISS:          0
cpu0_L1I WRITEBACK ACCESS:          0  HIT:          0  MISS:          0
cpu0_STLB TOTAL     ACCESS:      60434  HIT:      46387  MISS:      14047
cpu0_STLB LOAD      ACCESS:      51242  HIT:      37258  MISS:      13984
cpu0_STLB RFO       ACCESS:       9192  HIT:       9129  MISS:         63
cpu0_STLB PREFETCH  ACCESS:          0  HIT:          0  MISS:          0
cpu0_STLB WRITEBACK ACCESS:          0  HIT:          0  MISS:          0
cpu0_L1D TOTAL     ACCESS:   10402597  HIT:   10373067  MISS:      29530
cpu0_L1D LOAD      ACCESS:    6807683  HIT:    6784676  MISS:      23007
cpu0_L1D RFO       ACCESS:    3580867  HIT:    3574421  MISS:       6446
cpu0_L1D PREFETCH  ACCESS:          0  HIT:          0  MISS:          0
cpu0_L1D WRITEBACK ACCESS:          0  HIT:          0  MISS:          0
cpu0_L2C TOTAL     ACCESS:      50822  HIT:      33585  MISS:      17237
cpu0_L2C LOAD      ACCESS:      24721  HIT:       8906  MISS:      15815
cpu0_L2C RFO       ACCESS:       6445  HIT:       5088  MISS:       1357
cpu0_L2C PREFETCH  ACCESS:          0  HIT:          0  MISS:          0
cpu0_L2C WRITEBACK ACCESS:      19579  HIT:      19520  MISS:         59
LLC TOTAL     ACCESS:      30923  HIT:         20  MISS:      30903
LLC LOAD      ACCESS:      15815  HIT:         11  MISS:      15804
LLC RFO       ACCESS:       1357  HIT:          9  MISS:       1348
LLC PREFETCH  ACCESS:          0  HIT:          0  MISS:          0
LLC WRITEBACK ACCESS:      13745  HIT:          0  MISS:      13745
Heartbeat CPU 0 instructions: 92000000 cycles: 63774382 heartbeat IPC: 0.815208 cumulative IPC: 0.819128 (Simulation time: 0 hr 36 min 58 sec) 

Region of Interest Statistics
cpu0_DTLB TOTAL     ACCESS:    9195826  HIT:    9132194  MISS:      63632
cpu0_DTLB LOAD      ACCESS:    6939220  HIT:    6885284  MISS:      53936
cpu0_DTLB RFO       ACCESS:    2256606  HIT:    2246910  MISS:       9696
cpu0_DTLB PREFETCH  ACCESS:          0  HIT:          0  MISS:          0
cpu0_DTLB WRITEBACK ACCESS:          0  HIT:          0  MISS:          0
cpu0_ITLB TOTAL     ACCESS:    4170011  HIT:    4170011  MISS:          0
cpu0_ITLB LOAD      ACCESS:    4170011  HIT:    4170011  MISS:          0
cpu0_ITLB RFO       ACCESS:          0  HIT:          0  MISS:          0
cpu0_ITLB PREFETCH  ACCESS:          0  HIT:          0  MISS:          0
cpu0_ITLB WRITEBACK ACCESS:          0  HIT:          0  MISS:          0
cpu0_L1I TOTAL     ACCESS:    2895253  HIT:    2893408  MISS:       1845
cpu0_L1I LOAD      ACCESS:    2895253  HIT:    2893408  MISS:       1845
cpu0_L1I RFO       ACCESS:          0  HIT:          0  MISS:          0
cpu0_L1I PREFETCH  ACCESS:          0  HIT:          0  MISS:          0
cpu0_L1I WRITEBACK ACCESS:          0  HIT:          0  MISS:          0
cpu0_STLB TOTAL     ACCESS:      63632  HIT:      48935  MISS:      14697
cpu0_STLB LOAD      ACCESS:      53936  HIT:      39302  MISS:      14634
cpu0_STLB RFO       ACCESS:       9696  HIT:       9633  MISS:         63
cpu0_STLB PREFETCH  ACCESS:          0  HIT:          0  MISS:          0
cpu0_STLB WRITEBACK ACCESS:          0  HIT:          0  MISS:          0
cpu0_L1D TOTAL     ACCESS:   10921768  HIT:   10890765  MISS:      31003
cpu0_L1D LOAD      ACCESS:    7146207  HIT:    7122030  MISS:      24177
cpu0_L1D RFO       ACCESS:    3760864  HIT:    3754120  MISS:       6744
cpu0_L1D PREFETCH  ACCESS:          0  HIT:          0  MISS:          0
cpu0_L1D WRITEBACK ACCESS:          0  HIT:          0  MISS:          0
cpu0_L2C TOTAL     ACCESS:      53419  HIT:      35416  MISS:      18003
cpu0_L2C LOAD      ACCESS:      26022  HIT:       9485  MISS:      16537
cpu0_L2C RFO       ACCESS:       6743  HIT:       5343  MISS:       1400
cpu0_L2C PREFETCH  ACCESS:          0  HIT:          0  MISS:          0
cpu0_L2C WRITEBACK ACCESS:      20572  HIT:      20513  MISS:         59
LLC TOTAL     ACCESS:      32265  HIT:         21  MISS:      32244
LLC LOAD      ACCESS:      16537  HIT:         11  MISS:      16526
LLC RFO       ACCESS:       1400  HIT:         10  MISS:       1390
LLC PREFETCH  ACCESS:          0  HIT:          0  MISS:          0
LLC WRITEBACK ACCESS:      14321  HIT:          0  MISS:      14321
Heartbeat CPU 0 instructions: 94000000 cycles: 66254545 heartbeat IPC: 0.806399 cumulative IPC: 0.818541 (Simulation time: 0 hr 37 min 52 sec) 

Region of Interest Statistics
cpu0_DTLB TOTAL     ACCESS:    9644479  HIT:    9577436  MISS:      67043
cpu0_DTLB LOAD      ACCESS:    7274127  HIT:    7217273  MISS:      56854
cpu0_DTLB RFO       ACCESS:    2370352  HIT:    2360163  MISS:      10189
cpu0_DTLB PREFETCH  ACCESS:          0  HIT:          0  MISS:          0
cpu0_DTLB WRITEBACK ACCESS:          0  HIT:          0  MISS:          0
cpu0_ITLB TOTAL     ACCESS:    4367244  HIT:    4367244  MISS:          0
cpu0_ITLB LOAD      ACCESS:    4367244  HIT:    4367244  MISS:          0
cpu0_ITLB RFO       ACCESS:          0  HIT:          0  MISS:          0
cpu0_ITLB PREFETCH  ACCESS:          0  HIT:          0  MISS:          0
cpu0_ITLB WRITEBACK ACCESS:          0  HIT:          0  MISS:          0
cpu0_L1I TOTAL     ACCESS:    3040208  HIT:    3038241  MISS:       1967
cpu0_L1I LOAD      ACCESS:    3040208  HIT:    3038241  MISS:       1967
cpu0_L1I RFO       ACCESS:          0  HIT:          0  MISS:          0
cpu0_L1I PREFETCH  ACCESS:          0  HIT:          0  MISS:          0
cpu0_L1I WRITEBACK ACCESS:          0  HIT:          0  MISS:          0
cpu0_STLB TOTAL     ACCESS:      67043  HIT:      51513  MISS:      15530
cpu0_STLB LOAD      ACCESS:      56854  HIT:      41392  MISS:      15462
cpu0_STLB RFO       ACCESS:      10189  HIT:      10121  MISS:         68
cpu0_STLB PREFETCH  ACCESS:          0  HIT:          0  MISS:          0
cpu0_STLB WRITEBACK ACCESS:          0  HIT:          0  MISS:          0
cpu0_L1D TOTAL     ACCESS:   11456886  HIT:   11424167  MISS:      32719
cpu0_L1D LOAD      ACCESS:    7494102  HIT:    7468579  MISS:      25523
cpu0_L1D RFO       ACCESS:    3947254  HIT:    3940145  MISS:       7109
cpu0_L1D PREFETCH  ACCESS:          0  HIT:          0  MISS:          0
cpu0_L1D WRITEBACK ACCESS:          0  HIT:          0  MISS:          0
cpu0_L2C TOTAL     ACCESS:      56437  HIT:      37449  MISS:      18988
cpu0_L2C LOAD      ACCESS:      27490  HIT:      10051  MISS:      17439
cpu0_L2C RFO       ACCESS:       7108  HIT:       5635  MISS:       1473
cpu0_L2C PREFETCH  ACCESS:          0  HIT:          0  MISS:          0
cpu0_L2C WRITEBACK ACCESS:      21752  HIT:      21683  MISS:         69
LLC TOTAL     ACCESS:      33995  HIT:         24  MISS:      33971
LLC LOAD      ACCESS:      17439  HIT:         12  MISS:      17427
LLC RFO       ACCESS:       1473  HIT:         12  MISS:       1461
LLC PREFETCH  ACCESS:          0  HIT:          0  MISS:          0
LLC WRITEBACK ACCESS:      15076  HIT:          0  MISS:      15076
Heartbeat CPU 0 instructions: 96000000 cycles: 68507313 heartbeat IPC: 0.887797 cumulative IPC: 0.821326 (Simulation time: 0 hr 38 min 46 sec) 

Region of Interest Statistics
cpu0_DTLB TOTAL     ACCESS:   10081582  HIT:   10011934  MISS:      69648
cpu0_DTLB LOAD      ACCESS:    7595276  HIT:    7536267  MISS:      59009
cpu0_DTLB RFO       ACCESS:    2486306  HIT:    2475667  MISS:      10639
cpu0_DTLB PREFETCH  ACCESS:          0  HIT:          0  MISS:          0
cpu0_DTLB WRITEBACK ACCESS:          0  HIT:          0  MISS:          0
cpu0_ITLB TOTAL     ACCESS:    4567029  HIT:    4567029  MISS:          0
cpu0_ITLB LOAD      ACCESS:    4567029  HIT:    4567029  MISS:          0
cpu0_ITLB RFO       ACCESS:          0  HIT:          0  MISS:          0
cpu0_ITLB PREFETCH  ACCESS:          0  HIT:          0  MISS:          0
cpu0_ITLB WRITEBACK ACCESS:          0  HIT:          0  MISS:          0
cpu0_L1I TOTAL     ACCESS:    3155797  HIT:    3153691  MISS:       2106
cpu0_L1I LOAD      ACCESS:    3155797  HIT:    3153691  MISS:       2106
cpu0_L1I RFO       ACCESS:          0  HIT:          0  MISS:          0
cpu0_L1I PREFETCH  ACCESS:          0  HIT:          0  MISS:          0
cpu0_L1I WRITEBACK ACCESS:          0  HIT:          0  MISS:          0
cpu0_STLB TOTAL     ACCESS:      69648  HIT:      53563  MISS:      16085
cpu0_STLB LOAD      ACCESS:      59009  HIT:      42994  MISS:      16015
cpu0_STLB RFO       ACCESS:      10639  HIT:      10569  MISS:         70
cpu0_STLB PREFETCH  ACCESS:          0  HIT:          0  MISS:          0
cpu0_STLB WRITEBACK ACCESS:          0  HIT:          0  MISS:          0
cpu0_L1D TOTAL     ACCESS:   11976087  HIT:   11942143  MISS:      33944
cpu0_L1D LOAD      ACCESS:    7822480  HIT:    7796006  MISS:      26474
cpu0_L1D RFO       ACCESS:    4137522  HIT:    4130143  MISS:       7379
cpu0_L1D PREFETCH  ACCESS:          0  HIT:          0  MISS:          0
cpu0_L1D WRITEBACK ACCESS:          0  HIT:          0  MISS:          0
cpu0_L2C TOTAL     ACCESS:      58561  HIT:      38887  MISS:      19674
cpu0_L2C LOAD      ACCESS:      28580  HIT:      10509  MISS:      18071
cpu0_L2C RFO       ACCESS:       7378  HIT:       5856  MISS:       1522
cpu0_L2C PREFETCH  ACCESS:          0  HIT:          0  MISS:          0
cpu0_L2C WRITEBACK ACCESS:      22512  HIT:      22438  MISS:         74
LLC TOTAL     ACCESS:      35220  HIT:         24  MISS:      35196
LLC LOAD      ACCESS:      18071  HIT:         12  MISS:      18059
LLC RFO       ACCESS:       1522  HIT:         12  MISS:       1510
LLC PREFETCH  ACCESS:          0  HIT:          0  MISS:          0
LLC WRITEBACK ACCESS:      15620  HIT:          0  MISS:      15620
Heartbeat CPU 0 instructions: 98000001 cycles: 70886898 heartbeat IPC: 0.840483 cumulative IPC: 0.822107 (Simulation time: 0 hr 39 min 40 sec) 

Region of Interest Statistics
cpu0_DTLB TOTAL     ACCESS:   10518272  HIT:   10445534  MISS:      72738
cpu0_DTLB LOAD      ACCESS:    7924242  HIT:    7862617  MISS:      61625
cpu0_DTLB RFO       ACCESS:    2594030  HIT:    2582917  MISS:      11113
cpu0_DTLB PREFETCH  ACCESS:          0  HIT:          0  MISS:          0
cpu0_DTLB WRITEBACK ACCESS:          0  HIT:          0  MISS:          0
cpu0_ITLB TOTAL     ACCESS:    4765203  HIT:    4765203  MISS:          0
cpu0_ITLB LOAD      ACCESS:    4765203  HIT:    4765203  MISS:          0
cpu0_ITLB RFO       ACCESS:          0  HIT:          0  MISS:          0
cpu0_ITLB PREFETCH  ACCESS:          0  HIT:          0  MISS:          0
cpu0_ITLB WRITEBACK ACCESS:          0  HIT:          0  MISS:          0
cpu0_L1I TOTAL     ACCESS:    3295741  HIT:    3293460  MISS:       2281
cpu0_L1I LOAD      ACCESS:    3295741  HIT:    3293460  MISS:       2281
cpu0_L1I RFO       ACCESS:          0  HIT:          0  MISS:          0
cpu0_L1I PREFETCH  ACCESS:          0  HIT:          0  MISS:          0
cpu0_L1I WRITEBACK ACCESS:          0  HIT:          0  MISS:          0
cpu0_STLB TOTAL     ACCESS:      72738  HIT:      56034  MISS:      16704
cpu0_STLB LOAD      ACCESS:      61625  HIT:      44998  MISS:      16627
cpu0_STLB RFO       ACCESS:      11113  HIT:      11036  MISS:         77
cpu0_STLB PREFETCH  ACCESS:          0  HIT:          0  MISS:          0
cpu0_STLB WRITEBACK ACCESS:          0  HIT:          0  MISS:          0
cpu0_L1D TOTAL     ACCESS:   12493613  HIT:   12458423  MISS:      35190
cpu0_L1D LOAD      ACCESS:    8164203  HIT:    8136776  MISS:      27427
cpu0_L1D RFO       ACCESS:    4312706  HIT:    4305040  MISS:       7666
cpu0_L1D PREFETCH  ACCESS:          0  HIT:          0  MISS:          0
cpu0_L1D WRITEBACK ACCESS:          0  HIT:          0  MISS:          0
cpu0_L2C TOTAL     ACCESS:      60828  HIT:      40388  MISS:      20440
cpu0_L2C LOAD      ACCESS:      29708  HIT:      10938  MISS:      18770
cpu0_L2C RFO       ACCESS:       7665  HIT:       6077  MISS:       1588
cpu0_L2C PREFETCH  ACCESS:          0  HIT:          0  MISS:          0
cpu0_L2C WRITEBACK ACCESS:      23358  HIT:      23283  MISS:         75
LLC TOTAL     ACCESS:      36598  HIT:         26  MISS:      36572
LLC LOAD      ACCESS:      18770  HIT:         14  MISS:      18756
LLC RFO       ACCESS:       1588  HIT:         12  MISS:       1576
LLC PREFETCH  ACCESS:          0  HIT:          0  MISS:          0
LLC WRITEBACK ACCESS:      16233  HIT:          0  MISS:      16233
Heartbeat CPU 0 instructions: 100000004 cycles: 73139314 heartbeat IPC: 0.887937 cumulative IPC: 0.824552 (Simulation time: 0 hr 40 min 33 sec) 

Region of Interest Statistics
cpu0_DTLB TOTAL     ACCESS:   10943505  HIT:   10868752  MISS:      74753
cpu0_DTLB LOAD      ACCESS:    8237846  HIT:    8174589  MISS:      63257
cpu0_DTLB RFO       ACCESS:    2705659  HIT:    2694163  MISS:      11496
cpu0_DTLB PREFETCH  ACCESS:          0  HIT:          0  MISS:          0
cpu0_DTLB WRITEBACK ACCESS:          0  HIT:          0  MISS:          0
cpu0_ITLB TOTAL     ACCESS:    4971117  HIT:    4971117  MISS:          0
cpu0_ITLB LOAD      ACCESS:    4971117  HIT:    4971117  MISS:          0
cpu0_ITLB RFO       ACCESS:          0  HIT:          0  MISS:          0
cpu0_ITLB PREFETCH  ACCESS:          0  HIT:          0  MISS:          0
cpu0_ITLB WRITEBACK ACCESS:          0  HIT:          0  MISS:          0
cpu0_L1I TOTAL     ACCESS:    3400814  HIT:    3398433  MISS:       2381
cpu0_L1I LOAD      ACCESS:    3400814  HIT:    3398433  MISS:       2381
cpu0_L1I RFO       ACCESS:          0  HIT:          0  MISS:          0
cpu0_L1I PREFETCH  ACCESS:          0  HIT:          0  MISS:          0
cpu0_L1I WRITEBACK ACCESS:          0  HIT:          0  MISS:          0
cpu0_STLB TOTAL     ACCESS:      74753  HIT:      57570  MISS:      17183
cpu0_STLB LOAD      ACCESS:      63257  HIT:      46158  MISS:      17099
cpu0_STLB RFO       ACCESS:      11496  HIT:      11412  MISS:         84
cpu0_STLB PREFETCH  ACCESS:          0  HIT:          0  MISS:          0
cpu0_STLB WRITEBACK ACCESS:          0  HIT:          0  MISS:          0
cpu0_L1D TOTAL     ACCESS:   13003679  HIT:   12967474  MISS:      36205
cpu0_L1D LOAD      ACCESS:    8487430  HIT:    8459192  MISS:      28238
cpu0_L1D RFO       ACCESS:    4499066  HIT:    4491200  MISS:       7866
cpu0_L1D PREFETCH  ACCESS:          0  HIT:          0  MISS:          0
cpu0_L1D WRITEBACK ACCESS:          0  HIT:          0  MISS:          0
cpu0_L2C TOTAL     ACCESS:      62589  HIT:      41489  MISS:      21100
cpu0_L2C LOAD      ACCESS:      30619  HIT:      11286  MISS:      19333
cpu0_L2C RFO       ACCESS:       7865  HIT:       6193  MISS:       1672
cpu0_L2C PREFETCH  ACCESS:          0  HIT:          0  MISS:          0
cpu0_L2C WRITEBACK ACCESS:      24004  HIT:      23916  MISS:         88
LLC TOTAL     ACCESS:      37786  HIT:         28  MISS:      37758
LLC LOAD      ACCESS:      19333  HIT:         14  MISS:      19319
LLC RFO       ACCESS:       1672  HIT:         14  MISS:       1658
LLC PREFETCH  ACCESS:          0  HIT:          0  MISS:          0
LLC WRITEBACK ACCESS:      16774  HIT:          0  MISS:      16774
Heartbeat CPU 0 instructions: 102000000 cycles: 75384390 heartbeat IPC: 0.890837 cumulative IPC: 0.826919 (Simulation time: 0 hr 41 min 23 sec) 

Region of Interest Statistics
cpu0_DTLB TOTAL     ACCESS:   11371439  HIT:   11294666  MISS:      76773
cpu0_DTLB LOAD      ACCESS:    8551262  HIT:    8486377  MISS:      64885
cpu0_DTLB RFO       ACCESS:    2820177  HIT:    2808289  MISS:      11888
cpu0_DTLB PREFETCH  ACCESS:          0  HIT:          0  MISS:          0
cpu0_DTLB WRITEBACK ACCESS:          0  HIT:          0  MISS:          0
cpu0_ITLB TOTAL     ACCESS:    5173282  HIT:    5173282  MISS:          0
cpu0_ITLB LOAD      ACCESS:    5173282  HIT:    5173282  MISS:          0
cpu0_ITLB RFO       ACCESS:          0  HIT:          0  MISS:          0
cpu0_ITLB PREFETCH  ACCESS:          0  HIT:          0  MISS:          0
cpu0_ITLB WRITEBACK ACCESS:          0  HIT:          0  MISS:          0
cpu0_L1I TOTAL     ACCESS:    3514709  HIT:    3512198  MISS:       2511
cpu0_L1I LOAD      ACCESS:    3514709  HIT:    3512198  MISS:       2511
cpu0_L1I RFO       ACCESS:          0  HIT:          0  MISS:          0
cpu0_L1I PREFETCH  ACCESS:          0  HIT:          0  MISS:          0
cpu0_L1I WRITEBACK ACCESS:          0  HIT:          0  MISS:          0
cpu0_STLB TOTAL     ACCESS:      76773  HIT:      59070  MISS:      17703
cpu0_STLB LOAD      ACCESS:      64885  HIT:      47278  MISS:      17607
cpu0_STLB RFO       ACCESS:      11888  HIT:      11792  MISS:         96
cpu0_STLB PREFETCH  ACCESS:          0  HIT:          0  MISS:          0
cpu0_STLB WRITEBACK ACCESS:          0  HIT:          0  MISS:          0
cpu0_L1D TOTAL     ACCESS:   13523078  HIT:   13485838  MISS:      37240
cpu0_L1D LOAD      ACCESS:    8814843  HIT:    8785812  MISS:      29031
cpu0_L1D RFO       ACCESS:    4690532  HIT:    4682430  MISS:       8102
cpu0_L1D PREFETCH  ACCESS:          0  HIT:          0  MISS:          0
cpu0_L1D WRITEBACK ACCESS:          0  HIT:          0  MISS:          0
cpu0_L2C TOTAL     ACCESS:      64404  HIT:      42576  MISS:      21828
cpu0_L2C LOAD      ACCESS:      31542  HIT:      11616  MISS:      19926
cpu0_L2C RFO       ACCESS:       8100  HIT:       6297  MISS:       1803
cpu0_L2C PREFETCH  ACCESS:          0  HIT:          0  MISS:          0
cpu0_L2C WRITEBACK ACCESS:      24655  HIT:      24563  MISS:         92
LLC TOTAL     ACCESS:      39106  HIT:         29  MISS:      39077
LLC LOAD      ACCESS:      19926  HIT:         14  MISS:      19912
LLC RFO       ACCESS:       1803  HIT:         15  MISS:       1788
LLC PREFETCH  ACCESS:          0  HIT:          0  MISS:          0
LLC WRITEBACK ACCESS:      17370  HIT:          0  MISS:      17370
Heartbeat CPU 0 instructions: 104000002 cycles: 77670395 heartbeat IPC: 0.87489 cumulative IPC: 0.828601 (Simulation time: 0 hr 42 min 14 sec) 

Region of Interest Statistics
cpu0_DTLB TOTAL     ACCESS:   11795929  HIT:   11716963  MISS:      78966
cpu0_DTLB LOAD      ACCESS:    8865454  HIT:    8798774  MISS:      66680
cpu0_DTLB RFO       ACCESS:    2930475  HIT:    2918189  MISS:      12286
cpu0_DTLB PREFETCH  ACCESS:          0  HIT:          0  MISS:          0
cpu0_DTLB WRITEBACK ACCESS:          0  HIT:          0  MISS:          0
cpu0_ITLB TOTAL     ACCESS:    5377877  HIT:    5377877  MISS:          0
cpu0_ITLB LOAD      ACCESS:    5377877  HIT:    5377877  MISS:          0
cpu0_ITLB RFO       ACCESS:          0  HIT:          0  MISS:          0
cpu0_ITLB PREFETCH  ACCESS:          0  HIT:          0  MISS:          0
cpu0_ITLB WRITEBACK ACCESS:          0  HIT:          0  MISS:          0
cpu0_L1I TOTAL     ACCESS:    3627253  HIT:    3624596  MISS:       2657
cpu0_L1I LOAD      ACCESS:    3627253  HIT:    3624596  MISS:       2657
cpu0_L1I RFO       ACCESS:          0  HIT:          0  MISS:          0
cpu0_L1I PREFETCH  ACCESS:          0  HIT:          0  MISS:          0
cpu0_L1I WRITEBACK ACCESS:          0  HIT:          0  MISS:          0
cpu0_STLB TOTAL     ACCESS:      78966  HIT:      60768  MISS:      18198
cpu0_STLB LOAD      ACCESS:      66680  HIT:      48581  MISS:      18099
cpu0_STLB RFO       ACCESS:      12286  HIT:      12187  MISS:         99
cpu0_STLB PREFETCH  ACCESS:          0  HIT:          0  MISS:          0
cpu0_STLB WRITEBACK ACCESS:          0  HIT:          0  MISS:          0
cpu0_L1D TOTAL     ACCESS:   14033635  HIT:   13995164  MISS:      38471
cpu0_L1D LOAD      ACCESS:    9139960  HIT:    9109982  MISS:      29978
cpu0_L1D RFO       ACCESS:    4875477  HIT:    4867097  MISS:       8380
cpu0_L1D PREFETCH  ACCESS:          0  HIT:          0  MISS:          0
cpu0_L1D WRITEBACK ACCESS:          0  HIT:          0  MISS:          0
cpu0_L2C TOTAL     ACCESS:      66610  HIT:      44176  MISS:      22434
cpu0_L2C LOAD      ACCESS:      32635  HIT:      12165  MISS:      20470
cpu0_L2C RFO       ACCESS:       8378  HIT:       6514  MISS:       1864
cpu0_L2C PREFETCH  ACCESS:          0  HIT:          0  MISS:          0
cpu0_L2C WRITEBACK ACCESS:      25484  HIT:      25391  MISS:         93
LLC TOTAL     ACCESS:      40209  HIT:         29  MISS:      40180
LLC LOAD      ACCESS:      20470  HIT:         14  MISS:      20456
LLC RFO       ACCESS:       1864  HIT:         15  MISS:       1849
LLC PREFETCH  ACCESS:          0  HIT:          0  MISS:          0
LLC WRITEBACK ACCESS:      17868  HIT:          0  MISS:      17868
Heartbeat CPU 0 instructions: 106000000 cycles: 79870004 heartbeat IPC: 0.909252 cumulative IPC: 0.831235 (Simulation time: 0 hr 43 min 5 sec) 

Region of Interest Statistics
cpu0_DTLB TOTAL     ACCESS:   12218309  HIT:   12137224  MISS:      81085
cpu0_DTLB LOAD      ACCESS:    9176500  HIT:    9108102  MISS:      68398
cpu0_DTLB RFO       ACCESS:    3041809  HIT:    3029122  MISS:      12687
cpu0_DTLB PREFETCH  ACCESS:          0  HIT:          0  MISS:          0
cpu0_DTLB WRITEBACK ACCESS:          0  HIT:          0  MISS:          0
cpu0_ITLB TOTAL     ACCESS:    5584810  HIT:    5584810  MISS:          0
cpu0_ITLB LOAD      ACCESS:    5584810  HIT:    5584810  MISS:          0
cpu0_ITLB RFO       ACCESS:          0  HIT:          0  MISS:          0
cpu0_ITLB PREFETCH  ACCESS:          0  HIT:          0  MISS:          0
cpu0_ITLB WRITEBACK ACCESS:          0  HIT:          0  MISS:          0
cpu0_L1I TOTAL     ACCESS:    3729838  HIT:    3727034  MISS:       2804
cpu0_L1I LOAD      ACCESS:    3729838  HIT:    3727034  MISS:       2804
cpu0_L1I RFO       ACCESS:          0  HIT:          0  MISS:          0
cpu0_L1I PREFETCH  ACCESS:          0  HIT:          0  MISS:          0
cpu0_L1I WRITEBACK ACCESS:          0  HIT:          0  MISS:          0
cpu0_STLB TOTAL     ACCESS:      81085  HIT:      62435  MISS:      18650
cpu0_STLB LOAD      ACCESS:      68398  HIT:      49847  MISS:      18551
cpu0_STLB RFO       ACCESS:      12687  HIT:      12588  MISS:         99
cpu0_STLB PREFETCH  ACCESS:          0  HIT:          0  MISS:          0
cpu0_STLB WRITEBACK ACCESS:          0  HIT:          0  MISS:          0
cpu0_L1D TOTAL     ACCESS:   14540793  HIT:   14501154  MISS:      39639
cpu0_L1D LOAD      ACCESS:    9461111  HIT:    9430250  MISS:      30861
cpu0_L1D RFO       ACCESS:    5061032  HIT:    5052368  MISS:       8664
cpu0_L1D PREFETCH  ACCESS:          0  HIT:          0  MISS:          0
cpu0_L1D WRITEBACK ACCESS:          0  HIT:          0  MISS:          0
cpu0_L2C TOTAL     ACCESS:      68655  HIT:      45693  MISS:      22962
cpu0_L2C LOAD      ACCESS:      33665  HIT:      12688  MISS:      20977
cpu0_L2C RFO       ACCESS:       8661  HIT:       6776  MISS:       1885
cpu0_L2C PREFETCH  ACCESS:          0  HIT:          0  MISS:          0
cpu0_L2C WRITEBACK ACCESS:      26215  HIT:      26122  MISS:         93
LLC TOTAL     ACCESS:      41158  HIT:         30  MISS:      41128
[...]
cpu0_DTLB LOAD      ACCESS:  243824861  HIT:  242167706  MISS:    1657155
cpu0_DTLB RFO       ACCESS:   81508343  HIT:   81194450  MISS:     313893
cpu0_DTLB PREFETCH  ACCESS:          0  HIT:          0  MISS:          0
cpu0_DTLB WRITEBACK ACCESS:          0  HIT:          0  MISS:          0
cpu0_ITLB TOTAL     ACCESS:  150759935  HIT:  150759933  MISS:          2
cpu0_ITLB LOAD      ACCESS:  150759935  HIT:  150759933  MISS:          2
cpu0_ITLB RFO       ACCESS:          0  HIT:          0  MISS:          0
cpu0_ITLB PREFETCH  ACCESS:          0  HIT:          0  MISS:          0
cpu0_ITLB WRITEBACK ACCESS:          0  HIT:          0  MISS:          0
cpu0_L1I TOTAL     ACCESS:   95359643  HIT:   95289119  MISS:      70524
cpu0_L1I LOAD      ACCESS:   95359643  HIT:   95289119  MISS:      70524
cpu0_L1I RFO       ACCESS:          0  HIT:          0  MISS:          0
cpu0_L1I PREFETCH  ACCESS:          0  HIT:          0  MISS:          0
cpu0_L1I WRITEBACK ACCESS:          0  HIT:          0  MISS:          0
cpu0_STLB TOTAL     ACCESS:    1971050  HIT:    1539974  MISS:     431076
cpu0_STLB LOAD      ACCESS:    1657157  HIT:    1228157  MISS:     429000
cpu0_STLB RFO       ACCESS:     313893  HIT:     311817  MISS:       2076
cpu0_STLB PREFETCH  ACCESS:          0  HIT:          0  MISS:          0
cpu0_STLB WRITEBACK ACCESS:          0  HIT:          0  MISS:          0
cpu0_L1D TOTAL     ACCESS:  385561512  HIT:  384601244  MISS:     960268
cpu0_L1D LOAD      ACCESS:  249783583  HIT:  249051567  MISS:     732016
cpu0_L1D RFO       ACCESS:  135346880  HIT:  135122631  MISS:     224249
cpu0_L1D PREFETCH  ACCESS:          0  HIT:          0  MISS:          0
cpu0_L1D WRITEBACK ACCESS:          0  HIT:          0  MISS:          0
cpu0_L2C TOTAL     ACCESS:    1651591  HIT:    1127432  MISS:     524159
cpu0_L2C LOAD      ACCESS:     802537  HIT:     319938  MISS:     482599
cpu0_L2C RFO       ACCESS:     224224  HIT:     184407  MISS:      39817
cpu0_L2C PREFETCH  ACCESS:          0  HIT:          0  MISS:          0
cpu0_L2C WRITEBACK ACCESS:     620827  HIT:     619316  MISS:       1511
LLC TOTAL     ACCESS:     927849  HIT:        817  MISS:     927032
LLC LOAD      ACCESS:     482599  HIT:        352  MISS:     482247
LLC RFO       ACCESS:      39817  HIT:        465  MISS:      39352
LLC PREFETCH  ACCESS:          0  HIT:          0  MISS:          0
LLC WRITEBACK ACCESS:     405201  HIT:          0  MISS:     405201
Heartbeat CPU 0 instructions: 1550000002 cycles: 1745420108 heartbeat IPC: 0.87529 cumulative IPC: 0.865591 (Simulation time: 9 hr 31 min 49 sec) 

Region of Interest Statistics
cpu0_DTLB TOTAL     ACCESS:  325770394  HIT:  323796877  MISS:    1973517
cpu0_DTLB LOAD      ACCESS:  244154617  HIT:  242495418  MISS:    1659199
cpu0_DTLB RFO       ACCESS:   81615777  HIT:   81301459  MISS:     314318
cpu0_DTLB PREFETCH  ACCESS:          0  HIT:          0  MISS:          0
cpu0_DTLB WRITEBACK ACCESS:          0  HIT:          0  MISS:          0
cpu0_ITLB TOTAL     ACCESS:  150961541  HIT:  150961539  MISS:          2
cpu0_ITLB LOAD      ACCESS:  150961541  HIT:  150961539  MISS:          2
cpu0_ITLB RFO       ACCESS:          0  HIT:          0  MISS:          0
cpu0_ITLB PREFETCH  ACCESS:          0  HIT:          0  MISS:          0
cpu0_ITLB WRITEBACK ACCESS:          0  HIT:          0  MISS:          0
cpu0_L1I TOTAL     ACCESS:   95479424  HIT:   95408785  MISS:      70639
cpu0_L1I LOAD      ACCESS:   95479424  HIT:   95408785  MISS:      70639
cpu0_L1I RFO       ACCESS:          0  HIT:          0  MISS:          0
cpu0_L1I PREFETCH  ACCESS:          0  HIT:          0  MISS:          0
cpu0_L1I WRITEBACK ACCESS:          0  HIT:          0  MISS:          0
cpu0_STLB TOTAL     ACCESS:    1973519  HIT:    1541970  MISS:     431549
cpu0_STLB LOAD      ACCESS:    1659201  HIT:    1229728  MISS:     429473
cpu0_STLB RFO       ACCESS:     314318  HIT:     312242  MISS:       2076
cpu0_STLB PREFETCH  ACCESS:          0  HIT:          0  MISS:          0
cpu0_STLB WRITEBACK ACCESS:          0  HIT:          0  MISS:          0
cpu0_L1D TOTAL     ACCESS:  386071246  HIT:  385109932  MISS:     961314
cpu0_L1D LOAD      ACCESS:  250116489  HIT:  249383635  MISS:     732854
cpu0_L1D RFO       ACCESS:  135523235  HIT:  135298782  MISS:     224453
cpu0_L1D PREFETCH  ACCESS:          0  HIT:          0  MISS:          0
cpu0_L1D WRITEBACK ACCESS:          0  HIT:          0  MISS:          0
cpu0_L2C TOTAL     ACCESS:    1653438  HIT:    1128691  MISS:     524747
cpu0_L2C LOAD      ACCESS:     803490  HIT:     320353  MISS:     483137
cpu0_L2C RFO       ACCESS:     224428  HIT:     184562  MISS:      39866
cpu0_L2C PREFETCH  ACCESS:          0  HIT:          0  MISS:          0
cpu0_L2C WRITEBACK ACCESS:     621513  HIT:     620001  MISS:       1512
LLC TOTAL     ACCESS:     928882  HIT:        818  MISS:     928064
LLC LOAD      ACCESS:     483137  HIT:        352  MISS:     482785
LLC RFO       ACCESS:      39866  HIT:        466  MISS:      39400
LLC PREFETCH  ACCESS:          0  HIT:          0  MISS:          0
LLC WRITEBACK ACCESS:     405647  HIT:          0  MISS:     405647
Finished CPU 0 instructions: 1500000000 cycles: 1732919762 cumulative IPC: 0.865591 (Simulation time: 9 hr 31 min 49 sec) 

ChampSim completed all CPUs

Region of Interest Statistics

CPU 0 cumulative IPC: 0.865591 instructions: 1500000000 cycles: 1732919762
cpu0_DTLB TOTAL     ACCESS:  325770394  HIT:  323796877  MISS:    1973517
cpu0_DTLB LOAD      ACCESS:  244154617  HIT:  242495418  MISS:    1659199
cpu0_DTLB RFO       ACCESS:   81615777  HIT:   81301459  MISS:     314318
cpu0_DTLB PREFETCH  ACCESS:          0  HIT:          0  MISS:          0
cpu0_DTLB WRITEBACK ACCESS:          0  HIT:          0  MISS:          0
cpu0_DTLB TRANSLATION ACCESS:          0  HIT:          0  MISS:          0
cpu0_DTLB PREFETCH  REQUESTED:          0  ISSUED:          0  USEFUL:          0  USELESS:          0
cpu0_DTLB AVERAGE MISS LATENCY: 14.0585 cycles
cpu0_ITLB TOTAL     ACCESS:  150961541  HIT:  150961539  MISS:          2
cpu0_ITLB LOAD      ACCESS:  150961541  HIT:  150961539  MISS:          2
cpu0_ITLB RFO       ACCESS:          0  HIT:          0  MISS:          0
cpu0_ITLB PREFETCH  ACCESS:          0  HIT:          0  MISS:          0
cpu0_ITLB WRITEBACK ACCESS:          0  HIT:          0  MISS:          0
cpu0_ITLB TRANSLATION ACCESS:          0  HIT:          0  MISS:          0
cpu0_ITLB PREFETCH  REQUESTED:          0  ISSUED:          0  USEFUL:          0  USELESS:          0
cpu0_ITLB AVERAGE MISS LATENCY: 222.5 cycles
cpu0_L1I TOTAL     ACCESS:   95479424  HIT:   95408785  MISS:      70639
cpu0_L1I LOAD      ACCESS:   95479424  HIT:   95408785  MISS:      70639
cpu0_L1I RFO       ACCESS:          0  HIT:          0  MISS:          0
cpu0_L1I PREFETCH  ACCESS:          0  HIT:          0  MISS:          0
cpu0_L1I WRITEBACK ACCESS:          0  HIT:          0  MISS:          0
cpu0_L1I TRANSLATION ACCESS:          0  HIT:          0  MISS:          0
cpu0_L1I PREFETCH  REQUESTED:          0  ISSUED:          0  USEFUL:          0  USELESS:          0
cpu0_L1I AVERAGE MISS LATENCY: 14.193 cycles
cpu0_STLB TOTAL     ACCESS:    1973519  HIT:    1541970  MISS:     431549
cpu0_STLB LOAD      ACCESS:    1659201  HIT:    1229728  MISS:     429473
cpu0_STLB RFO       ACCESS:     314318  HIT:     312242  MISS:       2076
cpu0_STLB PREFETCH  ACCESS:          0  HIT:          0  MISS:          0
cpu0_STLB WRITEBACK ACCESS:          0  HIT:          0  MISS:          0
cpu0_STLB TRANSLATION ACCESS:          0  HIT:          0  MISS:          0
cpu0_STLB PREFETCH  REQUESTED:          0  ISSUED:          0  USEFUL:          0  USELESS:          0
cpu0_STLB AVERAGE MISS LATENCY: 23.1053 cycles
cpu0_L1D TOTAL     ACCESS:  386071246  HIT:  385109932  MISS:     961314
cpu0_L1D LOAD      ACCESS:  250116489  HIT:  249383635  MISS:     732854
cpu0_L1D RFO       ACCESS:  135523235  HIT:  135298782  MISS:     224453
cpu0_L1D PREFETCH  ACCESS:          0  HIT:          0  MISS:          0
cpu0_L1D WRITEBACK ACCESS:          0  HIT:          0  MISS:          0
cpu0_L1D TRANSLATION ACCESS:     431522  HIT:     427515  MISS:       4007
cpu0_L1D PREFETCH  REQUESTED:          0  ISSUED:          0  USEFUL:          0  USELESS:          0
cpu0_L1D AVERAGE MISS LATENCY: 111.082 cycles
cpu0_L2C TOTAL     ACCESS:    1653438  HIT:    1128691  MISS:     524747
cpu0_L2C LOAD      ACCESS:     803490  HIT:     320353  MISS:     483137
cpu0_L2C RFO       ACCESS:     224428  HIT:     184562  MISS:      39866
cpu0_L2C PREFETCH  ACCESS:          0  HIT:          0  MISS:          0
cpu0_L2C WRITEBACK ACCESS:     621513  HIT:     620001  MISS:       1512
cpu0_L2C TRANSLATION ACCESS:       4007  HIT:       3775  MISS:        232
cpu0_L2C PREFETCH  REQUESTED:          0  ISSUED:          0  USEFUL:          0  USELESS:          0
cpu0_L2C AVERAGE MISS LATENCY: 183.758 cycles
LLC TOTAL     ACCESS:     928882  HIT:        818  MISS:     928064
LLC LOAD      ACCESS:     483137  HIT:        352  MISS:     482785
LLC RFO       ACCESS:      39866  HIT:        466  MISS:      39400
LLC PREFETCH  ACCESS:          0  HIT:          0  MISS:          0
LLC WRITEBACK ACCESS:     405647  HIT:          0  MISS:     405647
LLC TRANSLATION ACCESS:        232  HIT:          0  MISS:        232
LLC PREFETCH  REQUESTED:          0  ISSUED:          0  USEFUL:          0  USELESS:          0
LLC AVERAGE MISS LATENCY: 92.0611 cycles
~~~~~~~~~~Reuse Distance Profiler output~~~~~~~~~~
0	0	0
1	0	0
2	0	0
3	0	0
4	0	0
5	0	0
6	0	0
7	0	0
8	0	0
9	0	0
10	0	0
11	0	0
12	0	0
13	0	0
14	0	0
15	0	0
16	0	0
17	0	0
18	0	0
19	0	0
20	0	0
21	0	0
22	0	0
23	0	0
24	0	0
25	0	0
26	0	0
27	0	0
28	0	0
29	0	0
30	0	0
31	0	0
32	0	0
33	0	0
34	0	0
35	0	0
36	0	0
37	0	0
38	0	0
39	0	0
40	0	0
41	0	0
42	0	0
43	0	0
44	0	0
45	0	0
46	0	0
47	0	0
48	0	0
49	0	0
50	0	0
51	0	0
52	0	0
53	0	0
54	0	0
55	0	0
56	0	0
57	0	0
58	0	0
59	0	0
60	0	0
61	0	0
62	0	0
63	0	0
64	0	0
66	0	0
68	0	0
70	0	0
72	0	0
74	0	0
76	0	0
78	0	0
80	0	0
82	0	0
84	0	0
86	0	0
88	0	0
90	0	0
92	0	0
94	0	0
96	0	0
98	0	0
100	0	0
102	0	0
104	0	0
106	0	0
108	0	0
110	0	0
112	0	0
114	0	0
116	0	0
118	0	0
120	0	0
122	0	0
124	0	0
126	0	0
128	0	0
132	0	0
136	0	0
140	0	0
144	0	0
148	0	0
152	0	0
156	0	0
160	0	0
164	0	0
168	0	0
172	0	0
176	0	0
180	0	0
184	0	0
188	0	0
192	0	0
196	0	0
200	0	0
204	0	0
208	0	0
212	0	0
216	0	0
220	0	0
224	0	0
228	0	0
232	0	0
236	0	0
240	0	0
244	0	0
248	0	0
252	0	0
256	0	0
264	0	0
272	0	0
280	0	0
288	0	0
296	0	0
304	0	0
312	0	0
320	0	0
328	0	0
336	0	0
344	0	0
352	0	0
360	0	0
368	0	0
376	0	0
384	0	0
392	0	0
400	0	0
408	0	0
416	0	0
424	0	0
432	0	0
440	0	0
448	0	0
456	0	0
464	0	0
472	0	0
480	0	0
488	0	0
496	0	0
504	0	0
512	0	0
528	0	0
544	0	0
560	0	0
576	0	0
592	0	0
608	0	0
624	0	0
640	0	0
656	0	0
672	0	0
688	0	0
704	0	0
720	0	0
736	0	0
752	0	0
768	0	0
784	0	0
800	0	0
816	0	0
832	0	0
848	0	0
864	0	0
880	0	0
896	0	0
912	0	0
928	0	0
944	0	0
960	0	0
976	0	0
992	0	0
1008	0	0
1024	0	0
1056	0	0
1088	0	0
1120	0	0
1152	0	0
1184	0	0
1216	0	0
1248	0	0
1280	0	0
1312	0	0
1344	0	0
1376	0	0
1408	0	0
1440	0	0
1472	0	0
1504	0	0
1536	0	0
1568	0	0
1600	0	0
1632	0	0
1664	0	0
1696	0	0
1728	0	0
1760	0	0
1792	0	0
1824	0	0
1856	0	0
1888	0	0
1920	0	0
1952	0	0
1984	0	0
2016	0	0
2048	0	0
2112	0	0
2176	0	0
2240	0	0
2304	0	0
2368	0	0
2432	0	0
2496	0	0
2560	0	0
2624	0	0
2688	0	0
2752	0	0
2816	0	0
2880	0	0
2944	0	0
3008	0	0
3072	0	0
3136	0	0
3200	0	0
3264	0	0
3328	0	0
3392	0	0
3456	0	0
3520	0	0
3584	0	0
3648	0	0
3712	0	0
3776	0	0
3840	0	0
3904	0	0
3968	0	0
4032	0	0
4096	0	0
4224	0	0
4352	0	0
4480	0	0
4608	0	0
4736	0	0
4864	0	0
4992	0	0
5120	0	0
5248	0	0
5376	0	0
5504	0	0
5632	0	0
5760	0	0
5888	0	0
6016	0	0
6144	0	0
6272	0	0
6400	0	0
6528	0	0
6656	0	0
6784	0	0
6912	0	0
7040	0	0
7168	0	0
7296	0	0
7424	0	0
7552	0	0
7680	0	0
7808	0	0
7936	0	0
8064	0	0
8192	0	0
8448	0	0
8704	0	0
8960	0	0
9216	0	0
9472	0	0
9728	0	0
9984	0	0
10240	0	0
10496	0	0
10752	0	0
11008	0	0
11264	0	0
11520	0	0
11776	0	0
12032	0	0
12288	0	0
12544	0	0
12800	0	0
13056	0	0
13312	0	0
13568	0	0
13824	0	0
14080	0	0
14336	0	0
14592	0	0
14848	0	0
15104	0	0
15360	0	0
15616	0	0
15872	0	0
16128	0	0
16384	0	0
16896	0	0
17408	0	0
17920	0	0
18432	0	0
18944	0	0
19456	0	0
19968	0	0
20480	0	0
20992	0	0
21504	0	0
22016	0	0
22528	0	0
23040	0	0
23552	0	0
24064	0	0
24576	0	0
25088	0	0
25600	0	0
26112	0	0
26624	0	0
27136	0	0
27648	0	0
28160	0	0
28672	0	0
29184	0	0
29696	0	0
30208	0	0
30720	0	0
31232	0	0
31744	0	0
32256	0	0
32768	0	0
33792	0	0
34816	0	0
35840	0	0
36864	0	0
37888	0	0
38912	0	0
39936	0	0
40960	0	0
41984	0	0
43008	0	0
44032	0	0
45056	0	0
46080	0	0
47104	0	0
48128	0	0
49152	0	0
50176	0	0
51200	0	0
52224	0	0
53248	0	0
54272	0	0
55296	0	0
56320	0	0
57344	0	0
58368	0	0
59392	0	0
60416	0	0
61440	0	0
62464	0	0
63488	0	0
64512	0	0
65536	0	0
67584	0	0
69632	0	0
71680	0	0
73728	0	0
75776	0	0
77824	0	0
79872	0	0
81920	0	0
83968	0	0
86016	0	0
88064	0	0
90112	0	0
92160	0	0
94208	0	0
96256	0	0
98304	0	0
100352	0	0
102400	0	0
104448	0	0
106496	0	0
108544	0	0
110592	0	0
112640	0	0
114688	0	0
116736	0	0
118784	0	0
120832	0	0
122880	0	0
124928	0	0
126976	0	0
129024	0	0
131072	0	0
135168	0	0
139264	0	0
143360	0	0
147456	0	0
151552	0	0
155648	0	0
159744	0	0
163840	0	0
167936	0	0
172032	0	0
176128	0	0
180224	0	0
184320	0	0
188416	0	0
192512	0	0
196608	0	0
200704	0	0
204800	0	0
208896	0	0
212992	0	0
217088	0	0
221184	0	0
225280	0	0
229376	0	0
233472	0	0
237568	0	0
241664	0	0
245760	0	0
249856	0	0
253952	0	0
258048	0	0
262144	0	0
270336	0	0
278528	0	0
286720	0	0
294912	0	0
303104	0	0
311296	0	0
319488	0	0
327680	0	0
335872	0	0
344064	0	0
352256	0	0
360448	0	0
368640	0	0
376832	0	0
385024	0	0
393216	0	0
401408	0	0
409600	0	0
417792	0	0
425984	0	0
434176	0	0
442368	0	0
450560	0	0
458752	0	0
466944	0	0
475136	0	0
483328	0	0
491520	0	0
499712	0	0
507904	0	0
516096	0	0
524288	0	0
540672	0	0
557056	0	0
573440	0	0
589824	0	0
606208	0	0
622592	0	0
638976	0	0
655360	0	0
671744	0	0
688128	0	0
704512	0	0
720896	0	0
737280	0	0
753664	0	0
770048	0	0
786432	0	0
802816	0	0
819200	0	0
835584	0	0
851968	0	0
868352	0	0
884736	0	0
901120	0	0
917504	0	0
933888	0	0
950272	0	0
966656	0	0
983040	0	0
999424	0	0
1015808	0	0
1032192	0	0
1048576	0	0
1081344	0	0
1114112	0	0
1146880	0	0
1179648	0	0
1212416	0	0
1245184	0	0
1277952	0	0
1310720	0	0
1343488	0	0
1376256	0	0
1409024	0	0
1441792	0	0
1474560	0	0
1507328	0	0
1540096	0	0
1572864	0	0
1605632	0	0
1638400	0	0
1671168	0	0
1703936	0	0
1736704	0	0
1769472	0	0
1802240	0	0
1835008	0	0
1867776	0	0
1900544	0	0
1933312	0	0
1966080	0	0
1998848	0	0
2031616	0	0
2064384	0	0
2097152	0	0
2162688	0	0
2228224	0	0
2293760	0	0
2359296	0	0
2424832	0	0
2490368	0	0
2555904	0	0
2621440	0	0
2686976	0	0
2752512	0	0
2818048	0	0
2883584	0	0
2949120	0	0
3014656	0	0
3080192	0	0
3145728	0	0
3211264	0	0
3276800	0	0
3342336	0	0
3407872	0	0
3473408	0	0
3538944	0	0
3604480	0	0
3670016	0	0
3735552	0	0
3801088	0	0
3866624	0	0
3932160	0	0
3997696	0	0
4063232	0	0
4128768	0	0
4194304	0	0
4325376	0	0
4456448	0	0
4587520	0	0
4718592	0	0
4849664	0	0
4980736	0	0
5111808	0	0
5242880	0	0
5373952	0	0
5505024	0	0
5636096	0	0
5767168	0	0
5898240	0	0
6029312	0	0
6160384	0	0
6291456	0	0
6422528	0	0
6553600	0	0
6684672	0	0
6815744	0	0
6946816	0	0
7077888	0	0
7208960	0	0
7340032	0	0
7471104	0	0
7602176	0	0
7733248	0	0
7864320	0	0
7995392	0	0
8126464	0	0
8257536	0	0
8388608	0	0
8650752	0	0
8912896	0	0
9175040	0	0
9437184	0	0
9699328	0	0
9961472	0	0
10223616	0	0
10485760	0	0
10747904	0	0
11010048	0	0
11272192	0	0
11534336	0	0
11796480	0	0
12058624	0	0
12320768	0	0
12582912	0	0
12845056	0	0
13107200	0	0
13369344	0	0
13631488	0	0
13893632	0	0
14155776	0	0
14417920	0	0
14680064	0	0
14942208	0	0
15204352	0	0
15466496	0	0
15728640	0	0
15990784	0	0
16252928	0	0
16515072	0	0
16777216	0	0
17301504	0	0
17825792	0	0
18350080	0	0
18874368	0	0
19398656	0	0
19922944	0	0
20447232	0	0
20971520	0	0
21495808	0	0
22020096	0	0
22544384	0	0
23068672	0	0
23592960	0	0
24117248	0	0
24641536	0	0
25165824	0	0
25690112	0	0
26214400	0	0
26738688	0	0
27262976	0	0
27787264	0	0
28311552	0	0
28835840	0	0
29360128	0	0
29884416	0	0
30408704	0	0
30932992	0	0
31457280	0	0
31981568	0	0
32505856	0	0
33030144	0	0
33554432	0	0
34603008	0	0
35651584	0	0
36700160	0	0
37748736	0	0
38797312	0	0
39845888	0	0
40894464	0	0
41943040	0	0
42991616	0	0
44040192	0	0
45088768	0	0
46137344	0	0
47185920	0	0
48234496	0	0
49283072	0	0
50331648	0	0
51380224	0	0
52428800	0	0
53477376	0	0
54525952	0	0
55574528	0	0
56623104	0	0
57671680	0	0
58720256	0	0
59768832	0	0
60817408	0	0
61865984	0	0
62914560	0	0
63963136	0	0
65011712	0	0
66060288	0	0
67108864	0	0
69206016	0	0
71303168	0	0
73400320	0	0
75497472	0	0
77594624	0	0
79691776	0	0
81788928	0	0
83886080	0	0
85983232	0	0
88080384	0	0
90177536	0	0
92274688	0	0
94371840	0	0
96468992	0	0
98566144	0	0
100663296	0	0
102760448	0	0
104857600	0	0
106954752	0	0
109051904	0	0
111149056	0	0
113246208	0	0
115343360	0	0
117440512	0	0
119537664	0	0
121634816	0	0
123731968	0	0
125829120	0	0
127926272	0	0
130023424	0	0
132120576	0	0
134217728	0	0
138412032	0	0
142606336	0	0
146800640	0	0
150994944	0	0
155189248	0	0
159383552	0	0
163577856	0	0
167772160	0	0
171966464	0	0
176160768	0	0
180355072	0	0
184549376	0	0
188743680	0	0
192937984	0	0
197132288	0	0
201326592	0	0
205520896	0	0
209715200	0	0
213909504	0	0
218103808	0	0
222298112	0	0
226492416	0	0
230686720	0	0
234881024	0	0
239075328	0	0
243269632	0	0
247463936	0	0
251658240	0	0
255852544	0	0
260046848	0	0
264241152	0	0
268435456	0	0
276824064	0	0
285212672	0	0
293601280	0	0
301989888	0	0
310378496	0	0
318767104	0	0
327155712	0	0
335544320	0	0
343932928	0	0
352321536	0	0
360710144	0	0
369098752	0	0
377487360	0	0
385875968	0	0
394264576	0	0
402653184	0	0
411041792	0	0
419430400	0	0
427819008	0	0
436207616	0	0
444596224	0	0
452984832	0	0
461373440	0	0
469762048	0	0
478150656	0	0
486539264	0	0
494927872	0	0
503316480	0	0
511705088	0	0
520093696	0	0
528482304	0	0
536870912	0	0
553648128	0	0
570425344	0	0
587202560	0	0
603979776	0	0
620756992	0	0
637534208	0	0
654311424	0	0
671088640	0	0
687865856	0	0
704643072	0	0
721420288	0	0
738197504	0	0
754974720	0	0
771751936	0	0
788529152	0	0
805306368	0	0
822083584	0	0
838860800	0	0
855638016	0	0
872415232	0	0
889192448	0	0
905969664	0	0
922746880	0	0
939524096	0	0
956301312	0	0
973078528	0	0
989855744	0	0
1006632960	0	0
1023410176	0	0
1040187392	0	0
1056964608	0	0
1073741824	0	0
1107296256	0	0
1140850688	0	0
1174405120	0	0
1207959552	0	0
1241513984	0	0
1275068416	0	0
1308622848	0	0
1342177280	0	0
1375731712	0	0
1409286144	0	0
1442840576	0	0
1476395008	0	0
1509949440	0	0
1543503872	0	0
1577058304	0	0
1610612736	0	0
1644167168	0	0
1677721600	0	0
1711276032	0	0
1744830464	0	0
1778384896	0	0
1811939328	0	0
1845493760	0	0
1879048192	0	0
1912602624	0	0
1946157056	0	0
1979711488	0	0
2013265920	0	0
2046820352	0	0
2080374784	0	0
2113929216	0	0
2147483648	0	0
2214592512	0	0
2281701376	0	0
2348810240	0	0
2415919104	0	0
2483027968	0	0
2550136832	0	0
2617245696	0	0
2684354560	0	0
2751463424	0	0
2818572288	0	0
2885681152	0	0
2952790016	0	0
3019898880	0	0
3087007744	0	0
3154116608	0	0
3221225472	0	0
3288334336	0	0
3355443200	0	0
3422552064	0	0
3489660928	0	0
3556769792	0	0
3623878656	0	0
3690987520	0	0
3758096384	0	0
3825205248	0	0
3892314112	0	0
3959422976	0	0
4026531840	0	0
4093640704	0	0
4160749568	0	0
4227858432	0	0
~~~~~~~~~~Reuse Distance Profiler output end~~~~~~~~~~


DRAM Statistics
 CHANNEL 0
 RQ ROW_BUFFER_HIT:        397  ROW_BUFFER_MISS:     522020
 DBUS AVG_CONGESTED_CYCLE:    3.80049
 WQ ROW_BUFFER_HIT:      34712  ROW_BUFFER_MISS:     370935  FULL:          0


CPU 0 Branch Prediction Accuracy: 86.8395% MPKI: 29.8479 Average ROB Occupancy at Mispredict: 16.3543
Branch type MPKI
BRANCH_DIRECT_JUMP: 2.33333e-05
BRANCH_INDIRECT: 0.656315
BRANCH_CONDITIONAL: 28.9849
BRANCH_DIRECT_CALL: 1.06667e-05
BRANCH_INDIRECT_CALL: 0.206729
BRANCH_RETURN: 1.13333e-05

