
*** ChampSim Multicore Out-of-Order Simulator ***

Warmup Instructions: 50000000
Simulation Instructions: 1500000000
Number of CPUs: 1
Off-chip DRAM Size: 4 GiB Channels: 1 Width: 64-bit Data Rate: 3200 MT/s

VirtualMemory physical capacity: 8588881920 num_ppages: 2096895
VirtualMemory page size: 4096 log2_page_size: 12

CPU 0 runs traces/459.GemsFDTD-1320B.champsimtrace.xz
CPU 0 Bimodal branch predictor
Basic BTB sets: 1024 ways: 8 indirect buffer size: 4096 RAS size: 64
Initializing LRU.
Initializing LRU.
Initializing LRU.
Initializing LRU.
Initializing rdLRU.
Initializing LRU.
Initializing LRU.
Heartbeat CPU 0 instructions: 2000002 cycles: 1035864 heartbeat IPC: 1.93076 cumulative IPC: 1.93076 (Simulation time: 0 hr 2 min 15 sec) 
Heartbeat CPU 0 instructions: 4000001 cycles: 2071953 heartbeat IPC: 1.93034 cumulative IPC: 1.93055 (Simulation time: 0 hr 4 min 28 sec) 
Heartbeat CPU 0 instructions: 6000003 cycles: 3108066 heartbeat IPC: 1.93029 cumulative IPC: 1.93046 (Simulation time: 0 hr 6 min 34 sec) 
Heartbeat CPU 0 instructions: 8000001 cycles: 4144134 heartbeat IPC: 1.93037 cumulative IPC: 1.93044 (Simulation time: 0 hr 8 min 46 sec) 
Heartbeat CPU 0 instructions: 10000001 cycles: 5180213 heartbeat IPC: 1.93035 cumulative IPC: 1.93042 (Simulation time: 0 hr 10 min 59 sec) 
Heartbeat CPU 0 instructions: 12000000 cycles: 6216251 heartbeat IPC: 1.93043 cumulative IPC: 1.93042 (Simulation time: 0 hr 13 min 10 sec) 
Heartbeat CPU 0 instructions: 14000002 cycles: 7280355 heartbeat IPC: 1.87952 cumulative IPC: 1.92298 (Simulation time: 0 hr 15 min 27 sec) 
Heartbeat CPU 0 instructions: 16000003 cycles: 8348903 heartbeat IPC: 1.8717 cumulative IPC: 1.91642 (Simulation time: 0 hr 17 min 55 sec) 
Heartbeat CPU 0 instructions: 18000000 cycles: 9417441 heartbeat IPC: 1.87171 cumulative IPC: 1.91135 (Simulation time: 0 hr 20 min 17 sec) 
Heartbeat CPU 0 instructions: 20000004 cycles: 10485984 heartbeat IPC: 1.87171 cumulative IPC: 1.90731 (Simulation time: 0 hr 22 min 32 sec) 
Heartbeat CPU 0 instructions: 22000004 cycles: 11554534 heartbeat IPC: 1.8717 cumulative IPC: 1.90401 (Simulation time: 0 hr 24 min 54 sec) 
Heartbeat CPU 0 instructions: 24000001 cycles: 12623068 heartbeat IPC: 1.87172 cumulative IPC: 1.90128 (Simulation time: 0 hr 27 min 11 sec) 
Heartbeat CPU 0 instructions: 26000000 cycles: 13691619 heartbeat IPC: 1.87169 cumulative IPC: 1.89897 (Simulation time: 0 hr 29 min 27 sec) 
Heartbeat CPU 0 instructions: 28000001 cycles: 14760146 heartbeat IPC: 1.87174 cumulative IPC: 1.897 (Simulation time: 0 hr 31 min 42 sec) 
Heartbeat CPU 0 instructions: 30000000 cycles: 15828677 heartbeat IPC: 1.87173 cumulative IPC: 1.89529 (Simulation time: 0 hr 33 min 55 sec) 
Heartbeat CPU 0 instructions: 32000000 cycles: 16897208 heartbeat IPC: 1.87173 cumulative IPC: 1.8938 (Simulation time: 0 hr 36 min 13 sec) 
Heartbeat CPU 0 instructions: 34000002 cycles: 17965739 heartbeat IPC: 1.87173 cumulative IPC: 1.89249 (Simulation time: 0 hr 38 min 32 sec) 
Heartbeat CPU 0 instructions: 36000002 cycles: 19034266 heartbeat IPC: 1.87174 cumulative IPC: 1.89133 (Simulation time: 0 hr 40 min 51 sec) 
Heartbeat CPU 0 instructions: 38000003 cycles: 20102801 heartbeat IPC: 1.87172 cumulative IPC: 1.89028 (Simulation time: 0 hr 43 min 9 sec) 
Heartbeat CPU 0 instructions: 40000001 cycles: 21171327 heartbeat IPC: 1.87174 cumulative IPC: 1.88935 (Simulation time: 0 hr 45 min 25 sec) 
Heartbeat CPU 0 instructions: 42000001 cycles: 22239855 heartbeat IPC: 1.87173 cumulative IPC: 1.8885 (Simulation time: 0 hr 47 min 49 sec) 
Heartbeat CPU 0 instructions: 44000000 cycles: 23291618 heartbeat IPC: 1.90157 cumulative IPC: 1.88909 (Simulation time: 0 hr 50 min 2 sec) 
Heartbeat CPU 0 instructions: 46000000 cycles: 24327135 heartbeat IPC: 1.9314 cumulative IPC: 1.89089 (Simulation time: 0 hr 52 min 14 sec) 
Heartbeat CPU 0 instructions: 48000002 cycles: 25362650 heartbeat IPC: 1.93141 cumulative IPC: 1.89255 (Simulation time: 0 hr 54 min 26 sec) 
Heartbeat CPU 0 instructions: 50000001 cycles: 26398158 heartbeat IPC: 1.93142 cumulative IPC: 1.89407 (Simulation time: 0 hr 56 min 41 sec) 

Warmup complete CPU 0 instructions: 50000001 cycles: 26398158 (Simulation time: 0 hr 56 min 41 sec) 

Heartbeat CPU 0 instructions: 52000003 cycles: 28951941 heartbeat IPC: 0.783153 cumulative IPC: 0.783153 (Simulation time: 0 hr 59 min 43 sec) 

Region of Interest Statistics
cpu0_DTLB TOTAL     ACCESS:     784742  HIT:     757235  MISS:      27507
cpu0_DTLB LOAD      ACCESS:     721910  HIT:     694431  MISS:      27479
cpu0_DTLB RFO       ACCESS:      62832  HIT:      62804  MISS:         28
cpu0_DTLB PREFETCH  ACCESS:          0  HIT:          0  MISS:          0
cpu0_DTLB WRITEBACK ACCESS:          0  HIT:          0  MISS:          0
cpu0_ITLB TOTAL     ACCESS:      38465  HIT:      38465  MISS:          0
cpu0_ITLB LOAD      ACCESS:      38465  HIT:      38465  MISS:          0
cpu0_ITLB RFO       ACCESS:          0  HIT:          0  MISS:          0
cpu0_ITLB PREFETCH  ACCESS:          0  HIT:          0  MISS:          0
cpu0_ITLB WRITEBACK ACCESS:          0  HIT:          0  MISS:          0
cpu0_L1I TOTAL     ACCESS:     196673  HIT:     196673  MISS:          0
cpu0_L1I LOAD      ACCESS:     196673  HIT:     196673  MISS:          0
cpu0_L1I RFO       ACCESS:          0  HIT:          0  MISS:          0
cpu0_L1I PREFETCH  ACCESS:          0  HIT:          0  MISS:          0
cpu0_L1I WRITEBACK ACCESS:          0  HIT:          0  MISS:          0
cpu0_STLB TOTAL     ACCESS:      27507  HIT:      22489  MISS:       5018
cpu0_STLB LOAD      ACCESS:      27479  HIT:      22461  MISS:       5018
cpu0_STLB RFO       ACCESS:         28  HIT:         28  MISS:          0
cpu0_STLB PREFETCH  ACCESS:          0  HIT:          0  MISS:          0
cpu0_STLB WRITEBACK ACCESS:          0  HIT:          0  MISS:          0
cpu0_L1D TOTAL     ACCESS:     944665  HIT:     858562  MISS:      86103
cpu0_L1D LOAD      ACCESS:     873884  HIT:     788138  MISS:      85746
cpu0_L1D RFO       ACCESS:      65763  HIT:      65763  MISS:          0
cpu0_L1D PREFETCH  ACCESS:          0  HIT:          0  MISS:          0
cpu0_L1D WRITEBACK ACCESS:          0  HIT:          0  MISS:          0
cpu0_L2C TOTAL     ACCESS:     106100  HIT:      79934  MISS:      26166
cpu0_L2C LOAD      ACCESS:      85746  HIT:      59583  MISS:      26163
cpu0_L2C RFO       ACCESS:          0  HIT:          0  MISS:          0
cpu0_L2C PREFETCH  ACCESS:          0  HIT:          0  MISS:          0
cpu0_L2C WRITEBACK ACCESS:      19997  HIT:      19997  MISS:          0
LLC TOTAL     ACCESS:      26205  HIT:        112  MISS:      26093
LLC LOAD      ACCESS:      26163  HIT:        102  MISS:      26061
LLC RFO       ACCESS:          0  HIT:          0  MISS:          0
LLC PREFETCH  ACCESS:          0  HIT:          0  MISS:          0
LLC WRITEBACK ACCESS:         39  HIT:         10  MISS:         29
Heartbeat CPU 0 instructions: 54000000 cycles: 31509819 heartbeat IPC: 0.781897 cumulative IPC: 0.782524 (Simulation time: 1 hr 2 min 38 sec) 

Region of Interest Statistics
cpu0_DTLB TOTAL     ACCESS:    1569326  HIT:    1514297  MISS:      55029
cpu0_DTLB LOAD      ACCESS:    1443623  HIT:    1388652  MISS:      54971
cpu0_DTLB RFO       ACCESS:     125703  HIT:     125645  MISS:         58
cpu0_DTLB PREFETCH  ACCESS:          0  HIT:          0  MISS:          0
cpu0_DTLB WRITEBACK ACCESS:          0  HIT:          0  MISS:          0
cpu0_ITLB TOTAL     ACCESS:      76929  HIT:      76929  MISS:          0
cpu0_ITLB LOAD      ACCESS:      76929  HIT:      76929  MISS:          0
cpu0_ITLB RFO       ACCESS:          0  HIT:          0  MISS:          0
cpu0_ITLB PREFETCH  ACCESS:          0  HIT:          0  MISS:          0
cpu0_ITLB WRITEBACK ACCESS:          0  HIT:          0  MISS:          0
cpu0_L1I TOTAL     ACCESS:     393337  HIT:     393337  MISS:          0
cpu0_L1I LOAD      ACCESS:     393337  HIT:     393337  MISS:          0
cpu0_L1I RFO       ACCESS:          0  HIT:          0  MISS:          0
cpu0_L1I PREFETCH  ACCESS:          0  HIT:          0  MISS:          0
cpu0_L1I WRITEBACK ACCESS:          0  HIT:          0  MISS:          0
cpu0_STLB TOTAL     ACCESS:      55029  HIT:      44989  MISS:      10040
cpu0_STLB LOAD      ACCESS:      54971  HIT:      44931  MISS:      10040
cpu0_STLB RFO       ACCESS:         58  HIT:         58  MISS:          0
cpu0_STLB PREFETCH  ACCESS:          0  HIT:          0  MISS:          0
cpu0_STLB WRITEBACK ACCESS:          0  HIT:          0  MISS:          0
cpu0_L1D TOTAL     ACCESS:    1889250  HIT:    1717049  MISS:     172201
cpu0_L1D LOAD      ACCESS:    1747682  HIT:    1576196  MISS:     171486
cpu0_L1D RFO       ACCESS:     131527  HIT:     131527  MISS:          0
cpu0_L1D PREFETCH  ACCESS:          0  HIT:          0  MISS:          0
cpu0_L1D WRITEBACK ACCESS:          0  HIT:          0  MISS:          0
cpu0_L2C TOTAL     ACCESS:     212207  HIT:     159867  MISS:      52340
cpu0_L2C LOAD      ACCESS:     171486  HIT:     119154  MISS:      52332
cpu0_L2C RFO       ACCESS:          0  HIT:          0  MISS:          0
cpu0_L2C PREFETCH  ACCESS:          0  HIT:          0  MISS:          0
cpu0_L2C WRITEBACK ACCESS:      40006  HIT:      40006  MISS:          0
LLC TOTAL     ACCESS:      52407  HIT:        226  MISS:      52181
LLC LOAD      ACCESS:      52332  HIT:        203  MISS:      52129
LLC RFO       ACCESS:          0  HIT:          0  MISS:          0
LLC PREFETCH  ACCESS:          0  HIT:          0  MISS:          0
LLC WRITEBACK ACCESS:         67  HIT:         21  MISS:         46
Heartbeat CPU 0 instructions: 56000000 cycles: 34120443 heartbeat IPC: 0.7661 cumulative IPC: 0.776972 (Simulation time: 1 hr 5 min 39 sec) 

Region of Interest Statistics
cpu0_DTLB TOTAL     ACCESS:    2340226  HIT:    2257893  MISS:      82333
cpu0_DTLB LOAD      ACCESS:    2152463  HIT:    2070213  MISS:      82250
cpu0_DTLB RFO       ACCESS:     187763  HIT:     187680  MISS:         83
cpu0_DTLB PREFETCH  ACCESS:          0  HIT:          0  MISS:          0
cpu0_DTLB WRITEBACK ACCESS:          0  HIT:          0  MISS:          0
cpu0_ITLB TOTAL     ACCESS:     114158  HIT:     114158  MISS:          0
cpu0_ITLB LOAD      ACCESS:     114158  HIT:     114158  MISS:          0
cpu0_ITLB RFO       ACCESS:          0  HIT:          0  MISS:          0
cpu0_ITLB PREFETCH  ACCESS:          0  HIT:          0  MISS:          0
cpu0_ITLB WRITEBACK ACCESS:          0  HIT:          0  MISS:          0
cpu0_L1I TOTAL     ACCESS:     588769  HIT:     588735  MISS:         34
cpu0_L1I LOAD      ACCESS:     588769  HIT:     588735  MISS:         34
cpu0_L1I RFO       ACCESS:          0  HIT:          0  MISS:          0
cpu0_L1I PREFETCH  ACCESS:          0  HIT:          0  MISS:          0
cpu0_L1I WRITEBACK ACCESS:          0  HIT:          0  MISS:          0
cpu0_STLB TOTAL     ACCESS:      82333  HIT:      66566  MISS:      15767
cpu0_STLB LOAD      ACCESS:      82250  HIT:      66483  MISS:      15767
cpu0_STLB RFO       ACCESS:         83  HIT:         83  MISS:          0
cpu0_STLB PREFETCH  ACCESS:          0  HIT:          0  MISS:          0
cpu0_STLB WRITEBACK ACCESS:          0  HIT:          0  MISS:          0
cpu0_L1D TOTAL     ACCESS:    2829595  HIT:    2571525  MISS:     258070
cpu0_L1D LOAD      ACCESS:    2616714  HIT:    2359714  MISS:     257000
cpu0_L1D RFO       ACCESS:     197117  HIT:     197116  MISS:          1
cpu0_L1D PREFETCH  ACCESS:          0  HIT:          0  MISS:          0
cpu0_L1D WRITEBACK ACCESS:          0  HIT:          0  MISS:          0
cpu0_L2C TOTAL     ACCESS:     318055  HIT:     238287  MISS:      79768
cpu0_L2C LOAD      ACCESS:     257034  HIT:     177297  MISS:      79737
cpu0_L2C RFO       ACCESS:          1  HIT:          0  MISS:          1
cpu0_L2C PREFETCH  ACCESS:          0  HIT:          0  MISS:          0
cpu0_L2C WRITEBACK ACCESS:      59951  HIT:      59951  MISS:          0
LLC TOTAL     ACCESS:      79874  HIT:        404  MISS:      79470
LLC LOAD      ACCESS:      79737  HIT:        373  MISS:      79364
LLC RFO       ACCESS:          1  HIT:          0  MISS:          1
LLC PREFETCH  ACCESS:          0  HIT:          0  MISS:          0
LLC WRITEBACK ACCESS:        106  HIT:         26  MISS:         80
Heartbeat CPU 0 instructions: 58000004 cycles: 36687354 heartbeat IPC: 0.779148 cumulative IPC: 0.777515 (Simulation time: 1 hr 8 min 38 sec) 

Region of Interest Statistics
cpu0_DTLB TOTAL     ACCESS:    3095992  HIT:    2986497  MISS:     109495
cpu0_DTLB LOAD      ACCESS:    2846972  HIT:    2737573  MISS:     109399
cpu0_DTLB RFO       ACCESS:     249020  HIT:     248924  MISS:         96
cpu0_DTLB PREFETCH  ACCESS:          0  HIT:          0  MISS:          0
cpu0_DTLB WRITEBACK ACCESS:          0  HIT:          0  MISS:          0
cpu0_ITLB TOTAL     ACCESS:     150117  HIT:     150117  MISS:          0
cpu0_ITLB LOAD      ACCESS:     150117  HIT:     150117  MISS:          0
cpu0_ITLB RFO       ACCESS:          0  HIT:          0  MISS:          0
cpu0_ITLB PREFETCH  ACCESS:          0  HIT:          0  MISS:          0
cpu0_ITLB WRITEBACK ACCESS:          0  HIT:          0  MISS:          0
cpu0_L1I TOTAL     ACCESS:     782885  HIT:     782851  MISS:         34
cpu0_L1I LOAD      ACCESS:     782885  HIT:     782851  MISS:         34
cpu0_L1I RFO       ACCESS:          0  HIT:          0  MISS:          0
cpu0_L1I PREFETCH  ACCESS:          0  HIT:          0  MISS:          0
cpu0_L1I WRITEBACK ACCESS:          0  HIT:          0  MISS:          0
cpu0_STLB TOTAL     ACCESS:     109495  HIT:      88735  MISS:      20760
cpu0_STLB LOAD      ACCESS:     109399  HIT:      88639  MISS:      20760
cpu0_STLB RFO       ACCESS:         96  HIT:         96  MISS:          0
cpu0_STLB PREFETCH  ACCESS:          0  HIT:          0  MISS:          0
cpu0_STLB WRITEBACK ACCESS:          0  HIT:          0  MISS:          0
cpu0_L1D TOTAL     ACCESS:    3763943  HIT:    3420273  MISS:     343670
cpu0_L1D LOAD      ACCESS:    3480663  HIT:    3138409  MISS:     342254
cpu0_L1D RFO       ACCESS:     262523  HIT:     262522  MISS:          1
cpu0_L1D PREFETCH  ACCESS:          0  HIT:          0  MISS:          0
cpu0_L1D WRITEBACK ACCESS:          0  HIT:          0  MISS:          0
cpu0_L2C TOTAL     ACCESS:     423515  HIT:     317604  MISS:     105911
cpu0_L2C LOAD      ACCESS:     342288  HIT:     236414  MISS:     105874
cpu0_L2C RFO       ACCESS:          1  HIT:          0  MISS:          1
cpu0_L2C PREFETCH  ACCESS:          0  HIT:          0  MISS:          0
cpu0_L2C WRITEBACK ACCESS:      79811  HIT:      79811  MISS:          0
LLC TOTAL     ACCESS:     106066  HIT:        659  MISS:     105407
LLC LOAD      ACCESS:     105874  HIT:        614  MISS:     105260
LLC RFO       ACCESS:          1  HIT:          0  MISS:          1
LLC PREFETCH  ACCESS:          0  HIT:          0  MISS:          0
LLC WRITEBACK ACCESS:        155  HIT:         36  MISS:        119
Heartbeat CPU 0 instructions: 60000002 cycles: 39258763 heartbeat IPC: 0.777783 cumulative IPC: 0.777568 (Simulation time: 1 hr 11 min 35 sec) 

Region of Interest Statistics
cpu0_DTLB TOTAL     ACCESS:    3852194  HIT:    3715541  MISS:     136653
cpu0_DTLB LOAD      ACCESS:    3541911  HIT:    3405371  MISS:     136540
cpu0_DTLB RFO       ACCESS:     310283  HIT:     310170  MISS:        113
cpu0_DTLB PREFETCH  ACCESS:          0  HIT:          0  MISS:          0
cpu0_DTLB WRITEBACK ACCESS:          0  HIT:          0  MISS:          0
cpu0_ITLB TOTAL     ACCESS:     186079  HIT:     186079  MISS:          0
cpu0_ITLB LOAD      ACCESS:     186079  HIT:     186079  MISS:          0
cpu0_ITLB RFO       ACCESS:          0  HIT:          0  MISS:          0
cpu0_ITLB PREFETCH  ACCESS:          0  HIT:          0  MISS:          0
cpu0_ITLB WRITEBACK ACCESS:          0  HIT:          0  MISS:          0
cpu0_L1I TOTAL     ACCESS:     977091  HIT:     977057  MISS:         34
cpu0_L1I LOAD      ACCESS:     977091  HIT:     977057  MISS:         34
cpu0_L1I RFO       ACCESS:          0  HIT:          0  MISS:          0
cpu0_L1I PREFETCH  ACCESS:          0  HIT:          0  MISS:          0
cpu0_L1I WRITEBACK ACCESS:          0  HIT:          0  MISS:          0
cpu0_STLB TOTAL     ACCESS:     136653  HIT:     110892  MISS:      25761
cpu0_STLB LOAD      ACCESS:     136540  HIT:     110779  MISS:      25761
cpu0_STLB RFO       ACCESS:        113  HIT:        113  MISS:          0
cpu0_STLB PREFETCH  ACCESS:          0  HIT:          0  MISS:          0
cpu0_STLB WRITEBACK ACCESS:          0  HIT:          0  MISS:          0
cpu0_L1D TOTAL     ACCESS:    4698327  HIT:    4269056  MISS:     429271
cpu0_L1D LOAD      ACCESS:    4344638  HIT:    3917126  MISS:     427512
cpu0_L1D RFO       ACCESS:     327930  HIT:     327929  MISS:          1
cpu0_L1D PREFETCH  ACCESS:          0  HIT:          0  MISS:          0
cpu0_L1D WRITEBACK ACCESS:          0  HIT:          0  MISS:          0
cpu0_L2C TOTAL     ACCESS:     529010  HIT:     396935  MISS:     132075
cpu0_L2C LOAD      ACCESS:     427546  HIT:     295517  MISS:     132029
cpu0_L2C RFO       ACCESS:          1  HIT:          0  MISS:          1
cpu0_L2C PREFETCH  ACCESS:          0  HIT:          0  MISS:          0
cpu0_L2C WRITEBACK ACCESS:      99705  HIT:      99705  MISS:          0
LLC TOTAL     ACCESS:     132312  HIT:        949  MISS:     131363
LLC LOAD      ACCESS:     132029  HIT:        869  MISS:     131160
LLC RFO       ACCESS:          1  HIT:          0  MISS:          1
LLC PREFETCH  ACCESS:          0  HIT:          0  MISS:          0
LLC WRITEBACK ACCESS:        237  HIT:         70  MISS:        167
Heartbeat CPU 0 instructions: 62000003 cycles: 41828791 heartbeat IPC: 0.778202 cumulative IPC: 0.777674 (Simulation time: 1 hr 14 min 41 sec) 

Region of Interest Statistics
cpu0_DTLB TOTAL     ACCESS:    4608163  HIT:    4444352  MISS:     163811
cpu0_DTLB LOAD      ACCESS:    4236589  HIT:    4072905  MISS:     163684
cpu0_DTLB RFO       ACCESS:     371574  HIT:     371447  MISS:        127
cpu0_DTLB PREFETCH  ACCESS:          0  HIT:          0  MISS:          0
cpu0_DTLB WRITEBACK ACCESS:          0  HIT:          0  MISS:          0
cpu0_ITLB TOTAL     ACCESS:     222058  HIT:     222058  MISS:          0
cpu0_ITLB LOAD      ACCESS:     222058  HIT:     222058  MISS:          0
cpu0_ITLB RFO       ACCESS:          0  HIT:          0  MISS:          0
cpu0_ITLB PREFETCH  ACCESS:          0  HIT:          0  MISS:          0
cpu0_ITLB WRITEBACK ACCESS:          0  HIT:          0  MISS:          0
cpu0_L1I TOTAL     ACCESS:    1171288  HIT:    1171254  MISS:         34
cpu0_L1I LOAD      ACCESS:    1171288  HIT:    1171254  MISS:         34
cpu0_L1I RFO       ACCESS:          0  HIT:          0  MISS:          0
cpu0_L1I PREFETCH  ACCESS:          0  HIT:          0  MISS:          0
cpu0_L1I WRITEBACK ACCESS:          0  HIT:          0  MISS:          0
cpu0_STLB TOTAL     ACCESS:     163811  HIT:     133056  MISS:      30755
cpu0_STLB LOAD      ACCESS:     163684  HIT:     132929  MISS:      30755
cpu0_STLB RFO       ACCESS:        127  HIT:        127  MISS:          0
cpu0_STLB PREFETCH  ACCESS:          0  HIT:          0  MISS:          0
cpu0_STLB WRITEBACK ACCESS:          0  HIT:          0  MISS:          0
cpu0_L1D TOTAL     ACCESS:    5632695  HIT:    5117830  MISS:     514865
cpu0_L1D LOAD      ACCESS:    5208607  HIT:    4695846  MISS:     512761
cpu0_L1D RFO       ACCESS:     393336  HIT:     393335  MISS:          1
cpu0_L1D PREFETCH  ACCESS:          0  HIT:          0  MISS:          0
cpu0_L1D WRITEBACK ACCESS:          0  HIT:          0  MISS:          0
cpu0_L2C TOTAL     ACCESS:     634474  HIT:     475917  MISS:     158557
cpu0_L2C LOAD      ACCESS:     512795  HIT:     354291  MISS:     158504
cpu0_L2C RFO       ACCESS:          1  HIT:          0  MISS:          1
cpu0_L2C PREFETCH  ACCESS:          0  HIT:          0  MISS:          0
cpu0_L2C WRITEBACK ACCESS:     119575  HIT:     119575  MISS:          0
LLC TOTAL     ACCESS:     158981  HIT:       1662  MISS:     157319
LLC LOAD      ACCESS:     158504  HIT:       1457  MISS:     157047
LLC RFO       ACCESS:          1  HIT:          0  MISS:          1
LLC PREFETCH  ACCESS:          0  HIT:          0  MISS:          0
LLC WRITEBACK ACCESS:        424  HIT:        190  MISS:        234
Heartbeat CPU 0 instructions: 64000002 cycles: 44394451 heartbeat IPC: 0.779526 cumulative IPC: 0.777938 (Simulation time: 1 hr 17 min 45 sec) 

Region of Interest Statistics
cpu0_DTLB TOTAL     ACCESS:    5364246  HIT:    5173296  MISS:     190950
cpu0_DTLB LOAD      ACCESS:    4931347  HIT:    4740540  MISS:     190807
cpu0_DTLB RFO       ACCESS:     432899  HIT:     432756  MISS:        143
cpu0_DTLB PREFETCH  ACCESS:          0  HIT:          0  MISS:          0
cpu0_DTLB WRITEBACK ACCESS:          0  HIT:          0  MISS:          0
cpu0_ITLB TOTAL     ACCESS:     258019  HIT:     258019  MISS:          0
cpu0_ITLB LOAD      ACCESS:     258019  HIT:     258019  MISS:          0
cpu0_ITLB RFO       ACCESS:          0  HIT:          0  MISS:          0
cpu0_ITLB PREFETCH  ACCESS:          0  HIT:          0  MISS:          0
cpu0_ITLB WRITEBACK ACCESS:          0  HIT:          0  MISS:          0
cpu0_L1I TOTAL     ACCESS:    1365482  HIT:    1365448  MISS:         34
cpu0_L1I LOAD      ACCESS:    1365482  HIT:    1365448  MISS:         34
cpu0_L1I RFO       ACCESS:          0  HIT:          0  MISS:          0
cpu0_L1I PREFETCH  ACCESS:          0  HIT:          0  MISS:          0
cpu0_L1I WRITEBACK ACCESS:          0  HIT:          0  MISS:          0
cpu0_STLB TOTAL     ACCESS:     190950  HIT:     155198  MISS:      35752
cpu0_STLB LOAD      ACCESS:     190807  HIT:     155055  MISS:      35752
cpu0_STLB RFO       ACCESS:        143  HIT:        143  MISS:          0
cpu0_STLB PREFETCH  ACCESS:          0  HIT:          0  MISS:          0
cpu0_STLB WRITEBACK ACCESS:          0  HIT:          0  MISS:          0
cpu0_L1D TOTAL     ACCESS:    6566985  HIT:    5966529  MISS:     600456
cpu0_L1D LOAD      ACCESS:    6072493  HIT:    5474481  MISS:     598012
cpu0_L1D RFO       ACCESS:     458743  HIT:     458742  MISS:          1
cpu0_L1D PREFETCH  ACCESS:          0  HIT:          0  MISS:          0
cpu0_L1D WRITEBACK ACCESS:          0  HIT:          0  MISS:          0
cpu0_L2C TOTAL     ACCESS:     739918  HIT:     554924  MISS:     184994
cpu0_L2C LOAD      ACCESS:     598046  HIT:     413111  MISS:     184935
cpu0_L2C RFO       ACCESS:          1  HIT:          0  MISS:          1
cpu0_L2C PREFETCH  ACCESS:          0  HIT:          0  MISS:          0
cpu0_L2C WRITEBACK ACCESS:     139428  HIT:     139428  MISS:          0
LLC TOTAL     ACCESS:     185539  HIT:       2275  MISS:     183264
LLC LOAD      ACCESS:     184935  HIT:       1986  MISS:     182949
LLC RFO       ACCESS:          1  HIT:          0  MISS:          1
LLC PREFETCH  ACCESS:          0  HIT:          0  MISS:          0
LLC WRITEBACK ACCESS:        545  HIT:        271  MISS:        274
Heartbeat CPU 0 instructions: 66000000 cycles: 46966508 heartbeat IPC: 0.777587 cumulative IPC: 0.777894 (Simulation time: 1 hr 20 min 44 sec) 

Region of Interest Statistics
cpu0_DTLB TOTAL     ACCESS:    6120347  HIT:    5902237  MISS:     218110
cpu0_DTLB LOAD      ACCESS:    5626161  HIT:    5408219  MISS:     217942
cpu0_DTLB RFO       ACCESS:     494186  HIT:     494018  MISS:        168
cpu0_DTLB PREFETCH  ACCESS:          0  HIT:          0  MISS:          0
cpu0_DTLB WRITEBACK ACCESS:          0  HIT:          0  MISS:          0
cpu0_ITLB TOTAL     ACCESS:     293995  HIT:     293995  MISS:          0
cpu0_ITLB LOAD      ACCESS:     293995  HIT:     293995  MISS:          0
cpu0_ITLB RFO       ACCESS:          0  HIT:          0  MISS:          0
cpu0_ITLB PREFETCH  ACCESS:          0  HIT:          0  MISS:          0
cpu0_ITLB WRITEBACK ACCESS:          0  HIT:          0  MISS:          0
cpu0_L1I TOTAL     ACCESS:    1559704  HIT:    1559670  MISS:         34
cpu0_L1I LOAD      ACCESS:    1559704  HIT:    1559670  MISS:         34
cpu0_L1I RFO       ACCESS:          0  HIT:          0  MISS:          0
cpu0_L1I PREFETCH  ACCESS:          0  HIT:          0  MISS:          0
cpu0_L1I WRITEBACK ACCESS:          0  HIT:          0  MISS:          0
cpu0_STLB TOTAL     ACCESS:     218110  HIT:     177364  MISS:      40746
cpu0_STLB LOAD      ACCESS:     217942  HIT:     177196  MISS:      40746
cpu0_STLB RFO       ACCESS:        168  HIT:        168  MISS:          0
cpu0_STLB PREFETCH  ACCESS:          0  HIT:          0  MISS:          0
cpu0_STLB WRITEBACK ACCESS:          0  HIT:          0  MISS:          0
cpu0_L1D TOTAL     ACCESS:    7501385  HIT:    6815328  MISS:     686057
cpu0_L1D LOAD      ACCESS:    6936492  HIT:    6253221  MISS:     683271
cpu0_L1D RFO       ACCESS:     524149  HIT:     524148  MISS:          1
cpu0_L1D PREFETCH  ACCESS:          0  HIT:          0  MISS:          0
cpu0_L1D WRITEBACK ACCESS:          0  HIT:          0  MISS:          0
cpu0_L2C TOTAL     ACCESS:     845421  HIT:     634340  MISS:     211081
cpu0_L2C LOAD      ACCESS:     683305  HIT:     472290  MISS:     211015
cpu0_L2C RFO       ACCESS:          1  HIT:          0  MISS:          1
cpu0_L2C PREFETCH  ACCESS:          0  HIT:          0  MISS:          0
cpu0_L2C WRITEBACK ACCESS:     159330  HIT:     159330  MISS:          0
LLC TOTAL     ACCESS:     211679  HIT:       2504  MISS:     209175
LLC LOAD      ACCESS:     211015  HIT:       2182  MISS:     208833
LLC RFO       ACCESS:          1  HIT:          0  MISS:          1
LLC PREFETCH  ACCESS:          0  HIT:          0  MISS:          0
LLC WRITEBACK ACCESS:        598  HIT:        300  MISS:        298
Heartbeat CPU 0 instructions: 68000002 cycles: 49260432 heartbeat IPC: 0.871869 cumulative IPC: 0.787323 (Simulation time: 1 hr 23 min 30 sec) 

Region of Interest Statistics
cpu0_DTLB TOTAL     ACCESS:    6879688  HIT:    6630529  MISS:     249159
cpu0_DTLB LOAD      ACCESS:    6324736  HIT:    6075773  MISS:     248963
cpu0_DTLB RFO       ACCESS:     554952  HIT:     554756  MISS:        196
cpu0_DTLB PREFETCH  ACCESS:          0  HIT:          0  MISS:          0
cpu0_DTLB WRITEBACK ACCESS:          0  HIT:          0  MISS:          0
cpu0_ITLB TOTAL     ACCESS:     319004  HIT:     319004  MISS:          0
cpu0_ITLB LOAD      ACCESS:     319004  HIT:     319004  MISS:          0
cpu0_ITLB RFO       ACCESS:          0  HIT:          0  MISS:          0
cpu0_ITLB PREFETCH  ACCESS:          0  HIT:          0  MISS:          0
cpu0_ITLB WRITEBACK ACCESS:          0  HIT:          0  MISS:          0
cpu0_L1I TOTAL     ACCESS:    1676347  HIT:    1676313  MISS:         34
cpu0_L1I LOAD      ACCESS:    1676347  HIT:    1676313  MISS:         34
cpu0_L1I RFO       ACCESS:          0  HIT:          0  MISS:          0
cpu0_L1I PREFETCH  ACCESS:          0  HIT:          0  MISS:          0
cpu0_L1I WRITEBACK ACCESS:          0  HIT:          0  MISS:          0
cpu0_STLB TOTAL     ACCESS:     249159  HIT:     203887  MISS:      45272
cpu0_STLB LOAD      ACCESS:     248963  HIT:     203691  MISS:      45272
cpu0_STLB RFO       ACCESS:        196  HIT:        196  MISS:          0
cpu0_STLB PREFETCH  ACCESS:          0  HIT:          0  MISS:          0
cpu0_STLB WRITEBACK ACCESS:          0  HIT:          0  MISS:          0
cpu0_L1D TOTAL     ACCESS:    8448577  HIT:    7677291  MISS:     771286
cpu0_L1D LOAD      ACCESS:    7814034  HIT:    7045899  MISS:     768135
cpu0_L1D RFO       ACCESS:     589282  HIT:     589279  MISS:          3
cpu0_L1D PREFETCH  ACCESS:          0  HIT:          0  MISS:          0
cpu0_L1D WRITEBACK ACCESS:          0  HIT:          0  MISS:          0
cpu0_L2C TOTAL     ACCESS:     950429  HIT:     719928  MISS:     230501
cpu0_L2C LOAD      ACCESS:     768169  HIT:     537746  MISS:     230423
cpu0_L2C RFO       ACCESS:          3  HIT:          0  MISS:          3
cpu0_L2C PREFETCH  ACCESS:          0  HIT:          0  MISS:          0
cpu0_L2C WRITEBACK ACCESS:     179109  HIT:     179109  MISS:          0
LLC TOTAL     ACCESS:     231126  HIT:       2646  MISS:     228480
LLC LOAD      ACCESS:     230422  HIT:       2316  MISS:     228106
LLC RFO       ACCESS:          3  HIT:          0  MISS:          3
LLC PREFETCH  ACCESS:          0  HIT:          0  MISS:          0
LLC WRITEBACK ACCESS:        626  HIT:        307  MISS:        319
Heartbeat CPU 0 instructions: 70000001 cycles: 50978799 heartbeat IPC: 1.1639 cumulative IPC: 0.813648 (Simulation time: 1 hr 25 min 23 sec) 

Region of Interest Statistics
cpu0_DTLB TOTAL     ACCESS:    7642065  HIT:    7356997  MISS:     285068
cpu0_DTLB LOAD      ACCESS:    7027062  HIT:    6742233  MISS:     284829
cpu0_DTLB RFO       ACCESS:     615003  HIT:     614764  MISS:        239
cpu0_DTLB PREFETCH  ACCESS:          0  HIT:          0  MISS:          0
cpu0_DTLB WRITEBACK ACCESS:          0  HIT:          0  MISS:          0
cpu0_ITLB TOTAL     ACCESS:     330435  HIT:     330435  MISS:          0
cpu0_ITLB LOAD      ACCESS:     330435  HIT:     330435  MISS:          0
cpu0_ITLB RFO       ACCESS:          0  HIT:          0  MISS:          0
cpu0_ITLB PREFETCH  ACCESS:          0  HIT:          0  MISS:          0
cpu0_ITLB WRITEBACK ACCESS:          0  HIT:          0  MISS:          0
cpu0_L1I TOTAL     ACCESS:    1697393  HIT:    1697359  MISS:         34
cpu0_L1I LOAD      ACCESS:    1697393  HIT:    1697359  MISS:         34
cpu0_L1I RFO       ACCESS:          0  HIT:          0  MISS:          0
cpu0_L1I PREFETCH  ACCESS:          0  HIT:          0  MISS:          0
cpu0_L1I WRITEBACK ACCESS:          0  HIT:          0  MISS:          0
cpu0_STLB TOTAL     ACCESS:     285068  HIT:     238036  MISS:      47032
cpu0_STLB LOAD      ACCESS:     284829  HIT:     237797  MISS:      47032
cpu0_STLB RFO       ACCESS:        239  HIT:        239  MISS:          0
cpu0_STLB PREFETCH  ACCESS:          0  HIT:          0  MISS:          0
cpu0_STLB WRITEBACK ACCESS:          0  HIT:          0  MISS:          0
cpu0_L1D TOTAL     ACCESS:    9408143  HIT:    8552113  MISS:     856030
cpu0_L1D LOAD      ACCESS:    8707058  HIT:    7854569  MISS:     852489
cpu0_L1D RFO       ACCESS:     654064  HIT:     654061  MISS:          3
cpu0_L1D PREFETCH  ACCESS:          0  HIT:          0  MISS:          0
cpu0_L1D WRITEBACK ACCESS:          0  HIT:          0  MISS:          0
cpu0_L2C TOTAL     ACCESS:    1054814  HIT:     817238  MISS:     237576
cpu0_L2C LOAD      ACCESS:     852523  HIT:     615025  MISS:     237498
cpu0_L2C RFO       ACCESS:          3  HIT:          0  MISS:          3
cpu0_L2C PREFETCH  ACCESS:          0  HIT:          0  MISS:          0
cpu0_L2C WRITEBACK ACCESS:     198750  HIT:     198750  MISS:          0
LLC TOTAL     ACCESS:     238241  HIT:       2918  MISS:     235323
LLC LOAD      ACCESS:     237497  HIT:       2569  MISS:     234928
LLC RFO       ACCESS:          3  HIT:          0  MISS:          3
LLC PREFETCH  ACCESS:          0  HIT:          0  MISS:          0
LLC WRITEBACK ACCESS:        666  HIT:        326  MISS:        340
Heartbeat CPU 0 instructions: 72000000 cycles: 52694157 heartbeat IPC: 1.16594 cumulative IPC: 0.836629 (Simulation time: 1 hr 27 min 15 sec) 

Region of Interest Statistics
cpu0_DTLB TOTAL     ACCESS:    8404621  HIT:    8083784  MISS:     320837
cpu0_DTLB LOAD      ACCESS:    7729538  HIT:    7408974  MISS:     320564
cpu0_DTLB RFO       ACCESS:     675083  HIT:     674810  MISS:        273
cpu0_DTLB PREFETCH  ACCESS:          0  HIT:          0  MISS:          0
cpu0_DTLB WRITEBACK ACCESS:          0  HIT:          0  MISS:          0
cpu0_ITLB TOTAL     ACCESS:     341899  HIT:     341899  MISS:          0
cpu0_ITLB LOAD      ACCESS:     341899  HIT:     341899  MISS:          0
cpu0_ITLB RFO       ACCESS:          0  HIT:          0  MISS:          0
cpu0_ITLB PREFETCH  ACCESS:          0  HIT:          0  MISS:          0
cpu0_ITLB WRITEBACK ACCESS:          0  HIT:          0  MISS:          0
cpu0_L1I TOTAL     ACCESS:    1718447  HIT:    1718413  MISS:         34
cpu0_L1I LOAD      ACCESS:    1718447  HIT:    1718413  MISS:         34
cpu0_L1I RFO       ACCESS:          0  HIT:          0  MISS:          0
cpu0_L1I PREFETCH  ACCESS:          0  HIT:          0  MISS:          0
cpu0_L1I WRITEBACK ACCESS:          0  HIT:          0  MISS:          0
cpu0_STLB TOTAL     ACCESS:     320837  HIT:     272197  MISS:      48640
cpu0_STLB LOAD      ACCESS:     320564  HIT:     271924  MISS:      48640
cpu0_STLB RFO       ACCESS:        273  HIT:        273  MISS:          0
cpu0_STLB PREFETCH  ACCESS:          0  HIT:          0  MISS:          0
cpu0_STLB WRITEBACK ACCESS:          0  HIT:          0  MISS:          0
cpu0_L1D TOTAL     ACCESS:   10368111  HIT:    9427331  MISS:     940780
cpu0_L1D LOAD      ACCESS:    9600632  HIT:    8663781  MISS:     936851
cpu0_L1D RFO       ACCESS:     718850  HIT:     718847  MISS:          3
cpu0_L1D PREFETCH  ACCESS:          0  HIT:          0  MISS:          0
cpu0_L1D WRITEBACK ACCESS:          0  HIT:          0  MISS:          0
cpu0_L2C TOTAL     ACCESS:    1159231  HIT:     914770  MISS:     244461
cpu0_L2C LOAD      ACCESS:     936885  HIT:     692512  MISS:     244373
cpu0_L2C RFO       ACCESS:          3  HIT:          0  MISS:          3
cpu0_L2C PREFETCH  ACCESS:          0  HIT:          0  MISS:          0
cpu0_L2C WRITEBACK ACCESS:     218417  HIT:     218417  MISS:          0
LLC TOTAL     ACCESS:     245154  HIT:       3129  MISS:     242025
LLC LOAD      ACCESS:     244372  HIT:       2759  MISS:     241613
LLC RFO       ACCESS:          3  HIT:          0  MISS:          3
LLC PREFETCH  ACCESS:          0  HIT:          0  MISS:          0
LLC WRITEBACK ACCESS:        694  HIT:        341  MISS:        353
Heartbeat CPU 0 instructions: 74000001 cycles: 54407016 heartbeat IPC: 1.16764 cumulative IPC: 0.856872 (Simulation time: 1 hr 29 min 7 sec) 

Region of Interest Statistics
cpu0_DTLB TOTAL     ACCESS:    9166780  HIT:    8810102  MISS:     356678
cpu0_DTLB LOAD      ACCESS:    8431593  HIT:    8075238  MISS:     356355
cpu0_DTLB RFO       ACCESS:     735187  HIT:     734864  MISS:        323
cpu0_DTLB PREFETCH  ACCESS:          0  HIT:          0  MISS:          0
cpu0_DTLB WRITEBACK ACCESS:          0  HIT:          0  MISS:          0
cpu0_ITLB TOTAL     ACCESS:     353388  HIT:     353388  MISS:          0
cpu0_ITLB LOAD      ACCESS:     353388  HIT:     353388  MISS:          0
cpu0_ITLB RFO       ACCESS:          0  HIT:          0  MISS:          0
cpu0_ITLB PREFETCH  ACCESS:          0  HIT:          0  MISS:          0
cpu0_ITLB WRITEBACK ACCESS:          0  HIT:          0  MISS:          0
cpu0_L1I TOTAL     ACCESS:    1739510  HIT:    1739476  MISS:         34
cpu0_L1I LOAD      ACCESS:    1739510  HIT:    1739476  MISS:         34
cpu0_L1I RFO       ACCESS:          0  HIT:          0  MISS:          0
cpu0_L1I PREFETCH  ACCESS:          0  HIT:          0  MISS:          0
cpu0_L1I WRITEBACK ACCESS:          0  HIT:          0  MISS:          0
cpu0_STLB TOTAL     ACCESS:     356678  HIT:     306395  MISS:      50283
cpu0_STLB LOAD      ACCESS:     356355  HIT:     306072  MISS:      50283
cpu0_STLB RFO       ACCESS:        323  HIT:        323  MISS:          0
cpu0_STLB PREFETCH  ACCESS:          0  HIT:          0  MISS:          0
cpu0_STLB WRITEBACK ACCESS:          0  HIT:          0  MISS:          0
cpu0_L1D TOTAL     ACCESS:   11328175  HIT:   10302665  MISS:    1025510
cpu0_L1D LOAD      ACCESS:   10494267  HIT:    9473058  MISS:    1021209
cpu0_L1D RFO       ACCESS:     783636  HIT:     783633  MISS:          3
cpu0_L1D PREFETCH  ACCESS:          0  HIT:          0  MISS:          0
cpu0_L1D WRITEBACK ACCESS:          0  HIT:          0  MISS:          0
cpu0_L2C TOTAL     ACCESS:    1263622  HIT:    1012278  MISS:     251344
cpu0_L2C LOAD      ACCESS:    1021243  HIT:     769991  MISS:     251252
cpu0_L2C RFO       ACCESS:          3  HIT:          0  MISS:          3
cpu0_L2C PREFETCH  ACCESS:          0  HIT:          0  MISS:          0
cpu0_L2C WRITEBACK ACCESS:     238078  HIT:     238078  MISS:          0
LLC TOTAL     ACCESS:     252075  HIT:       3345  MISS:     248730
LLC LOAD      ACCESS:     251251  HIT:       2956  MISS:     248295
LLC RFO       ACCESS:          3  HIT:          0  MISS:          3
LLC PREFETCH  ACCESS:          0  HIT:          0  MISS:          0
LLC WRITEBACK ACCESS:        732  HIT:        358  MISS:        374
Heartbeat CPU 0 instructions: 76000000 cycles: 56124205 heartbeat IPC: 1.16469 cumulative IPC: 0.874654 (Simulation time: 1 hr 31 min 6 sec) 

Region of Interest Statistics
cpu0_DTLB TOTAL     ACCESS:    9929336  HIT:    9536908  MISS:     392428
cpu0_DTLB LOAD      ACCESS:    9134042  HIT:    8741988  MISS:     392054
cpu0_DTLB RFO       ACCESS:     795294  HIT:     794920  MISS:        374
cpu0_DTLB PREFETCH  ACCESS:          0  HIT:          0  MISS:          0
cpu0_DTLB WRITEBACK ACCESS:          0  HIT:          0  MISS:          0
cpu0_ITLB TOTAL     ACCESS:     364828  HIT:     364828  MISS:          0
cpu0_ITLB LOAD      ACCESS:     364828  HIT:     364828  MISS:          0
cpu0_ITLB RFO       ACCESS:          0  HIT:          0  MISS:          0
cpu0_ITLB PREFETCH  ACCESS:          0  HIT:          0  MISS:          0
cpu0_ITLB WRITEBACK ACCESS:          0  HIT:          0  MISS:          0
cpu0_L1I TOTAL     ACCESS:    1760554  HIT:    1760520  MISS:         34
cpu0_L1I LOAD      ACCESS:    1760554  HIT:    1760520  MISS:         34
cpu0_L1I RFO       ACCESS:          0  HIT:          0  MISS:          0
cpu0_L1I PREFETCH  ACCESS:          0  HIT:          0  MISS:          0
cpu0_L1I WRITEBACK ACCESS:          0  HIT:          0  MISS:          0
cpu0_STLB TOTAL     ACCESS:     392428  HIT:     340651  MISS:      51777
cpu0_STLB LOAD      ACCESS:     392054  HIT:     340277  MISS:      51777
cpu0_STLB RFO       ACCESS:        374  HIT:        374  MISS:          0
cpu0_STLB PREFETCH  ACCESS:          0  HIT:          0  MISS:          0
cpu0_STLB WRITEBACK ACCESS:          0  HIT:          0  MISS:          0
cpu0_L1D TOTAL     ACCESS:   12287619  HIT:   11177371  MISS:    1110248
cpu0_L1D LOAD      ACCESS:   11387435  HIT:   10281873  MISS:    1105562
cpu0_L1D RFO       ACCESS:     848418  HIT:     848415  MISS:          3
cpu0_L1D PREFETCH  ACCESS:          0  HIT:          0  MISS:          0
cpu0_L1D WRITEBACK ACCESS:          0  HIT:          0  MISS:          0
cpu0_L2C TOTAL     ACCESS:    1368043  HIT:    1109600  MISS:     258443
cpu0_L2C LOAD      ACCESS:    1105596  HIT:     847247  MISS:     258349
cpu0_L2C RFO       ACCESS:          3  HIT:          0  MISS:          3
cpu0_L2C PREFETCH  ACCESS:          0  HIT:          0  MISS:          0
cpu0_L2C WRITEBACK ACCESS:     257761  HIT:     257761  MISS:          0
LLC TOTAL     ACCESS:     259215  HIT:       3634  MISS:     255581
LLC LOAD      ACCESS:     258348  HIT:       3226  MISS:     255122
LLC RFO       ACCESS:          3  HIT:          0  MISS:          3
LLC PREFETCH  ACCESS:          0  HIT:          0  MISS:          0
LLC WRITEBACK ACCESS:        773  HIT:        377  MISS:        396
Heartbeat CPU 0 instructions: 78000001 cycles: 57835406 heartbeat IPC: 1.16877 cumulative IPC: 0.890663 (Simulation time: 1 hr 32 min 56 sec) 

Region of Interest Statistics
cpu0_DTLB TOTAL     ACCESS:   10692201  HIT:   10263980  MISS:     428221
cpu0_DTLB LOAD      ACCESS:    9836818  HIT:    9409027  MISS:     427791
cpu0_DTLB RFO       ACCESS:     855383  HIT:     854953  MISS:        430
cpu0_DTLB PREFETCH  ACCESS:          0  HIT:          0  MISS:          0
cpu0_DTLB WRITEBACK ACCESS:          0  HIT:          0  MISS:          0
cpu0_ITLB TOTAL     ACCESS:     376271  HIT:     376271  MISS:          0
cpu0_ITLB LOAD      ACCESS:     376271  HIT:     376271  MISS:          0
cpu0_ITLB RFO       ACCESS:          0  HIT:          0  MISS:          0
cpu0_ITLB PREFETCH  ACCESS:          0  HIT:          0  MISS:          0
cpu0_ITLB WRITEBACK ACCESS:          0  HIT:          0  MISS:          0
cpu0_L1I TOTAL     ACCESS:    1781616  HIT:    1781582  MISS:         34
cpu0_L1I LOAD      ACCESS:    1781616  HIT:    1781582  MISS:         34
cpu0_L1I RFO       ACCESS:          0  HIT:          0  MISS:          0
cpu0_L1I PREFETCH  ACCESS:          0  HIT:          0  MISS:          0
cpu0_L1I WRITEBACK ACCESS:          0  HIT:          0  MISS:          0
cpu0_STLB TOTAL     ACCESS:     428221  HIT:     374558  MISS:      53663
cpu0_STLB LOAD      ACCESS:     427791  HIT:     374128  MISS:      53663
cpu0_STLB RFO       ACCESS:        430  HIT:        430  MISS:          0
cpu0_STLB PREFETCH  ACCESS:          0  HIT:          0  MISS:          0
cpu0_STLB WRITEBACK ACCESS:          0  HIT:          0  MISS:          0
cpu0_L1D TOTAL     ACCESS:   13247868  HIT:   12052873  MISS:    1194995
cpu0_L1D LOAD      ACCESS:   12281012  HIT:   11091099  MISS:    1189913
cpu0_L1D RFO       ACCESS:     913204  HIT:     913201  MISS:          3
cpu0_L1D PREFETCH  ACCESS:          0  HIT:          0  MISS:          0
cpu0_L1D WRITEBACK ACCESS:          0  HIT:          0  MISS:          0
cpu0_L2C TOTAL     ACCESS:    1472441  HIT:    1206962  MISS:     265479
cpu0_L2C LOAD      ACCESS:    1189947  HIT:     924563  MISS:     265384
cpu0_L2C RFO       ACCESS:          3  HIT:          0  MISS:          3
cpu0_L2C PREFETCH  ACCESS:          0  HIT:          0  MISS:          0
cpu0_L2C WRITEBACK ACCESS:     277412  HIT:     277412  MISS:          0
LLC TOTAL     ACCESS:     266321  HIT:       4056  MISS:     262265
LLC LOAD      ACCESS:     265383  HIT:       3604  MISS:     261779
LLC RFO       ACCESS:          3  HIT:          0  MISS:          3
LLC PREFETCH  ACCESS:          0  HIT:          0  MISS:          0
LLC WRITEBACK ACCESS:        843  HIT:        420  MISS:        423
Heartbeat CPU 0 instructions: 80000002 cycles: 59619485 heartbeat IPC: 1.12103 cumulative IPC: 0.903034 (Simulation time: 1 hr 34 min 51 sec) 

Region of Interest Statistics
cpu0_DTLB TOTAL     ACCESS:   11464330  HIT:   11000886  MISS:     463444
cpu0_DTLB LOAD      ACCESS:   10548199  HIT:   10085229  MISS:     462970
cpu0_DTLB RFO       ACCESS:     916131  HIT:     915657  MISS:        474
cpu0_DTLB PREFETCH  ACCESS:          0  HIT:          0  MISS:          0
cpu0_DTLB WRITEBACK ACCESS:          0  HIT:          0  MISS:          0
cpu0_ITLB TOTAL     ACCESS:     390535  HIT:     390535  MISS:          0
cpu0_ITLB LOAD      ACCESS:     390535  HIT:     390535  MISS:          0
cpu0_ITLB RFO       ACCESS:          0  HIT:          0  MISS:          0
cpu0_ITLB PREFETCH  ACCESS:          0  HIT:          0  MISS:          0
cpu0_ITLB WRITEBACK ACCESS:          0  HIT:          0  MISS:          0
cpu0_L1I TOTAL     ACCESS:    1816894  HIT:    1816860  MISS:         34
cpu0_L1I LOAD      ACCESS:    1816894  HIT:    1816860  MISS:         34
cpu0_L1I RFO       ACCESS:          0  HIT:          0  MISS:          0
cpu0_L1I PREFETCH  ACCESS:          0  HIT:          0  MISS:          0
cpu0_L1I WRITEBACK ACCESS:          0  HIT:          0  MISS:          0
cpu0_STLB TOTAL     ACCESS:     463444  HIT:     406788  MISS:      56656
cpu0_STLB LOAD      ACCESS:     462970  HIT:     406314  MISS:      56656
cpu0_STLB RFO       ACCESS:        474  HIT:        474  MISS:          0
cpu0_STLB PREFETCH  ACCESS:          0  HIT:          0  MISS:          0
cpu0_STLB WRITEBACK ACCESS:          0  HIT:          0  MISS:          0
cpu0_L1D TOTAL     ACCESS:   14211522  HIT:   12931565  MISS:    1279957
cpu0_L1D LOAD      ACCESS:   13176773  HIT:   11902341  MISS:    1274432
cpu0_L1D RFO       ACCESS:     978111  HIT:     978108  MISS:          3
cpu0_L1D PREFETCH  ACCESS:          0  HIT:          0  MISS:          0
cpu0_L1D WRITEBACK ACCESS:          0  HIT:          0  MISS:          0
cpu0_L2C TOTAL     ACCESS:    1577098  HIT:    1302895  MISS:     274203
cpu0_L2C LOAD      ACCESS:    1274466  HIT:    1000371  MISS:     274095
cpu0_L2C RFO       ACCESS:          3  HIT:          0  MISS:          3
cpu0_L2C PREFETCH  ACCESS:          0  HIT:          0  MISS:          0
cpu0_L2C WRITEBACK ACCESS:     297107  HIT:     297107  MISS:          0
LLC TOTAL     ACCESS:     275068  HIT:       4221  MISS:     270847
LLC LOAD      ACCESS:     274094  HIT:       3761  MISS:     270333
LLC RFO       ACCESS:          3  HIT:          0  MISS:          3
LLC PREFETCH  ACCESS:          0  HIT:          0  MISS:          0
LLC WRITEBACK ACCESS:        866  HIT:        428  MISS:        438
Heartbeat CPU 0 instructions: 82000002 cycles: 61269435 heartbeat IPC: 1.21216 cumulative IPC: 0.917661 (Simulation time: 1 hr 36 min 33 sec) 

Region of Interest Statistics
cpu0_DTLB TOTAL     ACCESS:   12254489  HIT:   11756855  MISS:     497634
cpu0_DTLB LOAD      ACCESS:   11276500  HIT:   10779355  MISS:     497145
cpu0_DTLB RFO       ACCESS:     977989  HIT:     977500  MISS:        489
cpu0_DTLB PREFETCH  ACCESS:          0  HIT:          0  MISS:          0
cpu0_DTLB WRITEBACK ACCESS:          0  HIT:          0  MISS:          0
cpu0_ITLB TOTAL     ACCESS:     410441  HIT:     410441  MISS:          0
cpu0_ITLB LOAD      ACCESS:     410441  HIT:     410441  MISS:          0
cpu0_ITLB RFO       ACCESS:          0  HIT:          0  MISS:          0
cpu0_ITLB PREFETCH  ACCESS:          0  HIT:          0  MISS:          0
cpu0_ITLB WRITEBACK ACCESS:          0  HIT:          0  MISS:          0
cpu0_L1I TOTAL     ACCESS:    1879368  HIT:    1879334  MISS:         34
cpu0_L1I LOAD      ACCESS:    1879368  HIT:    1879334  MISS:         34
cpu0_L1I RFO       ACCESS:          0  HIT:          0  MISS:          0
cpu0_L1I PREFETCH  ACCESS:          0  HIT:          0  MISS:          0
cpu0_L1I WRITEBACK ACCESS:          0  HIT:          0  MISS:          0
cpu0_STLB TOTAL     ACCESS:     497634  HIT:     440122  MISS:      57512
cpu0_STLB LOAD      ACCESS:     497145  HIT:     439633  MISS:      57512
cpu0_STLB RFO       ACCESS:        489  HIT:        489  MISS:          0
cpu0_STLB PREFETCH  ACCESS:          0  HIT:          0  MISS:          0
cpu0_STLB WRITEBACK ACCESS:          0  HIT:          0  MISS:          0
cpu0_L1D TOTAL     ACCESS:   15178021  HIT:   13812811  MISS:    1365210
cpu0_L1D LOAD      ACCESS:   14077284  HIT:   12718050  MISS:    1359234
cpu0_L1D RFO       ACCESS:    1043243  HIT:    1043240  MISS:          3
cpu0_L1D PREFETCH  ACCESS:          0  HIT:          0  MISS:          0
cpu0_L1D WRITEBACK ACCESS:          0  HIT:          0  MISS:          0
cpu0_L2C TOTAL     ACCESS:    1682106  HIT:    1400928  MISS:     281178
cpu0_L2C LOAD      ACCESS:    1359268  HIT:    1078198  MISS:     281070
cpu0_L2C RFO       ACCESS:          3  HIT:          0  MISS:          3
cpu0_L2C PREFETCH  ACCESS:          0  HIT:          0  MISS:          0
cpu0_L2C WRITEBACK ACCESS:     316862  HIT:     316862  MISS:          0
LLC TOTAL     ACCESS:     282070  HIT:       4327  MISS:     277743
LLC LOAD      ACCESS:     281069  HIT:       3861  MISS:     277208
LLC RFO       ACCESS:          3  HIT:          0  MISS:          3
LLC PREFETCH  ACCESS:          0  HIT:          0  MISS:          0
LLC WRITEBACK ACCESS:        893  HIT:        434  MISS:        459
Heartbeat CPU 0 instructions: 84000004 cycles: 62905347 heartbeat IPC: 1.22256 cumulative IPC: 0.931324 (Simulation time: 1 hr 38 min 25 sec) 

Region of Interest Statistics
cpu0_DTLB TOTAL     ACCESS:   13044739  HIT:   12512979  MISS:     531760
cpu0_DTLB LOAD      ACCESS:   12004870  HIT:   11473618  MISS:     531252
cpu0_DTLB RFO       ACCESS:    1039869  HIT:    1039361  MISS:        508
cpu0_DTLB PREFETCH  ACCESS:          0  HIT:          0  MISS:          0
cpu0_DTLB WRITEBACK ACCESS:          0  HIT:          0  MISS:          0
cpu0_ITLB TOTAL     ACCESS:     430443  HIT:     430443  MISS:          0
cpu0_ITLB LOAD      ACCESS:     430443  HIT:     430443  MISS:          0
cpu0_ITLB RFO       ACCESS:          0  HIT:          0  MISS:          0
cpu0_ITLB PREFETCH  ACCESS:          0  HIT:          0  MISS:          0
cpu0_ITLB WRITEBACK ACCESS:          0  HIT:          0  MISS:          0
cpu0_L1I TOTAL     ACCESS:    1941876  HIT:    1941842  MISS:         34
cpu0_L1I LOAD      ACCESS:    1941876  HIT:    1941842  MISS:         34
cpu0_L1I RFO       ACCESS:          0  HIT:          0  MISS:          0
cpu0_L1I PREFETCH  ACCESS:          0  HIT:          0  MISS:          0
cpu0_L1I WRITEBACK ACCESS:          0  HIT:          0  MISS:          0
cpu0_STLB TOTAL     ACCESS:     531760  HIT:     473594  MISS:      58166
cpu0_STLB LOAD      ACCESS:     531252  HIT:     473086  MISS:      58166
cpu0_STLB RFO       ACCESS:        508  HIT:        508  MISS:          0
cpu0_STLB PREFETCH  ACCESS:          0  HIT:          0  MISS:          0
cpu0_STLB WRITEBACK ACCESS:          0  HIT:          0  MISS:          0
cpu0_L1D TOTAL     ACCESS:   16144500  HIT:   14694126  MISS:    1450374
cpu0_L1D LOAD      ACCESS:   14977974  HIT:   13533936  MISS:    1444038
cpu0_L1D RFO       ACCESS:    1108378  HIT:    1108375  MISS:          3
cpu0_L1D PREFETCH  ACCESS:          0  HIT:          0  MISS:          0
cpu0_L1D WRITEBACK ACCESS:          0  HIT:          0  MISS:          0
cpu0_L2C TOTAL     ACCESS:    1787018  HIT:    1499092  MISS:     287926
cpu0_L2C LOAD      ACCESS:    1444072  HIT:    1156258  MISS:     287814
cpu0_L2C RFO       ACCESS:          3  HIT:          0  MISS:          3
cpu0_L2C PREFETCH  ACCESS:          0  HIT:          0  MISS:          0
cpu0_L2C WRITEBACK ACCESS:     336610  HIT:     336610  MISS:          0
LLC TOTAL     ACCESS:     288822  HIT:       4379  MISS:     284443
LLC LOAD      ACCESS:     287813  HIT:       3909  MISS:     283904
LLC RFO       ACCESS:          3  HIT:          0  MISS:          3
LLC PREFETCH  ACCESS:          0  HIT:          0  MISS:          0
LLC WRITEBACK ACCESS:        897  HIT:        434  MISS:        463
Heartbeat CPU 0 instructions: 86000001 cycles: 64550526 heartbeat IPC: 1.21567 cumulative IPC: 0.943585 (Simulation time: 1 hr 40 min 19 sec) 

Region of Interest Statistics
cpu0_DTLB TOTAL     ACCESS:   13834310  HIT:   13268349  MISS:     565961
cpu0_DTLB LOAD      ACCESS:   12732588  HIT:   12167153  MISS:     565435
cpu0_DTLB RFO       ACCESS:    1101722  HIT:    1101196  MISS:        526
cpu0_DTLB PREFETCH  ACCESS:          0  HIT:          0  MISS:          0
cpu0_DTLB WRITEBACK ACCESS:          0  HIT:          0  MISS:          0
cpu0_ITLB TOTAL     ACCESS:     450376  HIT:     450376  MISS:          0
cpu0_ITLB LOAD      ACCESS:     450376  HIT:     450376  MISS:          0
cpu0_ITLB RFO       ACCESS:          0  HIT:          0  MISS:          0
cpu0_ITLB PREFETCH  ACCESS:          0  HIT:          0  MISS:          0
cpu0_ITLB WRITEBACK ACCESS:          0  HIT:          0  MISS:          0
cpu0_L1I TOTAL     ACCESS:    2003944  HIT:    2003910  MISS:         34
cpu0_L1I LOAD      ACCESS:    2003944  HIT:    2003910  MISS:         34
cpu0_L1I RFO       ACCESS:          0  HIT:          0  MISS:          0
cpu0_L1I PREFETCH  ACCESS:          0  HIT:          0  MISS:          0
cpu0_L1I WRITEBACK ACCESS:          0  HIT:          0  MISS:          0
cpu0_STLB TOTAL     ACCESS:     565961  HIT:     507055  MISS:      58906
cpu0_STLB LOAD      ACCESS:     565435  HIT:     506529  MISS:      58906
cpu0_STLB RFO       ACCESS:        526  HIT:        526  MISS:          0
cpu0_STLB PREFETCH  ACCESS:          0  HIT:          0  MISS:          0
cpu0_STLB WRITEBACK ACCESS:          0  HIT:          0  MISS:          0
cpu0_L1D TOTAL     ACCESS:   17110533  HIT:   15574980  MISS:    1535553
cpu0_L1D LOAD      ACCESS:   15878132  HIT:   14349295  MISS:    1528837
cpu0_L1D RFO       ACCESS:    1173513  HIT:    1173510  MISS:          3
cpu0_L1D PREFETCH  ACCESS:          0  HIT:          0  MISS:          0
cpu0_L1D WRITEBACK ACCESS:          0  HIT:          0  MISS:          0
cpu0_L2C TOTAL     ACCESS:    1891956  HIT:    1596734  MISS:     295222
cpu0_L2C LOAD      ACCESS:    1528871  HIT:    1233764  MISS:     295107
cpu0_L2C RFO       ACCESS:          3  HIT:          0  MISS:          3
cpu0_L2C PREFETCH  ACCESS:          0  HIT:          0  MISS:          0
cpu0_L2C WRITEBACK ACCESS:     356369  HIT:     356369  MISS:          0
LLC TOTAL     ACCESS:     296207  HIT:       4853  MISS:     291354
LLC LOAD      ACCESS:     295106  HIT:       4328  MISS:     290778
LLC RFO       ACCESS:          3  HIT:          0  MISS:          3
LLC PREFETCH  ACCESS:          0  HIT:          0  MISS:          0
LLC WRITEBACK ACCESS:        986  HIT:        488  MISS:        498
Heartbeat CPU 0 instructions: 88000003 cycles: 66195971 heartbeat IPC: 1.21548 cumulative IPC: 0.954826 (Simulation time: 1 hr 42 min 14 sec) 

Region of Interest Statistics
cpu0_DTLB TOTAL     ACCESS:   14624040  HIT:   14023884  MISS:     600156
cpu0_DTLB LOAD      ACCESS:   13460397  HIT:   12860778  MISS:     599619
cpu0_DTLB RFO       ACCESS:    1163643  HIT:    1163106  MISS:        537
cpu0_DTLB PREFETCH  ACCESS:          0  HIT:          0  MISS:          0
cpu0_DTLB WRITEBACK ACCESS:          0  HIT:          0  MISS:          0
cpu0_ITLB TOTAL     ACCESS:     470339  HIT:     470339  MISS:          0
cpu0_ITLB LOAD      ACCESS:     470339  HIT:     470339  MISS:          0
cpu0_ITLB RFO       ACCESS:          0  HIT:          0  MISS:          0
cpu0_ITLB PREFETCH  ACCESS:          0  HIT:          0  MISS:          0
cpu0_ITLB WRITEBACK ACCESS:          0  HIT:          0  MISS:          0
cpu0_L1I TOTAL     ACCESS:    2066224  HIT:    2066190  MISS:         34
cpu0_L1I LOAD      ACCESS:    2066224  HIT:    2066190  MISS:         34
cpu0_L1I RFO       ACCESS:          0  HIT:          0  MISS:          0
cpu0_L1I PREFETCH  ACCESS:          0  HIT:          0  MISS:          0
cpu0_L1I WRITEBACK ACCESS:          0  HIT:          0  MISS:          0
cpu0_STLB TOTAL     ACCESS:     600156  HIT:     540808  MISS:      59348
cpu0_STLB LOAD      ACCESS:     599619  HIT:     540271  MISS:      59348
cpu0_STLB RFO       ACCESS:        537  HIT:        537  MISS:          0
cpu0_STLB PREFETCH  ACCESS:          0  HIT:          0  MISS:          0
cpu0_STLB WRITEBACK ACCESS:          0  HIT:          0  MISS:          0
cpu0_L1D TOTAL     ACCESS:   18076195  HIT:   16455586  MISS:    1620609
cpu0_L1D LOAD      ACCESS:   16778217  HIT:   15164577  MISS:    1613640
cpu0_L1D RFO       ACCESS:    1238648  HIT:    1238645  MISS:          3
cpu0_L1D PREFETCH  ACCESS:          0  HIT:          0  MISS:          0
cpu0_L1D WRITEBACK ACCESS:          0  HIT:          0  MISS:          0
cpu0_L2C TOTAL     ACCESS:    1996768  HIT:    1694482  MISS:     302286
cpu0_L2C LOAD      ACCESS:    1613674  HIT:    1311513  MISS:     302161
cpu0_L2C RFO       ACCESS:          3  HIT:          0  MISS:          3
cpu0_L2C PREFETCH  ACCESS:          0  HIT:          0  MISS:          0
cpu0_L2C WRITEBACK ACCESS:     376125  HIT:     376125  MISS:          0
LLC TOTAL     ACCESS:     303341  HIT:       5270  MISS:     298071
LLC LOAD      ACCESS:     302160  HIT:       4691  MISS:     297469
LLC RFO       ACCESS:          3  HIT:          0  MISS:          3
LLC PREFETCH  ACCESS:          0  HIT:          0  MISS:          0
LLC WRITEBACK ACCESS:       1056  HIT:        535  MISS:        521
Heartbeat CPU 0 instructions: 90000000 cycles: 67845512 heartbeat IPC: 1.21246 cumulative IPC: 0.96508 (Simulation time: 1 hr 44 min 14 sec) 

Region of Interest Statistics
cpu0_DTLB TOTAL     ACCESS:   15413465  HIT:   14779145  MISS:     634320
cpu0_DTLB LOAD      ACCESS:   14187878  HIT:   13554099  MISS:     633779
cpu0_DTLB RFO       ACCESS:    1225587  HIT:    1225046  MISS:        541
cpu0_DTLB PREFETCH  ACCESS:          0  HIT:          0  MISS:          0
cpu0_DTLB WRITEBACK ACCESS:          0  HIT:          0  MISS:          0
cpu0_ITLB TOTAL     ACCESS:     490185  HIT:     490185  MISS:          0
cpu0_ITLB LOAD      ACCESS:     490185  HIT:     490185  MISS:          0
cpu0_ITLB RFO       ACCESS:          0  HIT:          0  MISS:          0
cpu0_ITLB PREFETCH  ACCESS:          0  HIT:          0  MISS:          0
cpu0_ITLB WRITEBACK ACCESS:          0  HIT:          0  MISS:          0
cpu0_L1I TOTAL     ACCESS:    2127920  HIT:    2127886  MISS:         34
cpu0_L1I LOAD      ACCESS:    2127920  HIT:    2127886  MISS:         34
cpu0_L1I RFO       ACCESS:          0  HIT:          0  MISS:          0
cpu0_L1I PREFETCH  ACCESS:          0  HIT:          0  MISS:          0
cpu0_L1I WRITEBACK ACCESS:          0  HIT:          0  MISS:          0
cpu0_STLB TOTAL     ACCESS:     634320  HIT:     573856  MISS:      60464
cpu0_STLB LOAD      ACCESS:     633779  HIT:     573315  MISS:      60464
cpu0_STLB RFO       ACCESS:        541  HIT:        541  MISS:          0
cpu0_STLB PREFETCH  ACCESS:          0  HIT:          0  MISS:          0
cpu0_STLB WRITEBACK ACCESS:          0  HIT:          0  MISS:          0
cpu0_L1D TOTAL     ACCESS:   19041924  HIT:   17336034  MISS:    1705890
cpu0_L1D LOAD      ACCESS:   17677695  HIT:   15979253  MISS:    1698442
cpu0_L1D RFO       ACCESS:    1303783  HIT:    1303780  MISS:          3
cpu0_L1D PREFETCH  ACCESS:          0  HIT:          0  MISS:          0
cpu0_L1D WRITEBACK ACCESS:          0  HIT:          0  MISS:          0
cpu0_L2C TOTAL     ACCESS:    2101813  HIT:    1792284  MISS:     309529
cpu0_L2C LOAD      ACCESS:    1698476  HIT:    1389073  MISS:     309403
cpu0_L2C RFO       ACCESS:          3  HIT:          0  MISS:          3
cpu0_L2C PREFETCH  ACCESS:          0  HIT:          0  MISS:          0
cpu0_L2C WRITEBACK ACCESS:     395889  HIT:     395889  MISS:          0
LLC TOTAL     ACCESS:     310659  HIT:       5683  MISS:     304976
LLC LOAD      ACCESS:     309402  HIT:       5058  MISS:     304344
LLC RFO       ACCESS:          3  HIT:          0  MISS:          3
LLC PREFETCH  ACCESS:          0  HIT:          0  MISS:          0
LLC WRITEBACK ACCESS:       1131  HIT:        581  MISS:        550
Heartbeat CPU 0 instructions: 92000004 cycles: 69592195 heartbeat IPC: 1.14503 cumulative IPC: 0.972356 (Simulation time: 1 hr 46 min 8 sec) 

Region of Interest Statistics
cpu0_DTLB TOTAL     ACCESS:   16203353  HIT:   15538889  MISS:     664464
cpu0_DTLB LOAD      ACCESS:   14914352  HIT:   14250438  MISS:     663914
cpu0_DTLB RFO       ACCESS:    1289001  HIT:    1288451  MISS:        550
cpu0_DTLB PREFETCH  ACCESS:          0  HIT:          0  MISS:          0
cpu0_DTLB WRITEBACK ACCESS:          0  HIT:          0  MISS:          0
cpu0_ITLB TOTAL     ACCESS:     514134  HIT:     514134  MISS:          0
cpu0_ITLB LOAD      ACCESS:     514134  HIT:     514134  MISS:          0
cpu0_ITLB RFO       ACCESS:          0  HIT:          0  MISS:          0
cpu0_ITLB PREFETCH  ACCESS:          0  HIT:          0  MISS:          0
cpu0_ITLB WRITEBACK ACCESS:          0  HIT:          0  MISS:          0
cpu0_L1I TOTAL     ACCESS:    2224383  HIT:    2224349  MISS:         34
cpu0_L1I LOAD      ACCESS:    2224383  HIT:    2224349  MISS:         34
cpu0_L1I RFO       ACCESS:          0  HIT:          0  MISS:          0
cpu0_L1I PREFETCH  ACCESS:          0  HIT:          0  MISS:          0
cpu0_L1I WRITEBACK ACCESS:          0  HIT:          0  MISS:          0
cpu0_STLB TOTAL     ACCESS:     664464  HIT:     602318  MISS:      62146
cpu0_STLB LOAD      ACCESS:     663914  HIT:     601768  MISS:      62146
cpu0_STLB RFO       ACCESS:        550  HIT:        550  MISS:          0
cpu0_STLB PREFETCH  ACCESS:          0  HIT:          0  MISS:          0
cpu0_STLB WRITEBACK ACCESS:          0  HIT:          0  MISS:          0
cpu0_L1D TOTAL     ACCESS:   20016639  HIT:   18234038  MISS:    1782601
cpu0_L1D LOAD      ACCESS:   18584672  HIT:   16809872  MISS:    1774800
cpu0_L1D RFO       ACCESS:    1369840  HIT:    1369837  MISS:          3
cpu0_L1D PREFETCH  ACCESS:          0  HIT:          0  MISS:          0
cpu0_L1D WRITEBACK ACCESS:          0  HIT:          0  MISS:          0
cpu0_L2C TOTAL     ACCESS:    2193425  HIT:    1875613  MISS:     317812
cpu0_L2C LOAD      ACCESS:    1774834  HIT:    1457152  MISS:     317682
cpu0_L2C RFO       ACCESS:          3  HIT:          0  MISS:          3
cpu0_L2C PREFETCH  ACCESS:          0  HIT:          0  MISS:          0
cpu0_L2C WRITEBACK ACCESS:     410790  HIT:     410790  MISS:          0
LLC TOTAL     ACCESS:     319030  HIT:       5754  MISS:     313276
LLC LOAD      ACCESS:     317681  HIT:       5123  MISS:     312558
LLC RFO       ACCESS:          3  HIT:          0  MISS:          3
LLC PREFETCH  ACCESS:          0  HIT:          0  MISS:          0
LLC WRITEBACK ACCESS:       1219  HIT:        587  MISS:        632
Heartbeat CPU 0 instructions: 94000003 cycles: 71149302 heartbeat IPC: 1.28443 cumulative IPC: 0.983215 (Simulation time: 1 hr 47 min 52 sec) 

Region of Interest Statistics
cpu0_DTLB TOTAL     ACCESS:   17000937  HIT:   16318189  MISS:     682748
cpu0_DTLB LOAD      ACCESS:   15644179  HIT:   14961999  MISS:     682180
cpu0_DTLB RFO       ACCESS:    1356758  HIT:    1356190  MISS:        568
cpu0_DTLB PREFETCH  ACCESS:          0  HIT:          0  MISS:          0
cpu0_DTLB WRITEBACK ACCESS:          0  HIT:          0  MISS:          0
cpu0_ITLB TOTAL     ACCESS:     550134  HIT:     550134  MISS:          0
cpu0_ITLB LOAD      ACCESS:     550134  HIT:     550134  MISS:          0
cpu0_ITLB RFO       ACCESS:          0  HIT:          0  MISS:          0
cpu0_ITLB PREFETCH  ACCESS:          0  HIT:          0  MISS:          0
cpu0_ITLB WRITEBACK ACCESS:          0  HIT:          0  MISS:          0
cpu0_L1I TOTAL     ACCESS:    2422030  HIT:    2421996  MISS:         34
cpu0_L1I LOAD      ACCESS:    2422030  HIT:    2421996  MISS:         34
cpu0_L1I RFO       ACCESS:          0  HIT:          0  MISS:          0
cpu0_L1I PREFETCH  ACCESS:          0  HIT:          0  MISS:          0
cpu0_L1I WRITEBACK ACCESS:          0  HIT:          0  MISS:          0
cpu0_STLB TOTAL     ACCESS:     682748  HIT:     620601  MISS:      62147
cpu0_STLB LOAD      ACCESS:     682180  HIT:     620033  MISS:      62147
cpu0_STLB RFO       ACCESS:        568  HIT:        568  MISS:          0
cpu0_STLB PREFETCH  ACCESS:          0  HIT:          0  MISS:          0
cpu0_STLB WRITEBACK ACCESS:          0  HIT:          0  MISS:          0
cpu0_L1D TOTAL     ACCESS:   21014888  HIT:   19180775  MISS:    1834113
cpu0_L1D LOAD      ACCESS:   19514176  HIT:   17687865  MISS:    1826311
cpu0_L1D RFO       ACCESS:    1438584  HIT:    1438581  MISS:          3
cpu0_L1D PREFETCH  ACCESS:          0  HIT:          0  MISS:          0
cpu0_L1D WRITEBACK ACCESS:          0  HIT:          0  MISS:          0
cpu0_L2C TOTAL     ACCESS:    2244937  HIT:    1921650  MISS:     323287
cpu0_L2C LOAD      ACCESS:    1826345  HIT:    1503189  MISS:     323156
cpu0_L2C RFO       ACCESS:          3  HIT:          0  MISS:          3
cpu0_L2C PREFETCH  ACCESS:          0  HIT:          0  MISS:          0
cpu0_L2C WRITEBACK ACCESS:     410790  HIT:     410790  MISS:          0
LLC TOTAL     ACCESS:     324951  HIT:       5858  MISS:     319093
LLC LOAD      ACCESS:     323155  HIT:       5216  MISS:     317939
LLC RFO       ACCESS:          3  HIT:          0  MISS:          3
LLC PREFETCH  ACCESS:          0  HIT:          0  MISS:          0
LLC WRITEBACK ACCESS:       1665  HIT:        598  MISS:       1067
Heartbeat CPU 0 instructions: 96000001 cycles: 72705759 heartbeat IPC: 1.28497 cumulative IPC: 0.993357 (Simulation time: 1 hr 49 min 42 sec) 

Region of Interest Statistics
cpu0_DTLB TOTAL     ACCESS:   17798419  HIT:   17097403  MISS:     701016
cpu0_DTLB LOAD      ACCESS:   16373977  HIT:   15673555  MISS:     700422
cpu0_DTLB RFO       ACCESS:    1424442  HIT:    1423848  MISS:        594
cpu0_DTLB PREFETCH  ACCESS:          0  HIT:          0  MISS:          0
cpu0_DTLB WRITEBACK ACCESS:          0  HIT:          0  MISS:          0
cpu0_ITLB TOTAL     ACCESS:     586122  HIT:     586122  MISS:          0
cpu0_ITLB LOAD      ACCESS:     586122  HIT:     586122  MISS:          0
cpu0_ITLB RFO       ACCESS:          0  HIT:          0  MISS:          0
cpu0_ITLB PREFETCH  ACCESS:          0  HIT:          0  MISS:          0
cpu0_ITLB WRITEBACK ACCESS:          0  HIT:          0  MISS:          0
cpu0_L1I TOTAL     ACCESS:    2619685  HIT:    2619651  MISS:         34
cpu0_L1I LOAD      ACCESS:    2619685  HIT:    2619651  MISS:         34
cpu0_L1I RFO       ACCESS:          0  HIT:          0  MISS:          0
cpu0_L1I PREFETCH  ACCESS:          0  HIT:          0  MISS:          0
cpu0_L1I WRITEBACK ACCESS:          0  HIT:          0  MISS:          0
cpu0_STLB TOTAL     ACCESS:     701016  HIT:     638869  MISS:      62147
cpu0_STLB LOAD      ACCESS:     700422  HIT:     638275  MISS:      62147
cpu0_STLB RFO       ACCESS:        594  HIT:        594  MISS:          0
cpu0_STLB PREFETCH  ACCESS:          0  HIT:          0  MISS:          0
cpu0_STLB WRITEBACK ACCESS:          0  HIT:          0  MISS:          0
cpu0_L1D TOTAL     ACCESS:   22013612  HIT:   20127988  MISS:    1885624
cpu0_L1D LOAD      ACCESS:   20444154  HIT:   18566332  MISS:    1877822
cpu0_L1D RFO       ACCESS:    1507330  HIT:    1507327  MISS:          3
cpu0_L1D PREFETCH  ACCESS:          0  HIT:          0  MISS:          0
cpu0_L1D WRITEBACK ACCESS:          0  HIT:          0  MISS:          0
cpu0_L2C TOTAL     ACCESS:    2296448  HIT:    1967632  MISS:     328816
cpu0_L2C LOAD      ACCESS:    1877856  HIT:    1549171  MISS:     328685
cpu0_L2C RFO       ACCESS:          3  HIT:          0  MISS:          3
cpu0_L2C PREFETCH  ACCESS:          0  HIT:          0  MISS:          0
cpu0_L2C WRITEBACK ACCESS:     410790  HIT:     410790  MISS:          0
LLC TOTAL     ACCESS:     330605  HIT:       6003  MISS:     324602
LLC LOAD      ACCESS:     328684  HIT:       5361  MISS:     323323
LLC RFO       ACCESS:          3  HIT:          0  MISS:          3
LLC PREFETCH  ACCESS:          0  HIT:          0  MISS:          0
LLC WRITEBACK ACCESS:       1790  HIT:        598  MISS:       1192
Heartbeat CPU 0 instructions: 98000003 cycles: 74259342 heartbeat IPC: 1.28735 cumulative IPC: 1.0029 (Simulation time: 1 hr 51 min 32 sec) 

Region of Interest Statistics
cpu0_DTLB TOTAL     ACCESS:   18595939  HIT:   17876649  MISS:     719290
cpu0_DTLB LOAD      ACCESS:   17103785  HIT:   16385117  MISS:     718668
cpu0_DTLB RFO       ACCESS:    1492154  HIT:    1491532  MISS:        622
cpu0_DTLB PREFETCH  ACCESS:          0  HIT:          0  MISS:          0
cpu0_DTLB WRITEBACK ACCESS:          0  HIT:          0  MISS:          0
cpu0_ITLB TOTAL     ACCESS:     622119  HIT:     622119  MISS:          0
cpu0_ITLB LOAD      ACCESS:     622119  HIT:     622119  MISS:          0
cpu0_ITLB RFO       ACCESS:          0  HIT:          0  MISS:          0
cpu0_ITLB PREFETCH  ACCESS:          0  HIT:          0  MISS:          0
cpu0_ITLB WRITEBACK ACCESS:          0  HIT:          0  MISS:          0
cpu0_L1I TOTAL     ACCESS:    2817369  HIT:    2817335  MISS:         34
cpu0_L1I LOAD      ACCESS:    2817369  HIT:    2817335  MISS:         34
cpu0_L1I RFO       ACCESS:          0  HIT:          0  MISS:          0
cpu0_L1I PREFETCH  ACCESS:          0  HIT:          0  MISS:          0
cpu0_L1I WRITEBACK ACCESS:          0  HIT:          0  MISS:          0
cpu0_STLB TOTAL     ACCESS:     719290  HIT:     657143  MISS:      62147
cpu0_STLB LOAD      ACCESS:     718668  HIT:     656521  MISS:      62147
cpu0_STLB RFO       ACCESS:        622  HIT:        622  MISS:          0
cpu0_STLB PREFETCH  ACCESS:          0  HIT:          0  MISS:          0
cpu0_STLB WRITEBACK ACCESS:          0  HIT:          0  MISS:          0
cpu0_L1D TOTAL     ACCESS:   23012265  HIT:   21075133  MISS:    1937132
cpu0_L1D LOAD      ACCESS:   21374066  HIT:   19444736  MISS:    1929330
cpu0_L1D RFO       ACCESS:    1576071  HIT:    1576068  MISS:          3
cpu0_L1D PREFETCH  ACCESS:          0  HIT:          0  MISS:          0
cpu0_L1D WRITEBACK ACCESS:          0  HIT:          0  MISS:          0
cpu0_L2C TOTAL     ACCESS:    2347957  HIT:    2013635  MISS:     334322
cpu0_L2C LOAD      ACCESS:    1929365  HIT:    1595174  MISS:     334191
cpu0_L2C RFO       ACCESS:          3  HIT:          0  MISS:          3
cpu0_L2C PREFETCH  ACCESS:          0  HIT:          0  MISS:          0
cpu0_L2C WRITEBACK ACCESS:     410790  HIT:     410790  MISS:          0
LLC TOTAL     ACCESS:     336118  HIT:       6153  MISS:     329965
LLC LOAD      ACCESS:     334190  HIT:       5511  MISS:     328679
LLC RFO       ACCESS:          3  HIT:          0  MISS:          3
LLC PREFETCH  ACCESS:          0  HIT:          0  MISS:          0
LLC WRITEBACK ACCESS:       1797  HIT:        598  MISS:       1199
Heartbeat CPU 0 instructions: 100000001 cycles: 75813430 heartbeat IPC: 1.28693 cumulative IPC: 1.01183 (Simulation time: 1 hr 53 min 21 sec) 

Region of Interest Statistics
cpu0_DTLB TOTAL     ACCESS:   19393262  HIT:   18655497  MISS:     737765
cpu0_DTLB LOAD      ACCESS:   17833395  HIT:   17096284  MISS:     737111
cpu0_DTLB RFO       ACCESS:    1559867  HIT:    1559213  MISS:        654
cpu0_DTLB PREFETCH  ACCESS:          0  HIT:          0  MISS:          0
cpu0_DTLB WRITEBACK ACCESS:          0  HIT:          0  MISS:          0
cpu0_ITLB TOTAL     ACCESS:     658118  HIT:     658118  MISS:          0
cpu0_ITLB LOAD      ACCESS:     658118  HIT:     658118  MISS:          0
cpu0_ITLB RFO       ACCESS:          0  HIT:          0  MISS:          0
cpu0_ITLB PREFETCH  ACCESS:          0  HIT:          0  MISS:          0
cpu0_ITLB WRITEBACK ACCESS:          0  HIT:          0  MISS:          0
cpu0_L1I TOTAL     ACCESS:    3014982  HIT:    3014948  MISS:         34
cpu0_L1I LOAD      ACCESS:    3014982  HIT:    3014948  MISS:         34
cpu0_L1I RFO       ACCESS:          0  HIT:          0  MISS:          0
cpu0_L1I PREFETCH  ACCESS:          0  HIT:          0  MISS:          0
cpu0_L1I WRITEBACK ACCESS:          0  HIT:          0  MISS:          0
cpu0_STLB TOTAL     ACCESS:     737765  HIT:     675618  MISS:      62147
cpu0_STLB LOAD      ACCESS:     737111  HIT:     674964  MISS:      62147
cpu0_STLB RFO       ACCESS:        654  HIT:        654  MISS:          0
cpu0_STLB PREFETCH  ACCESS:          0  HIT:          0  MISS:          0
cpu0_STLB WRITEBACK ACCESS:          0  HIT:          0  MISS:          0
cpu0_L1D TOTAL     ACCESS:   24010579  HIT:   22021931  MISS:    1988648
cpu0_L1D LOAD      ACCESS:   22303635  HIT:   20322789  MISS:    1980846
cpu0_L1D RFO       ACCESS:    1644816  HIT:    1644813  MISS:          3
cpu0_L1D PREFETCH  ACCESS:          0  HIT:          0  MISS:          0
cpu0_L1D WRITEBACK ACCESS:          0  HIT:          0  MISS:          0
cpu0_L2C TOTAL     ACCESS:    2399472  HIT:    2059668  MISS:     339804
cpu0_L2C LOAD      ACCESS:    1980880  HIT:    1641207  MISS:     339673
cpu0_L2C RFO       ACCESS:          3  HIT:          0  MISS:          3
cpu0_L2C PREFETCH  ACCESS:          0  HIT:          0  MISS:          0
cpu0_L2C WRITEBACK ACCESS:     410790  HIT:     410790  MISS:          0
LLC TOTAL     ACCESS:     341601  HIT:       6288  MISS:     335313
LLC LOAD      ACCESS:     339672  HIT:       5646  MISS:     334026
LLC RFO       ACCESS:          3  HIT:          0  MISS:          3
LLC PREFETCH  ACCESS:          0  HIT:          0  MISS:          0
LLC WRITEBACK ACCESS:       1798  HIT:        598  MISS:       1200
Heartbeat CPU 0 instructions: 102000003 cycles: 77367826 heartbeat IPC: 1.28667 cumulative IPC: 1.02021 (Simulation time: 1 hr 55 min 2 sec) 

Region of Interest Statistics
cpu0_DTLB TOTAL     ACCESS:   20190873  HIT:   19434788  MISS:     756085
cpu0_DTLB LOAD      ACCESS:   18563291  HIT:   17807890  MISS:     755401
cpu0_DTLB RFO       ACCESS:    1627582  HIT:    1626898  MISS:        684
cpu0_DTLB PREFETCH  ACCESS:          0  HIT:          0  MISS:          0
cpu0_DTLB WRITEBACK ACCESS:          0  HIT:          0  MISS:          0
cpu0_ITLB TOTAL     ACCESS:     694122  HIT:     694122  MISS:          0
cpu0_ITLB LOAD      ACCESS:     694122  HIT:     694122  MISS:          0
cpu0_ITLB RFO       ACCESS:          0  HIT:          0  MISS:          0
cpu0_ITLB PREFETCH  ACCESS:          0  HIT:          0  MISS:          0
cpu0_ITLB WRITEBACK ACCESS:          0  HIT:          0  MISS:          0
cpu0_L1I TOTAL     ACCESS:    3212632  HIT:    3212598  MISS:         34
cpu0_L1I LOAD      ACCESS:    3212632  HIT:    3212598  MISS:         34
cpu0_L1I RFO       ACCESS:          0  HIT:          0  MISS:          0
cpu0_L1I PREFETCH  ACCESS:          0  HIT:          0  MISS:          0
cpu0_L1I WRITEBACK ACCESS:          0  HIT:          0  MISS:          0
cpu0_STLB TOTAL     ACCESS:     756085  HIT:     693938  MISS:      62147
cpu0_STLB LOAD      ACCESS:     755401  HIT:     693254  MISS:      62147
cpu0_STLB RFO       ACCESS:        684  HIT:        684  MISS:          0
cpu0_STLB PREFETCH  ACCESS:          0  HIT:          0  MISS:          0
cpu0_STLB WRITEBACK ACCESS:          0  HIT:          0  MISS:          0
cpu0_L1D TOTAL     ACCESS:   25008997  HIT:   22968843  MISS:    2040154
cpu0_L1D LOAD      ACCESS:   23233311  HIT:   21200959  MISS:    2032352
cpu0_L1D RFO       ACCESS:    1713558  HIT:    1713555  MISS:          3
cpu0_L1D PREFETCH  ACCESS:          0  HIT:          0  MISS:          0
cpu0_L1D WRITEBACK ACCESS:          0  HIT:          0  MISS:          0
cpu0_L2C TOTAL     ACCESS:    2450978  HIT:    2105679  MISS:     345299
cpu0_L2C LOAD      ACCESS:    2032386  HIT:    1687218  MISS:     345168
cpu0_L2C RFO       ACCESS:          3  HIT:          0  MISS:          3
cpu0_L2C PREFETCH  ACCESS:          0  HIT:          0  MISS:          0
cpu0_L2C WRITEBACK ACCESS:     410790  HIT:     410790  MISS:          0
LLC TOTAL     ACCESS:     347096  HIT:       6432  MISS:     340664
LLC LOAD      ACCESS:     345167  HIT:       5790  MISS:     339377
LLC RFO       ACCESS:          3  HIT:          0  MISS:          3
LLC PREFETCH  ACCESS:          0  HIT:          0  MISS:          0
LLC WRITEBACK ACCESS:       1798  HIT:        598  MISS:       1200
Heartbeat CPU 0 instructions: 104000002 cycles: 78926222 heartbeat IPC: 1.28337 cumulative IPC: 1.02802 (Simulation time: 1 hr 56 min 52 sec) 

Region of Interest Statistics
cpu0_DTLB TOTAL     ACCESS:   20988404  HIT:   20214067  MISS:     774337
cpu0_DTLB LOAD      ACCESS:   19293081  HIT:   18519455  MISS:     773626
cpu0_DTLB RFO       ACCESS:    1695323  HIT:    1694612  MISS:        711
cpu0_DTLB PREFETCH  ACCESS:          0  HIT:          0  MISS:          0
cpu0_DTLB WRITEBACK ACCESS:          0  HIT:          0  MISS:          0
cpu0_ITLB TOTAL     ACCESS:     730121  HIT:     730121  MISS:          0
cpu0_ITLB LOAD      ACCESS:     730121  HIT:     730121  MISS:          0
cpu0_ITLB RFO       ACCESS:          0  HIT:          0  MISS:          0
cpu0_ITLB PREFETCH  ACCESS:          0  HIT:          0  MISS:          0
cpu0_ITLB WRITEBACK ACCESS:          0  HIT:          0  MISS:          0
cpu0_L1I TOTAL     ACCESS:    3410259  HIT:    3410225  MISS:         34
cpu0_L1I LOAD      ACCESS:    3410259  HIT:    3410225  MISS:         34
cpu0_L1I RFO       ACCESS:          0  HIT:          0  MISS:          0
cpu0_L1I PREFETCH  ACCESS:          0  HIT:          0  MISS:          0
cpu0_L1I WRITEBACK ACCESS:          0  HIT:          0  MISS:          0
cpu0_STLB TOTAL     ACCESS:     774337  HIT:     712190  MISS:      62147
cpu0_STLB LOAD      ACCESS:     773626  HIT:     711479  MISS:      62147
cpu0_STLB RFO       ACCESS:        711  HIT:        711  MISS:          0
cpu0_STLB PREFETCH  ACCESS:          0  HIT:          0  MISS:          0
cpu0_STLB WRITEBACK ACCESS:          0  HIT:          0  MISS:          0
cpu0_L1D TOTAL     ACCESS:   26007531  HIT:   23915864  MISS:    2091667
cpu0_L1D LOAD      ACCESS:   24163100  HIT:   22079235  MISS:    2083865
cpu0_L1D RFO       ACCESS:    1782303  HIT:    1782300  MISS:          3
cpu0_L1D PREFETCH  ACCESS:          0  HIT:          0  MISS:          0
cpu0_L1D WRITEBACK ACCESS:          0  HIT:          0  MISS:          0
cpu0_L2C TOTAL     ACCESS:    2502491  HIT:    2151722  MISS:     350769
cpu0_L2C LOAD      ACCESS:    2083899  HIT:    1733261  MISS:     350638
cpu0_L2C RFO       ACCESS:          3  HIT:          0  MISS:          3
cpu0_L2C PREFETCH  ACCESS:          0  HIT:          0  MISS:          0
cpu0_L2C WRITEBACK ACCESS:     410790  HIT:     410790  MISS:          0
LLC TOTAL     ACCESS:     352566  HIT:       6522  MISS:     346044
LLC LOAD      ACCESS:     350637  HIT:       5880  MISS:     344757
LLC RFO       ACCESS:          3  HIT:          0  MISS:          3
LLC PREFETCH  ACCESS:          0  HIT:          0  MISS:          0
LLC WRITEBACK ACCESS:       1798  HIT:        598  MISS:       1200
Heartbeat CPU 0 instructions: 106000003 cycles: 80483864 heartbeat IPC: 1.28399 cumulative IPC: 1.03539 (Simulation time: 1 hr 58 min 41 sec) 

Region of Interest Statistics
cpu0_DTLB TOTAL     ACCESS:   21786402  HIT:   20993744  MISS:     792658
cpu0_DTLB LOAD      ACCESS:   20023393  HIT:   19231474  MISS:     791919
cpu0_DTLB RFO       ACCESS:    1763009  HIT:    1762270  MISS:        739
cpu0_DTLB PREFETCH  ACCESS:          0  HIT:          0  MISS:          0
cpu0_DTLB WRITEBACK ACCESS:          0  HIT:          0  MISS:          0
cpu0_ITLB TOTAL     ACCESS:     766125  HIT:     766125  MISS:          0
cpu0_ITLB LOAD      ACCESS:     766125  HIT:     766125  MISS:          0
cpu0_ITLB RFO       ACCESS:          0  HIT:          0  MISS:          0
cpu0_ITLB PREFETCH  ACCESS:          0  HIT:          0  MISS:          0
cpu0_ITLB WRITEBACK ACCESS:          0  HIT:          0  MISS:          0
cpu0_L1I TOTAL     ACCESS:    3607891  HIT:    3607857  MISS:         34
cpu0_L1I LOAD      ACCESS:    3607891  HIT:    3607857  MISS:         34
cpu0_L1I RFO       ACCESS:          0  HIT:          0  MISS:          0
cpu0_L1I PREFETCH  ACCESS:          0  HIT:          0  MISS:          0
cpu0_L1I WRITEBACK ACCESS:          0  HIT:          0  MISS:          0
cpu0_STLB TOTAL     ACCESS:     792658  HIT:     730511  MISS:      62147
cpu0_STLB LOAD      ACCESS:     791919  HIT:     729772  MISS:      62147
cpu0_STLB RFO       ACCESS:        739  HIT:        739  MISS:          0
cpu0_STLB PREFETCH  ACCESS:          0  HIT:          0  MISS:          0
cpu0_STLB WRITEBACK ACCESS:          0  HIT:          0  MISS:          0
cpu0_L1D TOTAL     ACCESS:   27006115  HIT:   24862938  MISS:    2143177
cpu0_L1D LOAD      ACCESS:   25092939  HIT:   22957564  MISS:    2135375
cpu0_L1D RFO       ACCESS:    1851048  HIT:    1851045  MISS:          3
cpu0_L1D PREFETCH  ACCESS:          0  HIT:          0  MISS:          0
cpu0_L1D WRITEBACK ACCESS:          0  HIT:          0  MISS:          0
cpu0_L2C TOTAL     ACCESS:    2554001  HIT:    2197815  MISS:     356186
cpu0_L2C LOAD      ACCESS:    2135409  HIT:    1779354  MISS:     356055
cpu0_L2C RFO       ACCESS:          3  HIT:          0  MISS:          3
cpu0_L2C PREFETCH  ACCESS:          0  HIT:          0  MISS:          0
[...]
cpu0_DTLB LOAD      ACCESS:  491695960  HIT:  487236171  MISS:    4459789
cpu0_DTLB RFO       ACCESS:   63630777  HIT:   62512406  MISS:    1118371
cpu0_DTLB PREFETCH  ACCESS:          0  HIT:          0  MISS:          0
cpu0_DTLB WRITEBACK ACCESS:          0  HIT:          0  MISS:          0
cpu0_ITLB TOTAL     ACCESS:   20900243  HIT:   20900213  MISS:         30
cpu0_ITLB LOAD      ACCESS:   20900243  HIT:   20900213  MISS:         30
cpu0_ITLB RFO       ACCESS:          0  HIT:          0  MISS:          0
cpu0_ITLB PREFETCH  ACCESS:          0  HIT:          0  MISS:          0
cpu0_ITLB WRITEBACK ACCESS:          0  HIT:          0  MISS:          0
cpu0_L1I TOTAL     ACCESS:   91737880  HIT:   91737143  MISS:        737
cpu0_L1I LOAD      ACCESS:   91737880  HIT:   91737143  MISS:        737
cpu0_L1I RFO       ACCESS:          0  HIT:          0  MISS:          0
cpu0_L1I PREFETCH  ACCESS:          0  HIT:          0  MISS:          0
cpu0_L1I WRITEBACK ACCESS:          0  HIT:          0  MISS:          0
cpu0_STLB TOTAL     ACCESS:    5578190  HIT:    4776193  MISS:     801997
cpu0_STLB LOAD      ACCESS:    4459819  HIT:    3658602  MISS:     801217
cpu0_STLB RFO       ACCESS:    1118371  HIT:    1117591  MISS:        780
cpu0_STLB PREFETCH  ACCESS:          0  HIT:          0  MISS:          0
cpu0_STLB WRITEBACK ACCESS:          0  HIT:          0  MISS:          0
cpu0_L1D TOTAL     ACCESS:  589347276  HIT:  565401240  MISS:   23946036
cpu0_L1D LOAD      ACCESS:  488550916  HIT:  464813822  MISS:   23737094
cpu0_L1D RFO       ACCESS:  100058033  HIT:   99892553  MISS:     165480
cpu0_L1D PREFETCH  ACCESS:          0  HIT:          0  MISS:          0
cpu0_L1D WRITEBACK ACCESS:          0  HIT:          0  MISS:          0
cpu0_L2C TOTAL     ACCESS:   33234015  HIT:   12461273  MISS:   20772742
cpu0_L2C LOAD      ACCESS:   23737831  HIT:    3098039  MISS:   20639792
cpu0_L2C RFO       ACCESS:     165480  HIT:      34041  MISS:     131439
cpu0_L2C PREFETCH  ACCESS:          0  HIT:          0  MISS:          0
cpu0_L2C WRITEBACK ACCESS:    9287242  HIT:    9286845  MISS:        397
LLC TOTAL     ACCESS:   29609663  HIT:    9079110  MISS:   20530553
LLC LOAD      ACCESS:   20639791  HIT:     187274  MISS:   20452517
LLC RFO       ACCESS:     131439  HIT:      56102  MISS:      75337
LLC PREFETCH  ACCESS:          0  HIT:          0  MISS:          0
LLC WRITEBACK ACCESS:    8837319  HIT:    8835465  MISS:       1854
Heartbeat CPU 0 instructions: 1550000003 cycles: 2871044978 heartbeat IPC: 0.339663 cumulative IPC: 0.527306 (Simulation time: 19 hr 51 min 16 sec) 

Region of Interest Statistics
cpu0_DTLB TOTAL     ACCESS:  555901429  HIT:  550322425  MISS:    5579004
cpu0_DTLB LOAD      ACCESS:  492176142  HIT:  487715509  MISS:    4460633
cpu0_DTLB RFO       ACCESS:   63725287  HIT:   62606916  MISS:    1118371
cpu0_DTLB PREFETCH  ACCESS:          0  HIT:          0  MISS:          0
cpu0_DTLB WRITEBACK ACCESS:          0  HIT:          0  MISS:          0
cpu0_ITLB TOTAL     ACCESS:   20905318  HIT:   20905288  MISS:         30
cpu0_ITLB LOAD      ACCESS:   20905318  HIT:   20905288  MISS:         30
cpu0_ITLB RFO       ACCESS:          0  HIT:          0  MISS:          0
cpu0_ITLB PREFETCH  ACCESS:          0  HIT:          0  MISS:          0
cpu0_ITLB WRITEBACK ACCESS:          0  HIT:          0  MISS:          0
cpu0_L1I TOTAL     ACCESS:   91737911  HIT:   91737174  MISS:        737
cpu0_L1I LOAD      ACCESS:   91737911  HIT:   91737174  MISS:        737
cpu0_L1I RFO       ACCESS:          0  HIT:          0  MISS:          0
cpu0_L1I PREFETCH  ACCESS:          0  HIT:          0  MISS:          0
cpu0_L1I WRITEBACK ACCESS:          0  HIT:          0  MISS:          0
cpu0_STLB TOTAL     ACCESS:    5579034  HIT:    4776403  MISS:     802631
cpu0_STLB LOAD      ACCESS:    4460663  HIT:    3658812  MISS:     801851
cpu0_STLB RFO       ACCESS:    1118371  HIT:    1117591  MISS:        780
cpu0_STLB PREFETCH  ACCESS:          0  HIT:          0  MISS:          0
cpu0_STLB WRITEBACK ACCESS:          0  HIT:          0  MISS:          0
cpu0_L1D TOTAL     ACCESS:  589811993  HIT:  565816884  MISS:   23995109
cpu0_L1D LOAD      ACCESS:  488871248  HIT:  465085081  MISS:   23786167
cpu0_L1D RFO       ACCESS:  100201784  HIT:  100036304  MISS:     165480
cpu0_L1D PREFETCH  ACCESS:          0  HIT:          0  MISS:          0
cpu0_L1D WRITEBACK ACCESS:          0  HIT:          0  MISS:          0
cpu0_L2C TOTAL     ACCESS:   33301432  HIT:   12479617  MISS:   20821815
cpu0_L2C LOAD      ACCESS:   23786904  HIT:    3098039  MISS:   20688865
cpu0_L2C RFO       ACCESS:     165480  HIT:      34041  MISS:     131439
cpu0_L2C PREFETCH  ACCESS:          0  HIT:          0  MISS:          0
cpu0_L2C WRITEBACK ACCESS:    9305586  HIT:    9305189  MISS:        397
LLC TOTAL     ACCESS:   29677065  HIT:    9097439  MISS:   20579626
LLC LOAD      ACCESS:   20688864  HIT:     187274  MISS:   20501590
LLC RFO       ACCESS:     131439  HIT:      56102  MISS:      75337
LLC PREFETCH  ACCESS:          0  HIT:          0  MISS:          0
LLC WRITEBACK ACCESS:    8855648  HIT:    8853794  MISS:       1854
Finished CPU 0 instructions: 1500000002 cycles: 2844646820 cumulative IPC: 0.527306 (Simulation time: 19 hr 51 min 16 sec) 

ChampSim completed all CPUs

Region of Interest Statistics

CPU 0 cumulative IPC: 0.527306 instructions: 1500000002 cycles: 2844646820
cpu0_DTLB TOTAL     ACCESS:  555901429  HIT:  550322425  MISS:    5579004
cpu0_DTLB LOAD      ACCESS:  492176142  HIT:  487715509  MISS:    4460633
cpu0_DTLB RFO       ACCESS:   63725287  HIT:   62606916  MISS:    1118371
cpu0_DTLB PREFETCH  ACCESS:          0  HIT:          0  MISS:          0
cpu0_DTLB WRITEBACK ACCESS:          0  HIT:          0  MISS:          0
cpu0_DTLB TRANSLATION ACCESS:          0  HIT:          0  MISS:          0
cpu0_DTLB PREFETCH  REQUESTED:          0  ISSUED:          0  USEFUL:          0  USELESS:          0
cpu0_DTLB AVERAGE MISS LATENCY: 22.7255 cycles
cpu0_ITLB TOTAL     ACCESS:   20905318  HIT:   20905288  MISS:         30
cpu0_ITLB LOAD      ACCESS:   20905318  HIT:   20905288  MISS:         30
cpu0_ITLB RFO       ACCESS:          0  HIT:          0  MISS:          0
cpu0_ITLB PREFETCH  ACCESS:          0  HIT:          0  MISS:          0
cpu0_ITLB WRITEBACK ACCESS:          0  HIT:          0  MISS:          0
cpu0_ITLB TRANSLATION ACCESS:          0  HIT:          0  MISS:          0
cpu0_ITLB PREFETCH  REQUESTED:          0  ISSUED:          0  USEFUL:          0  USELESS:          0
cpu0_ITLB AVERAGE MISS LATENCY: 257.333 cycles
cpu0_L1I TOTAL     ACCESS:   91737911  HIT:   91737174  MISS:        737
cpu0_L1I LOAD      ACCESS:   91737911  HIT:   91737174  MISS:        737
cpu0_L1I RFO       ACCESS:          0  HIT:          0  MISS:          0
cpu0_L1I PREFETCH  ACCESS:          0  HIT:          0  MISS:          0
cpu0_L1I WRITEBACK ACCESS:          0  HIT:          0  MISS:          0
cpu0_L1I TRANSLATION ACCESS:          0  HIT:          0  MISS:          0
cpu0_L1I PREFETCH  REQUESTED:          0  ISSUED:          0  USEFUL:          0  USELESS:          0
cpu0_L1I AVERAGE MISS LATENCY: 345.312 cycles
cpu0_STLB TOTAL     ACCESS:    5579034  HIT:    4776403  MISS:     802631
cpu0_STLB LOAD      ACCESS:    4460663  HIT:    3658812  MISS:     801851
cpu0_STLB RFO       ACCESS:    1118371  HIT:    1117591  MISS:        780
cpu0_STLB PREFETCH  ACCESS:          0  HIT:          0  MISS:          0
cpu0_STLB WRITEBACK ACCESS:          0  HIT:          0  MISS:          0
cpu0_STLB TRANSLATION ACCESS:          0  HIT:          0  MISS:          0
cpu0_STLB PREFETCH  REQUESTED:          0  ISSUED:          0  USEFUL:          0  USELESS:          0
cpu0_STLB AVERAGE MISS LATENCY: 95.3403 cycles
cpu0_L1D TOTAL     ACCESS:  589811993  HIT:  565816884  MISS:   23995109
cpu0_L1D LOAD      ACCESS:  488871248  HIT:  465085081  MISS:   23786167
cpu0_L1D RFO       ACCESS:  100201784  HIT:  100036304  MISS:     165480
cpu0_L1D PREFETCH  ACCESS:          0  HIT:          0  MISS:          0
cpu0_L1D WRITEBACK ACCESS:          0  HIT:          0  MISS:          0
cpu0_L1D TRANSLATION ACCESS:     738961  HIT:     695499  MISS:      43462
cpu0_L1D PREFETCH  REQUESTED:          0  ISSUED:          0  USEFUL:          0  USELESS:          0
cpu0_L1D AVERAGE MISS LATENCY: 451.279 cycles
cpu0_L2C TOTAL     ACCESS:   33301432  HIT:   12479617  MISS:   20821815
cpu0_L2C LOAD      ACCESS:   23786904  HIT:    3098039  MISS:   20688865
cpu0_L2C RFO       ACCESS:     165480  HIT:      34041  MISS:     131439
cpu0_L2C PREFETCH  ACCESS:          0  HIT:          0  MISS:          0
cpu0_L2C WRITEBACK ACCESS:    9305586  HIT:    9305189  MISS:        397
cpu0_L2C TRANSLATION ACCESS:      43462  HIT:      42348  MISS:       1114
cpu0_L2C PREFETCH  REQUESTED:          0  ISSUED:          0  USEFUL:          0  USELESS:          0
cpu0_L2C AVERAGE MISS LATENCY: 507.344 cycles
LLC TOTAL     ACCESS:   29677065  HIT:    9097439  MISS:   20579626
LLC LOAD      ACCESS:   20688864  HIT:     187274  MISS:   20501590
LLC RFO       ACCESS:     131439  HIT:      56102  MISS:      75337
LLC PREFETCH  ACCESS:          0  HIT:          0  MISS:          0
LLC WRITEBACK ACCESS:    8855648  HIT:    8853794  MISS:       1854
LLC TRANSLATION ACCESS:       1114  HIT:        269  MISS:        845
LLC PREFETCH  REQUESTED:          0  ISSUED:          0  USEFUL:          0  USELESS:          0
LLC AVERAGE MISS LATENCY: 492.068 cycles
~~~~~~~~~~Reuse Distance Profiler output~~~~~~~~~~
0	0	0
1	0	0
2	0	0
3	0	0
4	0	0
5	0	0
6	0	0
7	0	0
8	0	0
9	0	0
10	0	0
11	0	0
12	0	0
13	0	0
14	0	0
15	0	0
16	0	0
17	0	0
18	0	0
19	0	0
20	0	0
21	0	0
22	0	0
23	0	0
24	0	0
25	0	0
26	0	0
27	0	0
28	0	0
29	0	0
30	0	0
31	0	0
32	0	0
33	0	0
34	0	0
35	0	0
36	0	0
37	0	0
38	0	0
39	0	0
40	0	0
41	0	0
42	0	0
43	0	0
44	0	0
45	0	0
46	0	0
47	0	0
48	0	0
49	0	0
50	0	0
51	0	0
52	0	0
53	0	0
54	0	0
55	0	0
56	0	0
57	0	0
58	0	0
59	0	0
60	0	0
61	0	0
62	0	0
63	0	0
64	0	0
66	0	0
68	0	0
70	0	0
72	0	0
74	0	0
76	0	0
78	0	0
80	0	0
82	0	0
84	0	0
86	0	0
88	0	0
90	0	0
92	0	0
94	0	0
96	0	0
98	0	0
100	0	0
102	0	0
104	0	0
106	0	0
108	0	0
110	0	0
112	0	0
114	0	0
116	0	0
118	0	0
120	0	0
122	0	0
124	0	0
126	0	0
128	0	0
132	0	0
136	0	0
140	0	0
144	0	0
148	0	0
152	0	0
156	0	0
160	0	0
164	0	0
168	0	0
172	0	0
176	0	0
180	0	0
184	0	0
188	0	0
192	0	0
196	0	0
200	0	0
204	0	0
208	0	0
212	0	0
216	0	0
220	0	0
224	0	0
228	0	0
232	0	0
236	0	0
240	0	0
244	0	0
248	0	0
252	0	0
256	0	0
264	0	0
272	0	0
280	0	0
288	0	0
296	0	0
304	0	0
312	0	0
320	0	0
328	0	0
336	0	0
344	0	0
352	0	0
360	0	0
368	0	0
376	0	0
384	0	0
392	0	0
400	0	0
408	0	0
416	0	0
424	0	0
432	0	0
440	0	0
448	0	0
456	0	0
464	0	0
472	0	0
480	0	0
488	0	0
496	0	0
504	0	0
512	0	0
528	0	0
544	0	0
560	0	0
576	0	0
592	0	0
608	0	0
624	0	0
640	0	0
656	0	0
672	0	0
688	0	0
704	0	0
720	0	0
736	0	0
752	0	0
768	0	0
784	0	0
800	0	0
816	0	0
832	0	0
848	0	0
864	0	0
880	0	0
896	0	0
912	0	0
928	0	0
944	0	0
960	0	0
976	0	0
992	0	0
1008	0	0
1024	0	0
1056	0	0
1088	0	0
1120	0	0
1152	0	0
1184	0	0
1216	0	0
1248	0	0
1280	0	0
1312	0	0
1344	0	0
1376	0	0
1408	0	0
1440	0	0
1472	0	0
1504	0	0
1536	0	0
1568	0	0
1600	0	0
1632	0	0
1664	0	0
1696	0	0
1728	0	0
1760	0	0
1792	0	0
1824	0	0
1856	0	0
1888	0	0
1920	0	0
1952	0	0
1984	0	0
2016	0	0
2048	0	0
2112	0	0
2176	0	0
2240	0	0
2304	0	0
2368	0	0
2432	0	0
2496	0	0
2560	0	0
2624	0	0
2688	0	0
2752	0	0
2816	0	0
2880	0	0
2944	0	0
3008	0	0
3072	0	0
3136	0	0
3200	0	0
3264	0	0
3328	0	0
3392	0	0
3456	0	0
3520	0	0
3584	0	0
3648	0	0
3712	0	0
3776	0	0
3840	0	0
3904	0	0
3968	0	0
4032	0	0
4096	0	0
4224	0	0
4352	0	0
4480	0	0
4608	0	0
4736	0	0
4864	0	0
4992	0	0
5120	0	0
5248	0	0
5376	0	0
5504	0	0
5632	0	0
5760	0	0
5888	0	0
6016	0	0
6144	0	0
6272	0	0
6400	0	0
6528	0	0
6656	0	0
6784	0	0
6912	0	0
7040	0	0
7168	0	0
7296	0	0
7424	0	0
7552	0	0
7680	0	0
7808	0	0
7936	0	0
8064	0	0
8192	0	0
8448	0	0
8704	0	0
8960	0	0
9216	0	0
9472	0	0
9728	0	0
9984	0	0
10240	0	0
10496	0	0
10752	0	0
11008	0	0
11264	0	0
11520	0	0
11776	0	0
12032	0	0
12288	0	0
12544	0	0
12800	0	0
13056	0	0
13312	0	0
13568	0	0
13824	0	0
14080	0	0
14336	0	0
14592	0	0
14848	0	0
15104	0	0
15360	0	0
15616	0	0
15872	0	0
16128	0	0
16384	0	0
16896	0	0
17408	0	0
17920	0	0
18432	0	0
18944	0	0
19456	0	0
19968	0	0
20480	0	0
20992	0	0
21504	0	0
22016	0	0
22528	0	0
23040	0	0
23552	0	0
24064	0	0
24576	0	0
25088	0	0
25600	0	0
26112	0	0
26624	0	0
27136	0	0
27648	0	0
28160	0	0
28672	0	0
29184	0	0
29696	0	0
30208	0	0
30720	0	0
31232	0	0
31744	0	0
32256	0	0
32768	0	0
33792	0	0
34816	0	0
35840	0	0
36864	0	0
37888	0	0
38912	0	0
39936	0	0
40960	0	0
41984	0	0
43008	0	0
44032	0	0
45056	0	0
46080	0	0
47104	0	0
48128	0	0
49152	0	0
50176	0	0
51200	0	0
52224	0	0
53248	0	0
54272	0	0
55296	0	0
56320	0	0
57344	0	0
58368	0	0
59392	0	0
60416	0	0
61440	0	0
62464	0	0
63488	0	0
64512	0	0
65536	0	0
67584	0	0
69632	0	0
71680	0	0
73728	0	0
75776	0	0
77824	0	0
79872	0	0
81920	0	0
83968	0	0
86016	0	0
88064	0	0
90112	0	0
92160	0	0
94208	0	0
96256	0	0
98304	0	0
100352	0	0
102400	0	0
104448	0	0
106496	0	0
108544	0	0
110592	0	0
112640	0	0
114688	0	0
116736	0	0
118784	0	0
120832	0	0
122880	0	0
124928	0	0
126976	0	0
129024	0	0
131072	0	0
135168	0	0
139264	0	0
143360	0	0
147456	0	0
151552	0	0
155648	0	0
159744	0	0
163840	0	0
167936	0	0
172032	0	0
176128	0	0
180224	0	0
184320	0	0
188416	0	0
192512	0	0
196608	0	0
200704	0	0
204800	0	0
208896	0	0
212992	0	0
217088	0	0
221184	0	0
225280	0	0
229376	0	0
233472	0	0
237568	0	0
241664	0	0
245760	0	0
249856	0	0
253952	0	0
258048	0	0
262144	0	0
270336	0	0
278528	0	0
286720	0	0
294912	0	0
303104	0	0
311296	0	0
319488	0	0
327680	0	0
335872	0	0
344064	0	0
352256	0	0
360448	0	0
368640	0	0
376832	0	0
385024	0	0
393216	0	0
401408	0	0
409600	0	0
417792	0	0
425984	0	0
434176	0	0
442368	0	0
450560	0	0
458752	0	0
466944	0	0
475136	0	0
483328	0	0
491520	0	0
499712	0	0
507904	0	0
516096	0	0
524288	0	0
540672	0	0
557056	0	0
573440	0	0
589824	0	0
606208	0	0
622592	0	0
638976	0	0
655360	0	0
671744	0	0
688128	0	0
704512	0	0
720896	0	0
737280	0	0
753664	0	0
770048	0	0
786432	0	0
802816	0	0
819200	0	0
835584	0	0
851968	0	0
868352	0	0
884736	0	0
901120	0	0
917504	0	0
933888	0	0
950272	0	0
966656	0	0
983040	0	0
999424	0	0
1015808	0	0
1032192	0	0
1048576	0	0
1081344	0	0
1114112	0	0
1146880	0	0
1179648	0	0
1212416	0	0
1245184	0	0
1277952	0	0
1310720	0	0
1343488	0	0
1376256	0	0
1409024	0	0
1441792	0	0
1474560	0	0
1507328	0	0
1540096	0	0
1572864	0	0
1605632	0	0
1638400	0	0
1671168	0	0
1703936	0	0
1736704	0	0
1769472	0	0
1802240	0	0
1835008	0	0
1867776	0	0
1900544	0	0
1933312	0	0
1966080	0	0
1998848	0	0
2031616	0	0
2064384	0	0
2097152	0	0
2162688	0	0
2228224	0	0
2293760	0	0
2359296	0	0
2424832	0	0
2490368	0	0
2555904	0	0
2621440	0	0
2686976	0	0
2752512	0	0
2818048	0	0
2883584	0	0
2949120	0	0
3014656	0	0
3080192	0	0
3145728	0	0
3211264	0	0
3276800	0	0
3342336	0	0
3407872	0	0
3473408	0	0
3538944	0	0
3604480	0	0
3670016	0	0
3735552	0	0
3801088	0	0
3866624	0	0
3932160	0	0
3997696	0	0
4063232	0	0
4128768	0	0
4194304	0	0
4325376	0	0
4456448	0	0
4587520	0	0
4718592	0	0
4849664	0	0
4980736	0	0
5111808	0	0
5242880	0	0
5373952	0	0
5505024	0	0
5636096	0	0
5767168	0	0
5898240	0	0
6029312	0	0
6160384	0	0
6291456	0	0
6422528	0	0
6553600	0	0
6684672	0	0
6815744	0	0
6946816	0	0
7077888	0	0
7208960	0	0
7340032	0	0
7471104	0	0
7602176	0	0
7733248	0	0
7864320	0	0
7995392	0	0
8126464	0	0
8257536	0	0
8388608	0	0
8650752	0	0
8912896	0	0
9175040	0	0
9437184	0	0
9699328	0	0
9961472	0	0
10223616	0	0
10485760	0	0
10747904	0	0
11010048	0	0
11272192	0	0
11534336	0	0
11796480	0	0
12058624	0	0
12320768	0	0
12582912	0	0
12845056	0	0
13107200	0	0
13369344	0	0
13631488	0	0
13893632	0	0
14155776	0	0
14417920	0	0
14680064	0	0
14942208	0	0
15204352	0	0
15466496	0	0
15728640	0	0
15990784	0	0
16252928	0	0
16515072	0	0
16777216	0	0
17301504	0	0
17825792	0	0
18350080	0	0
18874368	0	0
19398656	0	0
19922944	0	0
20447232	0	0
20971520	0	0
21495808	0	0
22020096	0	0
22544384	0	0
23068672	0	0
23592960	0	0
24117248	0	0
24641536	0	0
25165824	0	0
25690112	0	0
26214400	0	0
26738688	0	0
27262976	0	0
27787264	0	0
28311552	0	0
28835840	0	0
29360128	0	0
29884416	0	0
30408704	0	0
30932992	0	0
31457280	0	0
31981568	0	0
32505856	0	0
33030144	0	0
33554432	0	0
34603008	0	0
35651584	0	0
36700160	0	0
37748736	0	0
38797312	0	0
39845888	0	0
40894464	0	0
41943040	0	0
42991616	0	0
44040192	0	0
45088768	0	0
46137344	0	0
47185920	0	0
48234496	0	0
49283072	0	0
50331648	0	0
51380224	0	0
52428800	0	0
53477376	0	0
54525952	0	0
55574528	0	0
56623104	0	0
57671680	0	0
58720256	0	0
59768832	0	0
60817408	0	0
61865984	0	0
62914560	0	0
63963136	0	0
65011712	0	0
66060288	0	0
67108864	0	0
69206016	0	0
71303168	0	0
73400320	0	0
75497472	0	0
77594624	0	0
79691776	0	0
81788928	0	0
83886080	0	0
85983232	0	0
88080384	0	0
90177536	0	0
92274688	0	0
94371840	0	0
96468992	0	0
98566144	0	0
100663296	0	0
102760448	0	0
104857600	0	0
106954752	0	0
109051904	0	0
111149056	0	0
113246208	0	0
115343360	0	0
117440512	0	0
119537664	0	0
121634816	0	0
123731968	0	0
125829120	0	0
127926272	0	0
130023424	0	0
132120576	0	0
134217728	0	0
138412032	0	0
142606336	0	0
146800640	0	0
150994944	0	0
155189248	0	0
159383552	0	0
163577856	0	0
167772160	0	0
171966464	0	0
176160768	0	0
180355072	0	0
184549376	0	0
188743680	0	0
192937984	0	0
197132288	0	0
201326592	0	0
205520896	0	0
209715200	0	0
213909504	0	0
218103808	0	0
222298112	0	0
226492416	0	0
230686720	0	0
234881024	0	0
239075328	0	0
243269632	0	0
247463936	0	0
251658240	0	0
255852544	0	0
260046848	0	0
264241152	0	0
268435456	0	0
276824064	0	0
285212672	0	0
293601280	0	0
301989888	0	0
310378496	0	0
318767104	0	0
327155712	0	0
335544320	0	0
343932928	0	0
352321536	0	0
360710144	0	0
369098752	0	0
377487360	0	0
385875968	0	0
394264576	0	0
402653184	0	0
411041792	0	0
419430400	0	0
427819008	0	0
436207616	0	0
444596224	0	0
452984832	0	0
461373440	0	0
469762048	0	0
478150656	0	0
486539264	0	0
494927872	0	0
503316480	0	0
511705088	0	0
520093696	0	0
528482304	0	0
536870912	0	0
553648128	0	0
570425344	0	0
587202560	0	0
603979776	0	0
620756992	0	0
637534208	0	0
654311424	0	0
671088640	0	0
687865856	0	0
704643072	0	0
721420288	0	0
738197504	0	0
754974720	0	0
771751936	0	0
788529152	0	0
805306368	0	0
822083584	0	0
838860800	0	0
855638016	0	0
872415232	0	0
889192448	0	0
905969664	0	0
922746880	0	0
939524096	0	0
956301312	0	0
973078528	0	0
989855744	0	0
1006632960	0	0
1023410176	0	0
1040187392	0	0
1056964608	0	0
1073741824	0	0
1107296256	0	0
1140850688	0	0
1174405120	0	0
1207959552	0	0
1241513984	0	0
1275068416	0	0
1308622848	0	0
1342177280	0	0
1375731712	0	0
1409286144	0	0
1442840576	0	0
1476395008	0	0
1509949440	0	0
1543503872	0	0
1577058304	0	0
1610612736	0	0
1644167168	0	0
1677721600	0	0
1711276032	0	0
1744830464	0	0
1778384896	0	0
1811939328	0	0
1845493760	0	0
1879048192	0	0
1912602624	0	0
1946157056	0	0
1979711488	0	0
2013265920	0	0
2046820352	0	0
2080374784	0	0
2113929216	0	0
2147483648	0	0
2214592512	0	0
2281701376	0	0
2348810240	0	0
2415919104	0	0
2483027968	0	0
2550136832	0	0
2617245696	0	0
2684354560	0	0
2751463424	0	0
2818572288	0	0
2885681152	0	0
2952790016	0	0
3019898880	0	0
3087007744	0	0
3154116608	0	0
3221225472	0	0
3288334336	0	0
3355443200	0	0
3422552064	0	0
3489660928	0	0
3556769792	0	0
3623878656	0	0
3690987520	0	0
3758096384	0	0
3825205248	0	0
3892314112	0	0
3959422976	0	0
4026531840	0	0
4093640704	0	0
4160749568	0	0
4227858432	0	0
~~~~~~~~~~Reuse Distance Profiler output end~~~~~~~~~~


DRAM Statistics
 CHANNEL 0
 RQ ROW_BUFFER_HIT:      88407  ROW_BUFFER_MISS:   20488654
 DBUS AVG_CONGESTED_CYCLE:    3.98291
 WQ ROW_BUFFER_HIT:     498857  ROW_BUFFER_MISS:    8298929  FULL:       3083


CPU 0 Branch Prediction Accuracy: 98.5949% MPKI: 0.266477 Average ROB Occupancy at Mispredict: 342.477
Branch type MPKI
BRANCH_DIRECT_JUMP: 2.2e-05
BRANCH_INDIRECT: 2e-06
BRANCH_CONDITIONAL: 0.266325
BRANCH_DIRECT_CALL: 6.66667e-05
BRANCH_INDIRECT_CALL: 0
BRANCH_RETURN: 6.2e-05

