
*** ChampSim Multicore Out-of-Order Simulator ***

Warmup Instructions: 50000000
Simulation Instructions: 1500000000
Number of CPUs: 1
Off-chip DRAM Size: 4 GiB Channels: 1 Width: 64-bit Data Rate: 3200 MT/s

VirtualMemory physical capacity: 8588881920 num_ppages: 2096895
VirtualMemory page size: 4096 log2_page_size: 12

CPU 0 runs traces/464.h264ref-30B.champsimtrace.xz
CPU 0 Bimodal branch predictor
Basic BTB sets: 1024 ways: 8 indirect buffer size: 4096 RAS size: 64
Initializing LRU.
Initializing LRU.
Initializing LRU.
Initializing LRU.
Initializing rdLRU.
Initializing LRU.
Initializing LRU.
Heartbeat CPU 0 instructions: 2000000 cycles: 963818 heartbeat IPC: 2.07508 cumulative IPC: 2.07508 (Simulation time: 0 hr 1 min 49 sec) 
Heartbeat CPU 0 instructions: 4000002 cycles: 1931060 heartbeat IPC: 2.06774 cumulative IPC: 2.0714 (Simulation time: 0 hr 3 min 31 sec) 
Heartbeat CPU 0 instructions: 6000003 cycles: 2953645 heartbeat IPC: 1.95583 cumulative IPC: 2.03139 (Simulation time: 0 hr 5 min 27 sec) 
Heartbeat CPU 0 instructions: 8000000 cycles: 3944829 heartbeat IPC: 2.01779 cumulative IPC: 2.02797 (Simulation time: 0 hr 7 min 35 sec) 
Heartbeat CPU 0 instructions: 10000002 cycles: 4910033 heartbeat IPC: 2.0721 cumulative IPC: 2.03665 (Simulation time: 0 hr 9 min 41 sec) 
Heartbeat CPU 0 instructions: 12000001 cycles: 5873843 heartbeat IPC: 2.0751 cumulative IPC: 2.04296 (Simulation time: 0 hr 11 min 46 sec) 
Heartbeat CPU 0 instructions: 14000002 cycles: 6837820 heartbeat IPC: 2.07474 cumulative IPC: 2.04744 (Simulation time: 0 hr 13 min 48 sec) 
Heartbeat CPU 0 instructions: 16000001 cycles: 7803057 heartbeat IPC: 2.07203 cumulative IPC: 2.05048 (Simulation time: 0 hr 15 min 55 sec) 
Heartbeat CPU 0 instructions: 18000001 cycles: 8768007 heartbeat IPC: 2.07265 cumulative IPC: 2.05292 (Simulation time: 0 hr 18 min 2 sec) 
Heartbeat CPU 0 instructions: 20000001 cycles: 9733255 heartbeat IPC: 2.07201 cumulative IPC: 2.05481 (Simulation time: 0 hr 19 min 56 sec) 
Heartbeat CPU 0 instructions: 22000003 cycles: 10638273 heartbeat IPC: 2.2099 cumulative IPC: 2.06801 (Simulation time: 0 hr 21 min 44 sec) 
Heartbeat CPU 0 instructions: 24000000 cycles: 11146846 heartbeat IPC: 3.93257 cumulative IPC: 2.15308 (Simulation time: 0 hr 22 min 29 sec) 
Heartbeat CPU 0 instructions: 26000001 cycles: 11657141 heartbeat IPC: 3.9193 cumulative IPC: 2.23039 (Simulation time: 0 hr 23 min 19 sec) 
Heartbeat CPU 0 instructions: 28000000 cycles: 12165234 heartbeat IPC: 3.93629 cumulative IPC: 2.30164 (Simulation time: 0 hr 24 min 8 sec) 
Heartbeat CPU 0 instructions: 30000001 cycles: 12675612 heartbeat IPC: 3.91867 cumulative IPC: 2.36675 (Simulation time: 0 hr 24 min 57 sec) 
Heartbeat CPU 0 instructions: 32000003 cycles: 13184863 heartbeat IPC: 3.92734 cumulative IPC: 2.42703 (Simulation time: 0 hr 25 min 47 sec) 
Heartbeat CPU 0 instructions: 34000001 cycles: 13692693 heartbeat IPC: 3.93832 cumulative IPC: 2.48308 (Simulation time: 0 hr 26 min 32 sec) 
Heartbeat CPU 0 instructions: 36000000 cycles: 14199740 heartbeat IPC: 3.94441 cumulative IPC: 2.53526 (Simulation time: 0 hr 27 min 19 sec) 
Heartbeat CPU 0 instructions: 38000003 cycles: 14777587 heartbeat IPC: 3.46113 cumulative IPC: 2.57146 (Simulation time: 0 hr 28 min 14 sec) 
Heartbeat CPU 0 instructions: 40000002 cycles: 15338027 heartbeat IPC: 3.56862 cumulative IPC: 2.6079 (Simulation time: 0 hr 29 min 9 sec) 
Heartbeat CPU 0 instructions: 42000001 cycles: 15977078 heartbeat IPC: 3.12964 cumulative IPC: 2.62877 (Simulation time: 0 hr 30 min 11 sec) 
Heartbeat CPU 0 instructions: 44000001 cycles: 16623950 heartbeat IPC: 3.0918 cumulative IPC: 2.64678 (Simulation time: 0 hr 31 min 10 sec) 
Heartbeat CPU 0 instructions: 46000003 cycles: 17287453 heartbeat IPC: 3.01431 cumulative IPC: 2.66089 (Simulation time: 0 hr 32 min 14 sec) 
Heartbeat CPU 0 instructions: 48000000 cycles: 17936832 heartbeat IPC: 3.07986 cumulative IPC: 2.67606 (Simulation time: 0 hr 33 min 17 sec) 
Heartbeat CPU 0 instructions: 50000001 cycles: 18596184 heartbeat IPC: 3.03328 cumulative IPC: 2.68872 (Simulation time: 0 hr 34 min 23 sec) 

Warmup complete CPU 0 instructions: 50000001 cycles: 18596184 (Simulation time: 0 hr 34 min 23 sec) 

Heartbeat CPU 0 instructions: 52000002 cycles: 19663979 heartbeat IPC: 1.87302 cumulative IPC: 1.87302 (Simulation time: 0 hr 35 min 20 sec) 

Region of Interest Statistics
cpu0_DTLB TOTAL     ACCESS:     434443  HIT:     434301  MISS:        142
cpu0_DTLB LOAD      ACCESS:     341002  HIT:     340917  MISS:         85
cpu0_DTLB RFO       ACCESS:      93441  HIT:      93384  MISS:         57
cpu0_DTLB PREFETCH  ACCESS:          0  HIT:          0  MISS:          0
cpu0_DTLB WRITEBACK ACCESS:          0  HIT:          0  MISS:          0
cpu0_ITLB TOTAL     ACCESS:     182282  HIT:     182282  MISS:          0
cpu0_ITLB LOAD      ACCESS:     182282  HIT:     182282  MISS:          0
cpu0_ITLB RFO       ACCESS:          0  HIT:          0  MISS:          0
cpu0_ITLB PREFETCH  ACCESS:          0  HIT:          0  MISS:          0
cpu0_ITLB WRITEBACK ACCESS:          0  HIT:          0  MISS:          0
cpu0_L1I TOTAL     ACCESS:      16660  HIT:      16660  MISS:          0
cpu0_L1I LOAD      ACCESS:      16660  HIT:      16660  MISS:          0
cpu0_L1I RFO       ACCESS:          0  HIT:          0  MISS:          0
cpu0_L1I PREFETCH  ACCESS:          0  HIT:          0  MISS:          0
cpu0_L1I WRITEBACK ACCESS:          0  HIT:          0  MISS:          0
cpu0_STLB TOTAL     ACCESS:        142  HIT:        133  MISS:          9
cpu0_STLB LOAD      ACCESS:         85  HIT:         79  MISS:          6
cpu0_STLB RFO       ACCESS:         57  HIT:         54  MISS:          3
cpu0_STLB PREFETCH  ACCESS:          0  HIT:          0  MISS:          0
cpu0_STLB WRITEBACK ACCESS:          0  HIT:          0  MISS:          0
cpu0_L1D TOTAL     ACCESS:     426092  HIT:     420472  MISS:       5620
cpu0_L1D LOAD      ACCESS:     293131  HIT:     289909  MISS:       3222
cpu0_L1D RFO       ACCESS:     132953  HIT:     130559  MISS:       2394
cpu0_L1D PREFETCH  ACCESS:          0  HIT:          0  MISS:          0
cpu0_L1D WRITEBACK ACCESS:          0  HIT:          0  MISS:          0
cpu0_L2C TOTAL     ACCESS:       8056  HIT:       5388  MISS:       2668
cpu0_L2C LOAD      ACCESS:       3222  HIT:       2899  MISS:        323
cpu0_L2C RFO       ACCESS:       2394  HIT:         50  MISS:       2344
cpu0_L2C PREFETCH  ACCESS:          0  HIT:          0  MISS:          0
cpu0_L2C WRITEBACK ACCESS:       2436  HIT:       2436  MISS:          0
LLC TOTAL     ACCESS:       4699  HIT:       4525  MISS:        174
LLC LOAD      ACCESS:        323  HIT:        174  MISS:        149
LLC RFO       ACCESS:       2344  HIT:       2319  MISS:         25
LLC PREFETCH  ACCESS:          0  HIT:          0  MISS:          0
LLC WRITEBACK ACCESS:       2031  HIT:       2031  MISS:          0
Heartbeat CPU 0 instructions: 54000003 cycles: 20721771 heartbeat IPC: 1.89073 cumulative IPC: 1.88183 (Simulation time: 0 hr 36 min 18 sec) 

Region of Interest Statistics
cpu0_DTLB TOTAL     ACCESS:     867038  HIT:     866354  MISS:        684
cpu0_DTLB LOAD      ACCESS:     679928  HIT:     679623  MISS:        305
cpu0_DTLB RFO       ACCESS:     187110  HIT:     186731  MISS:        379
cpu0_DTLB PREFETCH  ACCESS:          0  HIT:          0  MISS:          0
cpu0_DTLB WRITEBACK ACCESS:          0  HIT:          0  MISS:          0
cpu0_ITLB TOTAL     ACCESS:     364106  HIT:     364106  MISS:          0
cpu0_ITLB LOAD      ACCESS:     364106  HIT:     364106  MISS:          0
cpu0_ITLB RFO       ACCESS:          0  HIT:          0  MISS:          0
cpu0_ITLB PREFETCH  ACCESS:          0  HIT:          0  MISS:          0
cpu0_ITLB WRITEBACK ACCESS:          0  HIT:          0  MISS:          0
cpu0_L1I TOTAL     ACCESS:      32110  HIT:      32110  MISS:          0
cpu0_L1I LOAD      ACCESS:      32110  HIT:      32110  MISS:          0
cpu0_L1I RFO       ACCESS:          0  HIT:          0  MISS:          0
cpu0_L1I PREFETCH  ACCESS:          0  HIT:          0  MISS:          0
cpu0_L1I WRITEBACK ACCESS:          0  HIT:          0  MISS:          0
cpu0_STLB TOTAL     ACCESS:        684  HIT:        670  MISS:         14
cpu0_STLB LOAD      ACCESS:        305  HIT:        296  MISS:          9
cpu0_STLB RFO       ACCESS:        379  HIT:        374  MISS:          5
cpu0_STLB PREFETCH  ACCESS:          0  HIT:          0  MISS:          0
cpu0_STLB WRITEBACK ACCESS:          0  HIT:          0  MISS:          0
cpu0_L1D TOTAL     ACCESS:     851521  HIT:     840356  MISS:      11165
cpu0_L1D LOAD      ACCESS:     585816  HIT:     579451  MISS:       6365
cpu0_L1D RFO       ACCESS:     265692  HIT:     260899  MISS:       4793
cpu0_L1D PREFETCH  ACCESS:          0  HIT:          0  MISS:          0
cpu0_L1D WRITEBACK ACCESS:          0  HIT:          0  MISS:          0
cpu0_L2C TOTAL     ACCESS:      16233  HIT:      10909  MISS:       5324
cpu0_L2C LOAD      ACCESS:       6365  HIT:       5743  MISS:        622
cpu0_L2C RFO       ACCESS:       4793  HIT:         92  MISS:       4701
cpu0_L2C PREFETCH  ACCESS:          0  HIT:          0  MISS:          0
cpu0_L2C WRITEBACK ACCESS:       5068  HIT:       5068  MISS:          0
LLC TOTAL     ACCESS:       9573  HIT:       9271  MISS:        302
LLC LOAD      ACCESS:        622  HIT:        345  MISS:        277
LLC RFO       ACCESS:       4701  HIT:       4676  MISS:         25
LLC PREFETCH  ACCESS:          0  HIT:          0  MISS:          0
LLC WRITEBACK ACCESS:       4249  HIT:       4249  MISS:          0
Heartbeat CPU 0 instructions: 56000002 cycles: 21862505 heartbeat IPC: 1.75326 cumulative IPC: 1.83693 (Simulation time: 0 hr 37 min 16 sec) 

Region of Interest Statistics
cpu0_DTLB TOTAL     ACCESS:    1313743  HIT:    1313055  MISS:        688
cpu0_DTLB LOAD      ACCESS:    1035638  HIT:    1035330  MISS:        308
cpu0_DTLB RFO       ACCESS:     278105  HIT:     277725  MISS:        380
cpu0_DTLB PREFETCH  ACCESS:          0  HIT:          0  MISS:          0
cpu0_DTLB WRITEBACK ACCESS:          0  HIT:          0  MISS:          0
cpu0_ITLB TOTAL     ACCESS:     543493  HIT:     543493  MISS:          0
cpu0_ITLB LOAD      ACCESS:     543493  HIT:     543493  MISS:          0
cpu0_ITLB RFO       ACCESS:          0  HIT:          0  MISS:          0
cpu0_ITLB PREFETCH  ACCESS:          0  HIT:          0  MISS:          0
cpu0_ITLB WRITEBACK ACCESS:          0  HIT:          0  MISS:          0
cpu0_L1I TOTAL     ACCESS:      41874  HIT:      41874  MISS:          0
cpu0_L1I LOAD      ACCESS:      41874  HIT:      41874  MISS:          0
cpu0_L1I RFO       ACCESS:          0  HIT:          0  MISS:          0
cpu0_L1I PREFETCH  ACCESS:          0  HIT:          0  MISS:          0
cpu0_L1I WRITEBACK ACCESS:          0  HIT:          0  MISS:          0
cpu0_STLB TOTAL     ACCESS:        688  HIT:        674  MISS:         14
cpu0_STLB LOAD      ACCESS:        308  HIT:        299  MISS:          9
cpu0_STLB RFO       ACCESS:        380  HIT:        375  MISS:          5
cpu0_STLB PREFETCH  ACCESS:          0  HIT:          0  MISS:          0
cpu0_STLB WRITEBACK ACCESS:          0  HIT:          0  MISS:          0
cpu0_L1D TOTAL     ACCESS:    1308803  HIT:    1296777  MISS:      12026
cpu0_L1D LOAD      ACCESS:     905968  HIT:     899461  MISS:       6507
cpu0_L1D RFO       ACCESS:     402822  HIT:     397310  MISS:       5512
cpu0_L1D PREFETCH  ACCESS:          0  HIT:          0  MISS:          0
cpu0_L1D WRITEBACK ACCESS:          0  HIT:          0  MISS:          0
cpu0_L2C TOTAL     ACCESS:      17595  HIT:      11500  MISS:       6095
cpu0_L2C LOAD      ACCESS:       6507  HIT:       5833  MISS:        674
cpu0_L2C RFO       ACCESS:       5512  HIT:         92  MISS:       5420
cpu0_L2C PREFETCH  ACCESS:          0  HIT:          0  MISS:          0
cpu0_L2C WRITEBACK ACCESS:       5569  HIT:       5569  MISS:          0
LLC TOTAL     ACCESS:      11011  HIT:      10709  MISS:        302
LLC LOAD      ACCESS:        674  HIT:        397  MISS:        277
LLC RFO       ACCESS:       5420  HIT:       5395  MISS:         25
LLC PREFETCH  ACCESS:          0  HIT:          0  MISS:          0
LLC WRITEBACK ACCESS:       4916  HIT:       4916  MISS:          0
Heartbeat CPU 0 instructions: 58000004 cycles: 22920354 heartbeat IPC: 1.89063 cumulative IPC: 1.85007 (Simulation time: 0 hr 38 min 11 sec) 

Region of Interest Statistics
cpu0_DTLB TOTAL     ACCESS:    1747784  HIT:    1746948  MISS:        836
cpu0_DTLB LOAD      ACCESS:    1376979  HIT:    1376580  MISS:        399
cpu0_DTLB RFO       ACCESS:     370805  HIT:     370368  MISS:        437
cpu0_DTLB PREFETCH  ACCESS:          0  HIT:          0  MISS:          0
cpu0_DTLB WRITEBACK ACCESS:          0  HIT:          0  MISS:          0
cpu0_ITLB TOTAL     ACCESS:     724561  HIT:     724561  MISS:          0
cpu0_ITLB LOAD      ACCESS:     724561  HIT:     724561  MISS:          0
cpu0_ITLB RFO       ACCESS:          0  HIT:          0  MISS:          0
cpu0_ITLB PREFETCH  ACCESS:          0  HIT:          0  MISS:          0
cpu0_ITLB WRITEBACK ACCESS:          0  HIT:          0  MISS:          0
cpu0_L1I TOTAL     ACCESS:      57655  HIT:      57655  MISS:          0
cpu0_L1I LOAD      ACCESS:      57655  HIT:      57655  MISS:          0
cpu0_L1I RFO       ACCESS:          0  HIT:          0  MISS:          0
cpu0_L1I PREFETCH  ACCESS:          0  HIT:          0  MISS:          0
cpu0_L1I WRITEBACK ACCESS:          0  HIT:          0  MISS:          0
cpu0_STLB TOTAL     ACCESS:        836  HIT:        817  MISS:         19
cpu0_STLB LOAD      ACCESS:        399  HIT:        389  MISS:         10
cpu0_STLB RFO       ACCESS:        437  HIT:        428  MISS:          9
cpu0_STLB PREFETCH  ACCESS:          0  HIT:          0  MISS:          0
cpu0_STLB WRITEBACK ACCESS:          0  HIT:          0  MISS:          0
cpu0_L1D TOTAL     ACCESS:    1734030  HIT:    1716436  MISS:      17594
cpu0_L1D LOAD      ACCESS:    1199373  HIT:    1189705  MISS:       9668
cpu0_L1D RFO       ACCESS:     534639  HIT:     526722  MISS:       7917
cpu0_L1D PREFETCH  ACCESS:          0  HIT:          0  MISS:          0
cpu0_L1D WRITEBACK ACCESS:          0  HIT:          0  MISS:          0
cpu0_L2C TOTAL     ACCESS:      25753  HIT:      17004  MISS:       8749
cpu0_L2C LOAD      ACCESS:       9668  HIT:       8703  MISS:        965
cpu0_L2C RFO       ACCESS:       7917  HIT:        134  MISS:       7783
cpu0_L2C PREFETCH  ACCESS:          0  HIT:          0  MISS:          0
cpu0_L2C WRITEBACK ACCESS:       8159  HIT:       8159  MISS:          0
LLC TOTAL     ACCESS:      15848  HIT:      15414  MISS:        434
LLC LOAD      ACCESS:        965  HIT:        563  MISS:        402
LLC RFO       ACCESS:       7783  HIT:       7751  MISS:         32
LLC PREFETCH  ACCESS:          0  HIT:          0  MISS:          0
LLC WRITEBACK ACCESS:       7099  HIT:       7099  MISS:          0
Heartbeat CPU 0 instructions: 60000003 cycles: 24050411 heartbeat IPC: 1.76982 cumulative IPC: 1.83344 (Simulation time: 0 hr 39 min 2 sec) 

Region of Interest Statistics
cpu0_DTLB TOTAL     ACCESS:    2191406  HIT:    2190567  MISS:        839
cpu0_DTLB LOAD      ACCESS:    1728993  HIT:    1728592  MISS:        401
cpu0_DTLB RFO       ACCESS:     462413  HIT:     461975  MISS:        438
cpu0_DTLB PREFETCH  ACCESS:          0  HIT:          0  MISS:          0
cpu0_DTLB WRITEBACK ACCESS:          0  HIT:          0  MISS:          0
cpu0_ITLB TOTAL     ACCESS:     904491  HIT:     904491  MISS:          0
cpu0_ITLB LOAD      ACCESS:     904491  HIT:     904491  MISS:          0
cpu0_ITLB RFO       ACCESS:          0  HIT:          0  MISS:          0
cpu0_ITLB PREFETCH  ACCESS:          0  HIT:          0  MISS:          0
cpu0_ITLB WRITEBACK ACCESS:          0  HIT:          0  MISS:          0
cpu0_L1I TOTAL     ACCESS:      66820  HIT:      66820  MISS:          0
cpu0_L1I LOAD      ACCESS:      66820  HIT:      66820  MISS:          0
cpu0_L1I RFO       ACCESS:          0  HIT:          0  MISS:          0
cpu0_L1I PREFETCH  ACCESS:          0  HIT:          0  MISS:          0
cpu0_L1I WRITEBACK ACCESS:          0  HIT:          0  MISS:          0
cpu0_STLB TOTAL     ACCESS:        839  HIT:        820  MISS:         19
cpu0_STLB LOAD      ACCESS:        401  HIT:        391  MISS:         10
cpu0_STLB RFO       ACCESS:        438  HIT:        429  MISS:          9
cpu0_STLB PREFETCH  ACCESS:          0  HIT:          0  MISS:          0
cpu0_STLB WRITEBACK ACCESS:          0  HIT:          0  MISS:          0
cpu0_L1D TOTAL     ACCESS:    2188782  HIT:    2170345  MISS:      18437
cpu0_L1D LOAD      ACCESS:    1515874  HIT:    1506071  MISS:       9803
cpu0_L1D RFO       ACCESS:     672890  HIT:     664265  MISS:       8625
cpu0_L1D PREFETCH  ACCESS:          0  HIT:          0  MISS:          0
cpu0_L1D WRITEBACK ACCESS:          0  HIT:          0  MISS:          0
cpu0_L2C TOTAL     ACCESS:      27151  HIT:      17649  MISS:       9502
cpu0_L2C LOAD      ACCESS:       9803  HIT:       8793  MISS:       1010
cpu0_L2C RFO       ACCESS:       8625  HIT:        134  MISS:       8491
cpu0_L2C PREFETCH  ACCESS:          0  HIT:          0  MISS:          0
cpu0_L2C WRITEBACK ACCESS:       8714  HIT:       8714  MISS:          0
LLC TOTAL     ACCESS:      17240  HIT:      16785  MISS:        455
LLC LOAD      ACCESS:       1010  HIT:        608  MISS:        402
LLC RFO       ACCESS:       8491  HIT:       8438  MISS:         53
LLC PREFETCH  ACCESS:          0  HIT:          0  MISS:          0
LLC WRITEBACK ACCESS:       7738  HIT:       7738  MISS:          0
Heartbeat CPU 0 instructions: 62000000 cycles: 25120497 heartbeat IPC: 1.86901 cumulative IPC: 1.83927 (Simulation time: 0 hr 39 min 58 sec) 

Region of Interest Statistics
cpu0_DTLB TOTAL     ACCESS:    2627469  HIT:    2626478  MISS:        991
cpu0_DTLB LOAD      ACCESS:    2073023  HIT:    2072527  MISS:        496
cpu0_DTLB RFO       ACCESS:     554446  HIT:     553951  MISS:        495
cpu0_DTLB PREFETCH  ACCESS:          0  HIT:          0  MISS:          0
cpu0_DTLB WRITEBACK ACCESS:          0  HIT:          0  MISS:          0
cpu0_ITLB TOTAL     ACCESS:    1085309  HIT:    1085309  MISS:          0
cpu0_ITLB LOAD      ACCESS:    1085309  HIT:    1085309  MISS:          0
cpu0_ITLB RFO       ACCESS:          0  HIT:          0  MISS:          0
cpu0_ITLB PREFETCH  ACCESS:          0  HIT:          0  MISS:          0
cpu0_ITLB WRITEBACK ACCESS:          0  HIT:          0  MISS:          0
cpu0_L1I TOTAL     ACCESS:      82761  HIT:      82761  MISS:          0
cpu0_L1I LOAD      ACCESS:      82761  HIT:      82761  MISS:          0
cpu0_L1I RFO       ACCESS:          0  HIT:          0  MISS:          0
cpu0_L1I PREFETCH  ACCESS:          0  HIT:          0  MISS:          0
cpu0_L1I WRITEBACK ACCESS:          0  HIT:          0  MISS:          0
cpu0_STLB TOTAL     ACCESS:        991  HIT:        966  MISS:         25
cpu0_STLB LOAD      ACCESS:        496  HIT:        484  MISS:         12
cpu0_STLB RFO       ACCESS:        495  HIT:        482  MISS:         13
cpu0_STLB PREFETCH  ACCESS:          0  HIT:          0  MISS:          0
cpu0_STLB WRITEBACK ACCESS:          0  HIT:          0  MISS:          0
cpu0_L1D TOTAL     ACCESS:    2616076  HIT:    2592013  MISS:      24063
cpu0_L1D LOAD      ACCESS:    1812006  HIT:    1798990  MISS:      13016
cpu0_L1D RFO       ACCESS:     804046  HIT:     793012  MISS:      11034
cpu0_L1D PREFETCH  ACCESS:          0  HIT:          0  MISS:          0
cpu0_L1D WRITEBACK ACCESS:          0  HIT:          0  MISS:          0
cpu0_L2C TOTAL     ACCESS:      35227  HIT:      23048  MISS:      12179
cpu0_L2C LOAD      ACCESS:      13016  HIT:      11696  MISS:       1320
cpu0_L2C RFO       ACCESS:      11034  HIT:        176  MISS:      10858
cpu0_L2C PREFETCH  ACCESS:          0  HIT:          0  MISS:          0
cpu0_L2C WRITEBACK ACCESS:      11164  HIT:      11164  MISS:          0
LLC TOTAL     ACCESS:      22251  HIT:      21666  MISS:        585
LLC LOAD      ACCESS:       1320  HIT:        794  MISS:        526
LLC RFO       ACCESS:      10858  HIT:      10799  MISS:         59
LLC PREFETCH  ACCESS:          0  HIT:          0  MISS:          0
LLC WRITEBACK ACCESS:      10072  HIT:      10072  MISS:          0
Heartbeat CPU 0 instructions: 64000000 cycles: 26177082 heartbeat IPC: 1.89289 cumulative IPC: 1.84675 (Simulation time: 0 hr 40 min 44 sec) 

Region of Interest Statistics
cpu0_DTLB TOTAL     ACCESS:    3058985  HIT:    3057842  MISS:       1143
cpu0_DTLB LOAD      ACCESS:    2410382  HIT:    2409792  MISS:        590
cpu0_DTLB RFO       ACCESS:     648603  HIT:     648050  MISS:        553
cpu0_DTLB PREFETCH  ACCESS:          0  HIT:          0  MISS:          0
cpu0_DTLB WRITEBACK ACCESS:          0  HIT:          0  MISS:          0
cpu0_ITLB TOTAL     ACCESS:    1268280  HIT:    1268280  MISS:          0
cpu0_ITLB LOAD      ACCESS:    1268280  HIT:    1268280  MISS:          0
cpu0_ITLB RFO       ACCESS:          0  HIT:          0  MISS:          0
cpu0_ITLB PREFETCH  ACCESS:          0  HIT:          0  MISS:          0
cpu0_ITLB WRITEBACK ACCESS:          0  HIT:          0  MISS:          0
cpu0_L1I TOTAL     ACCESS:      97532  HIT:      97532  MISS:          0
cpu0_L1I LOAD      ACCESS:      97532  HIT:      97532  MISS:          0
cpu0_L1I RFO       ACCESS:          0  HIT:          0  MISS:          0
cpu0_L1I PREFETCH  ACCESS:          0  HIT:          0  MISS:          0
cpu0_L1I WRITEBACK ACCESS:          0  HIT:          0  MISS:          0
cpu0_STLB TOTAL     ACCESS:       1143  HIT:       1107  MISS:         36
cpu0_STLB LOAD      ACCESS:        590  HIT:        571  MISS:         19
cpu0_STLB RFO       ACCESS:        553  HIT:        536  MISS:         17
cpu0_STLB PREFETCH  ACCESS:          0  HIT:          0  MISS:          0
cpu0_STLB WRITEBACK ACCESS:          0  HIT:          0  MISS:          0
cpu0_L1D TOTAL     ACCESS:    3037998  HIT:    3008375  MISS:      29623
cpu0_L1D LOAD      ACCESS:    2100532  HIT:    2084355  MISS:      16177
cpu0_L1D RFO       ACCESS:     937431  HIT:     924003  MISS:      13428
cpu0_L1D PREFETCH  ACCESS:          0  HIT:          0  MISS:          0
cpu0_L1D WRITEBACK ACCESS:          0  HIT:          0  MISS:          0
cpu0_L2C TOTAL     ACCESS:      43405  HIT:      28597  MISS:      14808
cpu0_L2C LOAD      ACCESS:      16177  HIT:      14581  MISS:       1596
cpu0_L2C RFO       ACCESS:      13428  HIT:        218  MISS:      13210
cpu0_L2C PREFETCH  ACCESS:          0  HIT:          0  MISS:          0
cpu0_L2C WRITEBACK ACCESS:      13782  HIT:      13782  MISS:          0
LLC TOTAL     ACCESS:      27255  HIT:      26531  MISS:        724
LLC LOAD      ACCESS:       1596  HIT:        951  MISS:        645
LLC RFO       ACCESS:      13210  HIT:      13131  MISS:         79
LLC PREFETCH  ACCESS:          0  HIT:          0  MISS:          0
LLC WRITEBACK ACCESS:      12447  HIT:      12447  MISS:          0
Heartbeat CPU 0 instructions: 66000001 cycles: 27317608 heartbeat IPC: 1.75358 cumulative IPC: 1.83456 (Simulation time: 0 hr 41 min 31 sec) 

Region of Interest Statistics
cpu0_DTLB TOTAL     ACCESS:    3505607  HIT:    3504460  MISS:       1147
cpu0_DTLB LOAD      ACCESS:    2765938  HIT:    2765345  MISS:        593
cpu0_DTLB RFO       ACCESS:     739669  HIT:     739115  MISS:        554
cpu0_DTLB PREFETCH  ACCESS:          0  HIT:          0  MISS:          0
cpu0_DTLB WRITEBACK ACCESS:          0  HIT:          0  MISS:          0
cpu0_ITLB TOTAL     ACCESS:    1447809  HIT:    1447809  MISS:          0
cpu0_ITLB LOAD      ACCESS:    1447809  HIT:    1447809  MISS:          0
cpu0_ITLB RFO       ACCESS:          0  HIT:          0  MISS:          0
cpu0_ITLB PREFETCH  ACCESS:          0  HIT:          0  MISS:          0
cpu0_ITLB WRITEBACK ACCESS:          0  HIT:          0  MISS:          0
cpu0_L1I TOTAL     ACCESS:     107305  HIT:     107305  MISS:          0
cpu0_L1I LOAD      ACCESS:     107305  HIT:     107305  MISS:          0
cpu0_L1I RFO       ACCESS:          0  HIT:          0  MISS:          0
cpu0_L1I PREFETCH  ACCESS:          0  HIT:          0  MISS:          0
cpu0_L1I WRITEBACK ACCESS:          0  HIT:          0  MISS:          0
cpu0_STLB TOTAL     ACCESS:       1147  HIT:       1110  MISS:         37
cpu0_STLB LOAD      ACCESS:        593  HIT:        573  MISS:         20
cpu0_STLB RFO       ACCESS:        554  HIT:        537  MISS:         17
cpu0_STLB PREFETCH  ACCESS:          0  HIT:          0  MISS:          0
cpu0_STLB WRITEBACK ACCESS:          0  HIT:          0  MISS:          0
cpu0_L1D TOTAL     ACCESS:    3494820  HIT:    3464340  MISS:      30480
cpu0_L1D LOAD      ACCESS:    2420076  HIT:    2403758  MISS:      16318
cpu0_L1D RFO       ACCESS:    1074708  HIT:    1060564  MISS:      14144
cpu0_L1D PREFETCH  ACCESS:          0  HIT:          0  MISS:          0
cpu0_L1D WRITEBACK ACCESS:          0  HIT:          0  MISS:          0
cpu0_L2C TOTAL     ACCESS:      44774  HIT:      29194  MISS:      15580
cpu0_L2C LOAD      ACCESS:      16318  HIT:      14666  MISS:       1652
cpu0_L2C RFO       ACCESS:      14144  HIT:        218  MISS:      13926
cpu0_L2C PREFETCH  ACCESS:          0  HIT:          0  MISS:          0
cpu0_L2C WRITEBACK ACCESS:      14294  HIT:      14294  MISS:          0
LLC TOTAL     ACCESS:      28722  HIT:      27998  MISS:        724
LLC LOAD      ACCESS:       1652  HIT:       1007  MISS:        645
LLC RFO       ACCESS:      13926  HIT:      13847  MISS:         79
LLC PREFETCH  ACCESS:          0  HIT:          0  MISS:          0
LLC WRITEBACK ACCESS:      13142  HIT:      13142  MISS:          0
Heartbeat CPU 0 instructions: 68000004 cycles: 28373184 heartbeat IPC: 1.8947 cumulative IPC: 1.84106 (Simulation time: 0 hr 42 min 27 sec) 

Region of Interest Statistics
cpu0_DTLB TOTAL     ACCESS:    3938946  HIT:    3937647  MISS:       1299
cpu0_DTLB LOAD      ACCESS:    3106215  HIT:    3105526  MISS:        689
cpu0_DTLB RFO       ACCESS:     832731  HIT:     832121  MISS:        610
cpu0_DTLB PREFETCH  ACCESS:          0  HIT:          0  MISS:          0
cpu0_DTLB WRITEBACK ACCESS:          0  HIT:          0  MISS:          0
cpu0_ITLB TOTAL     ACCESS:    1629074  HIT:    1629074  MISS:          0
cpu0_ITLB LOAD      ACCESS:    1629074  HIT:    1629074  MISS:          0
cpu0_ITLB RFO       ACCESS:          0  HIT:          0  MISS:          0
cpu0_ITLB PREFETCH  ACCESS:          0  HIT:          0  MISS:          0
cpu0_ITLB WRITEBACK ACCESS:          0  HIT:          0  MISS:          0
cpu0_L1I TOTAL     ACCESS:     123270  HIT:     123270  MISS:          0
cpu0_L1I LOAD      ACCESS:     123270  HIT:     123270  MISS:          0
cpu0_L1I RFO       ACCESS:          0  HIT:          0  MISS:          0
cpu0_L1I PREFETCH  ACCESS:          0  HIT:          0  MISS:          0
cpu0_L1I WRITEBACK ACCESS:          0  HIT:          0  MISS:          0
cpu0_STLB TOTAL     ACCESS:       1299  HIT:       1258  MISS:         41
cpu0_STLB LOAD      ACCESS:        689  HIT:        669  MISS:         20
cpu0_STLB RFO       ACCESS:        610  HIT:        589  MISS:         21
cpu0_STLB PREFETCH  ACCESS:          0  HIT:          0  MISS:          0
cpu0_STLB WRITEBACK ACCESS:          0  HIT:          0  MISS:          0
cpu0_L1D TOTAL     ACCESS:    3918996  HIT:    3882966  MISS:      36030
cpu0_L1D LOAD      ACCESS:    2712262  HIT:    2692798  MISS:      19464
cpu0_L1D RFO       ACCESS:    1206694  HIT:    1190149  MISS:      16545
cpu0_L1D PREFETCH  ACCESS:          0  HIT:          0  MISS:          0
cpu0_L1D WRITEBACK ACCESS:          0  HIT:          0  MISS:          0
cpu0_L2C TOTAL     ACCESS:      52910  HIT:      34664  MISS:      18246
cpu0_L2C LOAD      ACCESS:      19464  HIT:      17505  MISS:       1959
cpu0_L2C RFO       ACCESS:      16545  HIT:        260  MISS:      16285
cpu0_L2C PREFETCH  ACCESS:          0  HIT:          0  MISS:          0
cpu0_L2C WRITEBACK ACCESS:      16880  HIT:      16880  MISS:          0
LLC TOTAL     ACCESS:      33776  HIT:      32904  MISS:        872
LLC LOAD      ACCESS:       1959  HIT:       1189  MISS:        770
LLC RFO       ACCESS:      16285  HIT:      16183  MISS:        102
LLC PREFETCH  ACCESS:          0  HIT:          0  MISS:          0
LLC WRITEBACK ACCESS:      15530  HIT:      15530  MISS:          0
Heartbeat CPU 0 instructions: 70000001 cycles: 29502741 heartbeat IPC: 1.7706 cumulative IPC: 1.83376 (Simulation time: 0 hr 43 min 19 sec) 

Region of Interest Statistics
cpu0_DTLB TOTAL     ACCESS:    4382477  HIT:    4381175  MISS:       1302
cpu0_DTLB LOAD      ACCESS:    3458394  HIT:    3457703  MISS:        691
cpu0_DTLB RFO       ACCESS:     924083  HIT:     923472  MISS:        611
cpu0_DTLB PREFETCH  ACCESS:          0  HIT:          0  MISS:          0
cpu0_DTLB WRITEBACK ACCESS:          0  HIT:          0  MISS:          0
cpu0_ITLB TOTAL     ACCESS:    1808604  HIT:    1808604  MISS:          0
cpu0_ITLB LOAD      ACCESS:    1808604  HIT:    1808604  MISS:          0
cpu0_ITLB RFO       ACCESS:          0  HIT:          0  MISS:          0
cpu0_ITLB PREFETCH  ACCESS:          0  HIT:          0  MISS:          0
cpu0_ITLB WRITEBACK ACCESS:          0  HIT:          0  MISS:          0
cpu0_L1I TOTAL     ACCESS:     132567  HIT:     132567  MISS:          0
cpu0_L1I LOAD      ACCESS:     132567  HIT:     132567  MISS:          0
cpu0_L1I RFO       ACCESS:          0  HIT:          0  MISS:          0
cpu0_L1I PREFETCH  ACCESS:          0  HIT:          0  MISS:          0
cpu0_L1I WRITEBACK ACCESS:          0  HIT:          0  MISS:          0
cpu0_STLB TOTAL     ACCESS:       1302  HIT:       1261  MISS:         41
cpu0_STLB LOAD      ACCESS:        691  HIT:        671  MISS:         20
cpu0_STLB RFO       ACCESS:        611  HIT:        590  MISS:         21
cpu0_STLB PREFETCH  ACCESS:          0  HIT:          0  MISS:          0
cpu0_STLB WRITEBACK ACCESS:          0  HIT:          0  MISS:          0
cpu0_L1D TOTAL     ACCESS:    4373464  HIT:    4336586  MISS:      36878
cpu0_L1D LOAD      ACCESS:    3028802  HIT:    3009203  MISS:      19599
cpu0_L1D RFO       ACCESS:    1344622  HIT:    1327364  MISS:      17258
cpu0_L1D PREFETCH  ACCESS:          0  HIT:          0  MISS:          0
cpu0_L1D WRITEBACK ACCESS:          0  HIT:          0  MISS:          0
cpu0_L2C TOTAL     ACCESS:      54317  HIT:      35297  MISS:      19020
cpu0_L2C LOAD      ACCESS:      19599  HIT:      17579  MISS:       2020
cpu0_L2C RFO       ACCESS:      17258  HIT:        260  MISS:      16998
cpu0_L2C PREFETCH  ACCESS:          0  HIT:          0  MISS:          0
cpu0_L2C WRITEBACK ACCESS:      17439  HIT:      17439  MISS:          0
LLC TOTAL     ACCESS:      35231  HIT:      34354  MISS:        877
LLC LOAD      ACCESS:       2020  HIT:       1247  MISS:        773
LLC RFO       ACCESS:      16998  HIT:      16894  MISS:        104
LLC PREFETCH  ACCESS:          0  HIT:          0  MISS:          0
LLC WRITEBACK ACCESS:      16211  HIT:      16211  MISS:          0
Heartbeat CPU 0 instructions: 72000002 cycles: 30573107 heartbeat IPC: 1.86852 cumulative IPC: 1.83687 (Simulation time: 0 hr 44 min 7 sec) 

Region of Interest Statistics
cpu0_DTLB TOTAL     ACCESS:    4818567  HIT:    4817102  MISS:       1465
cpu0_DTLB LOAD      ACCESS:    3801834  HIT:    3801041  MISS:        793
cpu0_DTLB RFO       ACCESS:    1016733  HIT:    1016061  MISS:        672
cpu0_DTLB PREFETCH  ACCESS:          0  HIT:          0  MISS:          0
cpu0_DTLB WRITEBACK ACCESS:          0  HIT:          0  MISS:          0
cpu0_ITLB TOTAL     ACCESS:    1989782  HIT:    1989782  MISS:          0
cpu0_ITLB LOAD      ACCESS:    1989782  HIT:    1989782  MISS:          0
cpu0_ITLB RFO       ACCESS:          0  HIT:          0  MISS:          0
cpu0_ITLB PREFETCH  ACCESS:          0  HIT:          0  MISS:          0
cpu0_ITLB WRITEBACK ACCESS:          0  HIT:          0  MISS:          0
cpu0_L1I TOTAL     ACCESS:     149384  HIT:     149384  MISS:          0
cpu0_L1I LOAD      ACCESS:     149384  HIT:     149384  MISS:          0
cpu0_L1I RFO       ACCESS:          0  HIT:          0  MISS:          0
cpu0_L1I PREFETCH  ACCESS:          0  HIT:          0  MISS:          0
cpu0_L1I WRITEBACK ACCESS:          0  HIT:          0  MISS:          0
cpu0_STLB TOTAL     ACCESS:       1465  HIT:       1412  MISS:         53
cpu0_STLB LOAD      ACCESS:        793  HIT:        766  MISS:         27
cpu0_STLB RFO       ACCESS:        672  HIT:        646  MISS:         26
cpu0_STLB PREFETCH  ACCESS:          0  HIT:          0  MISS:          0
cpu0_STLB WRITEBACK ACCESS:          0  HIT:          0  MISS:          0
cpu0_L1D TOTAL     ACCESS:    4801336  HIT:    4758853  MISS:      42483
cpu0_L1D LOAD      ACCESS:    3324982  HIT:    3302185  MISS:      22797
cpu0_L1D RFO       ACCESS:    1476302  HIT:    1456642  MISS:      19660
cpu0_L1D PREFETCH  ACCESS:          0  HIT:          0  MISS:          0
cpu0_L1D WRITEBACK ACCESS:          0  HIT:          0  MISS:          0
cpu0_L2C TOTAL     ACCESS:      62362  HIT:      40671  MISS:      21691
cpu0_L2C LOAD      ACCESS:      22797  HIT:      20466  MISS:       2331
cpu0_L2C RFO       ACCESS:      19660  HIT:        302  MISS:      19358
cpu0_L2C PREFETCH  ACCESS:          0  HIT:          0  MISS:          0
cpu0_L2C WRITEBACK ACCESS:      19879  HIT:      19879  MISS:          0
LLC TOTAL     ACCESS:      40330  HIT:      39250  MISS:       1080
LLC LOAD      ACCESS:       2331  HIT:       1429  MISS:        902
LLC RFO       ACCESS:      19358  HIT:      19180  MISS:        178
LLC PREFETCH  ACCESS:          0  HIT:          0  MISS:          0
LLC WRITEBACK ACCESS:      18639  HIT:      18639  MISS:          0
Heartbeat CPU 0 instructions: 74000000 cycles: 31611700 heartbeat IPC: 1.92568 cumulative IPC: 1.84395 (Simulation time: 0 hr 44 min 58 sec) 

Region of Interest Statistics
cpu0_DTLB TOTAL     ACCESS:    5244852  HIT:    5243137  MISS:       1715
cpu0_DTLB LOAD      ACCESS:    4129929  HIT:    4128933  MISS:        996
cpu0_DTLB RFO       ACCESS:    1114923  HIT:    1114204  MISS:        719
cpu0_DTLB PREFETCH  ACCESS:          0  HIT:          0  MISS:          0
cpu0_DTLB WRITEBACK ACCESS:          0  HIT:          0  MISS:          0
cpu0_ITLB TOTAL     ACCESS:    2175578  HIT:    2175578  MISS:          0
cpu0_ITLB LOAD      ACCESS:    2175578  HIT:    2175578  MISS:          0
cpu0_ITLB RFO       ACCESS:          0  HIT:          0  MISS:          0
cpu0_ITLB PREFETCH  ACCESS:          0  HIT:          0  MISS:          0
cpu0_ITLB WRITEBACK ACCESS:          0  HIT:          0  MISS:          0
cpu0_L1I TOTAL     ACCESS:     177178  HIT:     177149  MISS:         29
cpu0_L1I LOAD      ACCESS:     177178  HIT:     177149  MISS:         29
cpu0_L1I RFO       ACCESS:          0  HIT:          0  MISS:          0
cpu0_L1I PREFETCH  ACCESS:          0  HIT:          0  MISS:          0
cpu0_L1I WRITEBACK ACCESS:          0  HIT:          0  MISS:          0
cpu0_STLB TOTAL     ACCESS:       1715  HIT:       1646  MISS:         69
cpu0_STLB LOAD      ACCESS:        996  HIT:        956  MISS:         40
cpu0_STLB RFO       ACCESS:        719  HIT:        690  MISS:         29
cpu0_STLB PREFETCH  ACCESS:          0  HIT:          0  MISS:          0
cpu0_STLB WRITEBACK ACCESS:          0  HIT:          0  MISS:          0
cpu0_L1D TOTAL     ACCESS:    5222234  HIT:    5173589  MISS:      48645
cpu0_L1D LOAD      ACCESS:    3604955  HIT:    3578326  MISS:      26629
cpu0_L1D RFO       ACCESS:    1617214  HIT:    1595230  MISS:      21984
cpu0_L1D PREFETCH  ACCESS:          0  HIT:          0  MISS:          0
cpu0_L1D WRITEBACK ACCESS:          0  HIT:          0  MISS:          0
cpu0_L2C TOTAL     ACCESS:      71406  HIT:      46430  MISS:      24976
cpu0_L2C LOAD      ACCESS:      26658  HIT:      23335  MISS:       3323
cpu0_L2C RFO       ACCESS:      21984  HIT:        334  MISS:      21650
cpu0_L2C PREFETCH  ACCESS:          0  HIT:          0  MISS:          0
cpu0_L2C WRITEBACK ACCESS:      22732  HIT:      22732  MISS:          0
LLC TOTAL     ACCESS:      46525  HIT:      45162  MISS:       1363
LLC LOAD      ACCESS:       3323  HIT:       2210  MISS:       1113
LLC RFO       ACCESS:      21650  HIT:      21400  MISS:        250
LLC PREFETCH  ACCESS:          0  HIT:          0  MISS:          0
LLC WRITEBACK ACCESS:      21549  HIT:      21549  MISS:          0
Heartbeat CPU 0 instructions: 76000000 cycles: 32516181 heartbeat IPC: 2.21121 cumulative IPC: 1.86782 (Simulation time: 0 hr 46 min 1 sec) 

Region of Interest Statistics
cpu0_DTLB TOTAL     ACCESS:    5639007  HIT:    5635854  MISS:       3153
cpu0_DTLB LOAD      ACCESS:    4396290  HIT:    4393897  MISS:       2393
cpu0_DTLB RFO       ACCESS:    1242717  HIT:    1241957  MISS:        760
cpu0_DTLB PREFETCH  ACCESS:          0  HIT:          0  MISS:          0
cpu0_DTLB WRITEBACK ACCESS:          0  HIT:          0  MISS:          0
cpu0_ITLB TOTAL     ACCESS:    2375053  HIT:    2375053  MISS:          0
cpu0_ITLB LOAD      ACCESS:    2375053  HIT:    2375053  MISS:          0
cpu0_ITLB RFO       ACCESS:          0  HIT:          0  MISS:          0
cpu0_ITLB PREFETCH  ACCESS:          0  HIT:          0  MISS:          0
cpu0_ITLB WRITEBACK ACCESS:          0  HIT:          0  MISS:          0
cpu0_L1I TOTAL     ACCESS:     305540  HIT:     305475  MISS:         65
cpu0_L1I LOAD      ACCESS:     305540  HIT:     305475  MISS:         65
cpu0_L1I RFO       ACCESS:          0  HIT:          0  MISS:          0
cpu0_L1I PREFETCH  ACCESS:          0  HIT:          0  MISS:          0
cpu0_L1I WRITEBACK ACCESS:          0  HIT:          0  MISS:          0
cpu0_STLB TOTAL     ACCESS:       3153  HIT:       3075  MISS:         78
cpu0_STLB LOAD      ACCESS:       2393  HIT:       2344  MISS:         49
cpu0_STLB RFO       ACCESS:        760  HIT:        731  MISS:         29
cpu0_STLB PREFETCH  ACCESS:          0  HIT:          0  MISS:          0
cpu0_STLB WRITEBACK ACCESS:          0  HIT:          0  MISS:          0
cpu0_L1D TOTAL     ACCESS:    5650433  HIT:    5594818  MISS:      55615
cpu0_L1D LOAD      ACCESS:    3823134  HIT:    3789866  MISS:      33268
cpu0_L1D RFO       ACCESS:    1827225  HIT:    1804915  MISS:      22310
cpu0_L1D PREFETCH  ACCESS:          0  HIT:          0  MISS:          0
cpu0_L1D WRITEBACK ACCESS:          0  HIT:          0  MISS:          0
cpu0_L2C TOTAL     ACCESS:      78758  HIT:      49990  MISS:      28768
cpu0_L2C LOAD      ACCESS:      33333  HIT:      26428  MISS:       6905
cpu0_L2C RFO       ACCESS:      22310  HIT:        451  MISS:      21859
cpu0_L2C PREFETCH  ACCESS:          0  HIT:          0  MISS:          0
cpu0_L2C WRITEBACK ACCESS:      23078  HIT:      23078  MISS:          0
LLC TOTAL     ACCESS:      53569  HIT:      52008  MISS:       1561
LLC LOAD      ACCESS:       6905  HIT:       5598  MISS:       1307
LLC RFO       ACCESS:      21859  HIT:      21605  MISS:        254
LLC PREFETCH  ACCESS:          0  HIT:          0  MISS:          0
LLC WRITEBACK ACCESS:      24801  HIT:      24801  MISS:          0
Heartbeat CPU 0 instructions: 78000000 cycles: 33536180 heartbeat IPC: 1.96079 cumulative IPC: 1.87416 (Simulation time: 0 hr 47 min 3 sec) 

Region of Interest Statistics
cpu0_DTLB TOTAL     ACCESS:    6024552  HIT:    6019902  MISS:       4650
cpu0_DTLB LOAD      ACCESS:    4677612  HIT:    4673760  MISS:       3852
cpu0_DTLB RFO       ACCESS:    1346940  HIT:    1346142  MISS:        798
cpu0_DTLB PREFETCH  ACCESS:          0  HIT:          0  MISS:          0
cpu0_DTLB WRITEBACK ACCESS:          0  HIT:          0  MISS:          0
cpu0_ITLB TOTAL     ACCESS:    2575628  HIT:    2575627  MISS:          1
cpu0_ITLB LOAD      ACCESS:    2575628  HIT:    2575627  MISS:          1
cpu0_ITLB RFO       ACCESS:          0  HIT:          0  MISS:          0
cpu0_ITLB PREFETCH  ACCESS:          0  HIT:          0  MISS:          0
cpu0_ITLB WRITEBACK ACCESS:          0  HIT:          0  MISS:          0
cpu0_L1I TOTAL     ACCESS:     412105  HIT:     411858  MISS:        247
cpu0_L1I LOAD      ACCESS:     412105  HIT:     411858  MISS:        247
cpu0_L1I RFO       ACCESS:          0  HIT:          0  MISS:          0
cpu0_L1I PREFETCH  ACCESS:          0  HIT:          0  MISS:          0
cpu0_L1I WRITEBACK ACCESS:          0  HIT:          0  MISS:          0
cpu0_STLB TOTAL     ACCESS:       4651  HIT:       4568  MISS:         83
cpu0_STLB LOAD      ACCESS:       3853  HIT:       3800  MISS:         53
cpu0_STLB RFO       ACCESS:        798  HIT:        768  MISS:         30
cpu0_STLB PREFETCH  ACCESS:          0  HIT:          0  MISS:          0
cpu0_STLB WRITEBACK ACCESS:          0  HIT:          0  MISS:          0
cpu0_L1D TOTAL     ACCESS:    6033635  HIT:    5969169  MISS:      64466
cpu0_L1D LOAD      ACCESS:    4032819  HIT:    3991139  MISS:      41680
cpu0_L1D RFO       ACCESS:    2000737  HIT:    1977991  MISS:      22746
cpu0_L1D PREFETCH  ACCESS:          0  HIT:          0  MISS:          0
cpu0_L1D WRITEBACK ACCESS:          0  HIT:          0  MISS:          0
cpu0_L2C TOTAL     ACCESS:      88304  HIT:      54454  MISS:      33850
cpu0_L2C LOAD      ACCESS:      41927  HIT:      30189  MISS:      11738
cpu0_L2C RFO       ACCESS:      22746  HIT:        639  MISS:      22107
cpu0_L2C PREFETCH  ACCESS:          0  HIT:          0  MISS:          0
cpu0_L2C WRITEBACK ACCESS:      23591  HIT:      23591  MISS:          0
LLC TOTAL     ACCESS:      60965  HIT:      59364  MISS:       1601
LLC LOAD      ACCESS:      11738  HIT:      10404  MISS:       1334
LLC RFO       ACCESS:      22107  HIT:      21849  MISS:        258
LLC PREFETCH  ACCESS:          0  HIT:          0  MISS:          0
LLC WRITEBACK ACCESS:      27115  HIT:      27106  MISS:          9
Heartbeat CPU 0 instructions: 80000001 cycles: 34616770 heartbeat IPC: 1.85084 cumulative IPC: 1.87259 (Simulation time: 0 hr 48 min 6 sec) 

Region of Interest Statistics
cpu0_DTLB TOTAL     ACCESS:    6409043  HIT:    6402973  MISS:       6070
cpu0_DTLB LOAD      ACCESS:    4962473  HIT:    4957232  MISS:       5241
cpu0_DTLB RFO       ACCESS:    1446570  HIT:    1445741  MISS:        829
cpu0_DTLB PREFETCH  ACCESS:          0  HIT:          0  MISS:          0
cpu0_DTLB WRITEBACK ACCESS:          0  HIT:          0  MISS:          0
cpu0_ITLB TOTAL     ACCESS:    2776339  HIT:    2776338  MISS:          1
cpu0_ITLB LOAD      ACCESS:    2776339  HIT:    2776338  MISS:          1
cpu0_ITLB RFO       ACCESS:          0  HIT:          0  MISS:          0
cpu0_ITLB PREFETCH  ACCESS:          0  HIT:          0  MISS:          0
cpu0_ITLB WRITEBACK ACCESS:          0  HIT:          0  MISS:          0
cpu0_L1I TOTAL     ACCESS:     516114  HIT:     515797  MISS:        317
cpu0_L1I LOAD      ACCESS:     516114  HIT:     515797  MISS:        317
cpu0_L1I RFO       ACCESS:          0  HIT:          0  MISS:          0
cpu0_L1I PREFETCH  ACCESS:          0  HIT:          0  MISS:          0
cpu0_L1I WRITEBACK ACCESS:          0  HIT:          0  MISS:          0
cpu0_STLB TOTAL     ACCESS:       6071  HIT:       5987  MISS:         84
cpu0_STLB LOAD      ACCESS:       5242  HIT:       5188  MISS:         54
cpu0_STLB RFO       ACCESS:        829  HIT:        799  MISS:         30
cpu0_STLB PREFETCH  ACCESS:          0  HIT:          0  MISS:          0
cpu0_STLB WRITEBACK ACCESS:          0  HIT:          0  MISS:          0
cpu0_L1D TOTAL     ACCESS:    6414613  HIT:    6341689  MISS:      72924
cpu0_L1D LOAD      ACCESS:    4246812  HIT:    4197069  MISS:      49743
cpu0_L1D RFO       ACCESS:    2167721  HIT:    2144581  MISS:      23140
cpu0_L1D PREFETCH  ACCESS:          0  HIT:          0  MISS:          0
cpu0_L1D WRITEBACK ACCESS:          0  HIT:          0  MISS:          0
cpu0_L2C TOTAL     ACCESS:      97255  HIT:      57834  MISS:      39421
cpu0_L2C LOAD      ACCESS:      50060  HIT:      32950  MISS:      17110
cpu0_L2C RFO       ACCESS:      23140  HIT:        836  MISS:      22304
cpu0_L2C PREFETCH  ACCESS:          0  HIT:          0  MISS:          0
cpu0_L2C WRITEBACK ACCESS:      24014  HIT:      24013  MISS:          1
LLC TOTAL     ACCESS:      67495  HIT:      65868  MISS:       1627
LLC LOAD      ACCESS:      17110  HIT:      15757  MISS:       1353
LLC RFO       ACCESS:      22304  HIT:      22039  MISS:        265
LLC PREFETCH  ACCESS:          0  HIT:          0  MISS:          0
LLC WRITEBACK ACCESS:      28075  HIT:      28066  MISS:          9
Heartbeat CPU 0 instructions: 82000000 cycles: 35687420 heartbeat IPC: 1.86802 cumulative IPC: 1.8723 (Simulation time: 0 hr 49 min 8 sec) 

Region of Interest Statistics
cpu0_DTLB TOTAL     ACCESS:    6792888  HIT:    6785444  MISS:       7444
cpu0_DTLB LOAD      ACCESS:    5245591  HIT:    5239005  MISS:       6586
cpu0_DTLB RFO       ACCESS:    1547297  HIT:    1546439  MISS:        858
cpu0_DTLB PREFETCH  ACCESS:          0  HIT:          0  MISS:          0
cpu0_DTLB WRITEBACK ACCESS:          0  HIT:          0  MISS:          0
cpu0_ITLB TOTAL     ACCESS:    2975542  HIT:    2975541  MISS:          1
cpu0_ITLB LOAD      ACCESS:    2975542  HIT:    2975541  MISS:          1
cpu0_ITLB RFO       ACCESS:          0  HIT:          0  MISS:          0
cpu0_ITLB PREFETCH  ACCESS:          0  HIT:          0  MISS:          0
cpu0_ITLB WRITEBACK ACCESS:          0  HIT:          0  MISS:          0
cpu0_L1I TOTAL     ACCESS:     620316  HIT:     619975  MISS:        341
cpu0_L1I LOAD      ACCESS:     620316  HIT:     619975  MISS:        341
cpu0_L1I RFO       ACCESS:          0  HIT:          0  MISS:          0
cpu0_L1I PREFETCH  ACCESS:          0  HIT:          0  MISS:          0
cpu0_L1I WRITEBACK ACCESS:          0  HIT:          0  MISS:          0
cpu0_STLB TOTAL     ACCESS:       7445  HIT:       7361  MISS:         84
cpu0_STLB LOAD      ACCESS:       6587  HIT:       6533  MISS:         54
cpu0_STLB RFO       ACCESS:        858  HIT:        828  MISS:         30
cpu0_STLB PREFETCH  ACCESS:          0  HIT:          0  MISS:          0
cpu0_STLB WRITEBACK ACCESS:          0  HIT:          0  MISS:          0
cpu0_L1D TOTAL     ACCESS:    6793486  HIT:    6712222  MISS:      81264
cpu0_L1D LOAD      ACCESS:    4457217  HIT:    4399499  MISS:      57718
cpu0_L1D RFO       ACCESS:    2336189  HIT:    2312684  MISS:      23505
cpu0_L1D PREFETCH  ACCESS:          0  HIT:          0  MISS:          0
cpu0_L1D WRITEBACK ACCESS:          0  HIT:          0  MISS:          0
cpu0_L2C TOTAL     ACCESS:     106050  HIT:      60737  MISS:      45313
cpu0_L2C LOAD      ACCESS:      58059  HIT:      35258  MISS:      22801
cpu0_L2C RFO       ACCESS:      23505  HIT:       1003  MISS:      22502
cpu0_L2C PREFETCH  ACCESS:          0  HIT:          0  MISS:          0
cpu0_L2C WRITEBACK ACCESS:      24445  HIT:      24441  MISS:          4
LLC TOTAL     ACCESS:      73699  HIT:      72049  MISS:       1650
LLC LOAD      ACCESS:      22801  HIT:      21433  MISS:       1368
LLC RFO       ACCESS:      22502  HIT:      22229  MISS:        273
LLC PREFETCH  ACCESS:          0  HIT:          0  MISS:          0
LLC WRITEBACK ACCESS:      28390  HIT:      28381  MISS:          9
Heartbeat CPU 0 instructions: 84000000 cycles: 37197939 heartbeat IPC: 1.32405 cumulative IPC: 1.82778 (Simulation time: 0 hr 50 min 12 sec) 

Region of Interest Statistics
cpu0_DTLB TOTAL     ACCESS:    7196950  HIT:    7188094  MISS:       8856
cpu0_DTLB LOAD      ACCESS:    5561320  HIT:    5553348  MISS:       7972
cpu0_DTLB RFO       ACCESS:    1635630  HIT:    1634746  MISS:        884
cpu0_DTLB PREFETCH  ACCESS:          0  HIT:          0  MISS:          0
cpu0_DTLB WRITEBACK ACCESS:          0  HIT:          0  MISS:          0
cpu0_ITLB TOTAL     ACCESS:    3179150  HIT:    3179149  MISS:          1
cpu0_ITLB LOAD      ACCESS:    3179150  HIT:    3179149  MISS:          1
cpu0_ITLB RFO       ACCESS:          0  HIT:          0  MISS:          0
cpu0_ITLB PREFETCH  ACCESS:          0  HIT:          0  MISS:          0
cpu0_ITLB WRITEBACK ACCESS:          0  HIT:          0  MISS:          0
cpu0_L1I TOTAL     ACCESS:     711808  HIT:     711462  MISS:        346
cpu0_L1I LOAD      ACCESS:     711808  HIT:     711462  MISS:        346
cpu0_L1I RFO       ACCESS:          0  HIT:          0  MISS:          0
cpu0_L1I PREFETCH  ACCESS:          0  HIT:          0  MISS:          0
cpu0_L1I WRITEBACK ACCESS:          0  HIT:          0  MISS:          0
cpu0_STLB TOTAL     ACCESS:       8857  HIT:       8769  MISS:         88
cpu0_STLB LOAD      ACCESS:       7973  HIT:       7915  MISS:         58
cpu0_STLB RFO       ACCESS:        884  HIT:        854  MISS:         30
cpu0_STLB PREFETCH  ACCESS:          0  HIT:          0  MISS:          0
cpu0_STLB WRITEBACK ACCESS:          0  HIT:          0  MISS:          0
cpu0_L1D TOTAL     ACCESS:    7195640  HIT:    7106299  MISS:      89341
cpu0_L1D LOAD      ACCESS:    4710120  HIT:    4644637  MISS:      65483
cpu0_L1D RFO       ACCESS:    2485436  HIT:    2461621  MISS:      23815
cpu0_L1D PREFETCH  ACCESS:          0  HIT:          0  MISS:          0
cpu0_L1D WRITEBACK ACCESS:          0  HIT:          0  MISS:          0
cpu0_L2C TOTAL     ACCESS:     114456  HIT:      63721  MISS:      50735
cpu0_L2C LOAD      ACCESS:      65829  HIT:      37742  MISS:      28087
cpu0_L2C RFO       ACCESS:      23815  HIT:       1179  MISS:      22636
cpu0_L2C PREFETCH  ACCESS:          0  HIT:          0  MISS:          0
cpu0_L2C WRITEBACK ACCESS:      24769  HIT:      24764  MISS:          5
LLC TOTAL     ACCESS:      79352  HIT:      77670  MISS:       1682
LLC LOAD      ACCESS:      28087  HIT:      26690  MISS:       1397
LLC RFO       ACCESS:      22636  HIT:      22360  MISS:        276
LLC PREFETCH  ACCESS:          0  HIT:          0  MISS:          0
LLC WRITEBACK ACCESS:      28622  HIT:      28613  MISS:          9
Heartbeat CPU 0 instructions: 86000000 cycles: 38258142 heartbeat IPC: 1.88643 cumulative IPC: 1.83095 (Simulation time: 0 hr 51 min 10 sec) 

Region of Interest Statistics
cpu0_DTLB TOTAL     ACCESS:    7580836  HIT:    7570305  MISS:      10531
cpu0_DTLB LOAD      ACCESS:    5847310  HIT:    5837701  MISS:       9609
cpu0_DTLB RFO       ACCESS:    1733526  HIT:    1732604  MISS:        922
cpu0_DTLB PREFETCH  ACCESS:          0  HIT:          0  MISS:          0
cpu0_DTLB WRITEBACK ACCESS:          0  HIT:          0  MISS:          0
cpu0_ITLB TOTAL     ACCESS:    3378033  HIT:    3378032  MISS:          1
cpu0_ITLB LOAD      ACCESS:    3378033  HIT:    3378032  MISS:          1
cpu0_ITLB RFO       ACCESS:          0  HIT:          0  MISS:          0
cpu0_ITLB PREFETCH  ACCESS:          0  HIT:          0  MISS:          0
cpu0_ITLB WRITEBACK ACCESS:          0  HIT:          0  MISS:          0
cpu0_L1I TOTAL     ACCESS:     812152  HIT:     811790  MISS:        362
cpu0_L1I LOAD      ACCESS:     812152  HIT:     811790  MISS:        362
cpu0_L1I RFO       ACCESS:          0  HIT:          0  MISS:          0
cpu0_L1I PREFETCH  ACCESS:          0  HIT:          0  MISS:          0
cpu0_L1I WRITEBACK ACCESS:          0  HIT:          0  MISS:          0
cpu0_STLB TOTAL     ACCESS:      10532  HIT:      10444  MISS:         88
cpu0_STLB LOAD      ACCESS:       9610  HIT:       9552  MISS:         58
cpu0_STLB RFO       ACCESS:        922  HIT:        892  MISS:         30
cpu0_STLB PREFETCH  ACCESS:          0  HIT:          0  MISS:          0
cpu0_STLB WRITEBACK ACCESS:          0  HIT:          0  MISS:          0
cpu0_L1D TOTAL     ACCESS:    7567961  HIT:    7469686  MISS:      98275
cpu0_L1D LOAD      ACCESS:    4918658  HIT:    4844685  MISS:      73973
cpu0_L1D RFO       ACCESS:    2649219  HIT:    2624960  MISS:      24259
cpu0_L1D PREFETCH  ACCESS:          0  HIT:          0  MISS:          0
cpu0_L1D WRITEBACK ACCESS:          0  HIT:          0  MISS:          0
cpu0_L2C TOTAL     ACCESS:     123933  HIT:      67364  MISS:      56569
cpu0_L2C LOAD      ACCESS:      74335  HIT:      40604  MISS:      33731
cpu0_L2C RFO       ACCESS:      24259  HIT:       1434  MISS:      22825
cpu0_L2C PREFETCH  ACCESS:          0  HIT:          0  MISS:          0
cpu0_L2C WRITEBACK ACCESS:      25296  HIT:      25290  MISS:          6
LLC TOTAL     ACCESS:      85374  HIT:      83634  MISS:       1740
LLC LOAD      ACCESS:      33731  HIT:      32276  MISS:       1455
LLC RFO       ACCESS:      22825  HIT:      22549  MISS:        276
LLC PREFETCH  ACCESS:          0  HIT:          0  MISS:          0
LLC WRITEBACK ACCESS:      28811  HIT:      28802  MISS:          9
Heartbeat CPU 0 instructions: 88000001 cycles: 39984944 heartbeat IPC: 1.15821 cumulative IPC: 1.77663 (Simulation time: 0 hr 52 min 14 sec) 

Region of Interest Statistics
cpu0_DTLB TOTAL     ACCESS:    8086190  HIT:    8074589  MISS:      11601
cpu0_DTLB LOAD      ACCESS:    6231530  HIT:    6220945  MISS:      10585
cpu0_DTLB RFO       ACCESS:    1854660  HIT:    1853644  MISS:       1016
cpu0_DTLB PREFETCH  ACCESS:          0  HIT:          0  MISS:          0
cpu0_DTLB WRITEBACK ACCESS:          0  HIT:          0  MISS:          0
cpu0_ITLB TOTAL     ACCESS:    3527983  HIT:    3527980  MISS:          3
cpu0_ITLB LOAD      ACCESS:    3527983  HIT:    3527980  MISS:          3
cpu0_ITLB RFO       ACCESS:          0  HIT:          0  MISS:          0
cpu0_ITLB PREFETCH  ACCESS:          0  HIT:          0  MISS:          0
cpu0_ITLB WRITEBACK ACCESS:          0  HIT:          0  MISS:          0
cpu0_L1I TOTAL     ACCESS:     914562  HIT:     913315  MISS:       1247
cpu0_L1I LOAD      ACCESS:     914562  HIT:     913315  MISS:       1247
cpu0_L1I RFO       ACCESS:          0  HIT:          0  MISS:          0
cpu0_L1I PREFETCH  ACCESS:          0  HIT:          0  MISS:          0
cpu0_L1I WRITEBACK ACCESS:          0  HIT:          0  MISS:          0
cpu0_STLB TOTAL     ACCESS:      11604  HIT:      11500  MISS:        104
cpu0_STLB LOAD      ACCESS:      10588  HIT:      10516  MISS:         72
cpu0_STLB RFO       ACCESS:       1016  HIT:        984  MISS:         32
cpu0_STLB PREFETCH  ACCESS:          0  HIT:          0  MISS:          0
cpu0_STLB WRITEBACK ACCESS:          0  HIT:          0  MISS:          0
cpu0_L1D TOTAL     ACCESS:    8133056  HIT:    8031300  MISS:     101756
cpu0_L1D LOAD      ACCESS:    5285100  HIT:    5208466  MISS:      76634
cpu0_L1D RFO       ACCESS:    2847856  HIT:    2822782  MISS:      25074
cpu0_L1D PREFETCH  ACCESS:          0  HIT:          0  MISS:          0
cpu0_L1D WRITEBACK ACCESS:          0  HIT:          0  MISS:          0
cpu0_L2C TOTAL     ACCESS:     128902  HIT:      69321  MISS:      59581
cpu0_L2C LOAD      ACCESS:      77881  HIT:      41727  MISS:      36154
cpu0_L2C RFO       ACCESS:      25074  HIT:       1693  MISS:      23381
cpu0_L2C PREFETCH  ACCESS:          0  HIT:          0  MISS:          0
cpu0_L2C WRITEBACK ACCESS:      25899  HIT:      25863  MISS:         36
LLC TOTAL     ACCESS:      88448  HIT:      86464  MISS:       1984
LLC LOAD      ACCESS:      36154  HIT:      34568  MISS:       1586
LLC RFO       ACCESS:      23381  HIT:      22992  MISS:        389
LLC PREFETCH  ACCESS:          0  HIT:          0  MISS:          0
LLC WRITEBACK ACCESS:      28903  HIT:      28894  MISS:          9
Heartbeat CPU 0 instructions: 90000003 cycles: 41825615 heartbeat IPC: 1.08656 cumulative IPC: 1.72195 (Simulation time: 0 hr 53 min 10 sec) 

Region of Interest Statistics
cpu0_DTLB TOTAL     ACCESS:    8609661  HIT:    8597718  MISS:      11943
cpu0_DTLB LOAD      ACCESS:    6607323  HIT:    6596461  MISS:      10862
cpu0_DTLB RFO       ACCESS:    2002338  HIT:    2001257  MISS:       1081
cpu0_DTLB PREFETCH  ACCESS:          0  HIT:          0  MISS:          0
cpu0_DTLB WRITEBACK ACCESS:          0  HIT:          0  MISS:          0
cpu0_ITLB TOTAL     ACCESS:    3677498  HIT:    3677495  MISS:          3
cpu0_ITLB LOAD      ACCESS:    3677498  HIT:    3677495  MISS:          3
cpu0_ITLB RFO       ACCESS:          0  HIT:          0  MISS:          0
cpu0_ITLB PREFETCH  ACCESS:          0  HIT:          0  MISS:          0
cpu0_ITLB WRITEBACK ACCESS:          0  HIT:          0  MISS:          0
cpu0_L1I TOTAL     ACCESS:    1033629  HIT:    1031609  MISS:       2020
cpu0_L1I LOAD      ACCESS:    1033629  HIT:    1031609  MISS:       2020
cpu0_L1I RFO       ACCESS:          0  HIT:          0  MISS:          0
cpu0_L1I PREFETCH  ACCESS:          0  HIT:          0  MISS:          0
cpu0_L1I WRITEBACK ACCESS:          0  HIT:          0  MISS:          0
cpu0_STLB TOTAL     ACCESS:      11946  HIT:      11842  MISS:        104
cpu0_STLB LOAD      ACCESS:      10865  HIT:      10793  MISS:         72
cpu0_STLB RFO       ACCESS:       1081  HIT:       1049  MISS:         32
cpu0_STLB PREFETCH  ACCESS:          0  HIT:          0  MISS:          0
cpu0_STLB WRITEBACK ACCESS:          0  HIT:          0  MISS:          0
cpu0_L1D TOTAL     ACCESS:    8745841  HIT:    8643925  MISS:     101916
cpu0_L1D LOAD      ACCESS:    5653727  HIT:    5576994  MISS:      76733
cpu0_L1D RFO       ACCESS:    3092014  HIT:    3066879  MISS:      25135
cpu0_L1D PREFETCH  ACCESS:          0  HIT:          0  MISS:          0
cpu0_L1D WRITEBACK ACCESS:          0  HIT:          0  MISS:          0
cpu0_L2C TOTAL     ACCESS:     129921  HIT:      70324  MISS:      59597
cpu0_L2C LOAD      ACCESS:      78753  HIT:      42583  MISS:      36170
cpu0_L2C RFO       ACCESS:      25135  HIT:       1754  MISS:      23381
cpu0_L2C PREFETCH  ACCESS:          0  HIT:          0  MISS:          0
cpu0_L2C WRITEBACK ACCESS:      25985  HIT:      25949  MISS:         36
LLC TOTAL     ACCESS:      88464  HIT:      86480  MISS:       1984
LLC LOAD      ACCESS:      36170  HIT:      34584  MISS:       1586
LLC RFO       ACCESS:      23381  HIT:      22992  MISS:        389
LLC PREFETCH  ACCESS:          0  HIT:          0  MISS:          0
LLC WRITEBACK ACCESS:      28903  HIT:      28894  MISS:          9
Heartbeat CPU 0 instructions: 92000000 cycles: 43513502 heartbeat IPC: 1.18491 cumulative IPC: 1.68557 (Simulation time: 0 hr 54 min 12 sec) 

Region of Interest Statistics
cpu0_DTLB TOTAL     ACCESS:    9121863  HIT:    9109536  MISS:      12327
cpu0_DTLB LOAD      ACCESS:    6981838  HIT:    6970678  MISS:      11160
cpu0_DTLB RFO       ACCESS:    2140025  HIT:    2138858  MISS:       1167
cpu0_DTLB PREFETCH  ACCESS:          0  HIT:          0  MISS:          0
cpu0_DTLB WRITEBACK ACCESS:          0  HIT:          0  MISS:          0
cpu0_ITLB TOTAL     ACCESS:    3835069  HIT:    3835063  MISS:          6
cpu0_ITLB LOAD      ACCESS:    3835069  HIT:    3835063  MISS:          6
cpu0_ITLB RFO       ACCESS:          0  HIT:          0  MISS:          0
cpu0_ITLB PREFETCH  ACCESS:          0  HIT:          0  MISS:          0
cpu0_ITLB WRITEBACK ACCESS:          0  HIT:          0  MISS:          0
cpu0_L1I TOTAL     ACCESS:    1127748  HIT:    1124933  MISS:       2815
cpu0_L1I LOAD      ACCESS:    1127748  HIT:    1124933  MISS:       2815
cpu0_L1I RFO       ACCESS:          0  HIT:          0  MISS:          0
cpu0_L1I PREFETCH  ACCESS:          0  HIT:          0  MISS:          0
cpu0_L1I WRITEBACK ACCESS:          0  HIT:          0  MISS:          0
cpu0_STLB TOTAL     ACCESS:      12333  HIT:      12223  MISS:        110
cpu0_STLB LOAD      ACCESS:      11166  HIT:      11088  MISS:         78
cpu0_STLB RFO       ACCESS:       1167  HIT:       1135  MISS:         32
cpu0_STLB PREFETCH  ACCESS:          0  HIT:          0  MISS:          0
cpu0_STLB WRITEBACK ACCESS:          0  HIT:          0  MISS:          0
cpu0_L1D TOTAL     ACCESS:    9320046  HIT:    9217463  MISS:     102583
cpu0_L1D LOAD      ACCESS:    6009772  HIT:    5932689  MISS:      77083
cpu0_L1D RFO       ACCESS:    3310168  HIT:    3284718  MISS:      25450
cpu0_L1D PREFETCH  ACCESS:          0  HIT:          0  MISS:          0
cpu0_L1D WRITEBACK ACCESS:          0  HIT:          0  MISS:          0
cpu0_L2C TOTAL     ACCESS:     131718  HIT:      71459  MISS:      60259
cpu0_L2C LOAD      ACCESS:      79898  HIT:      43284  MISS:      36614
cpu0_L2C RFO       ACCESS:      25450  HIT:       1851  MISS:      23599
cpu0_L2C PREFETCH  ACCESS:          0  HIT:          0  MISS:          0
cpu0_L2C WRITEBACK ACCESS:      26320  HIT:      26284  MISS:         36
LLC TOTAL     ACCESS:      89143  HIT:      87041  MISS:       2102
LLC LOAD      ACCESS:      36614  HIT:      34948  MISS:       1666
LLC RFO       ACCESS:      23599  HIT:      23172  MISS:        427
LLC PREFETCH  ACCESS:          0  HIT:          0  MISS:          0
LLC WRITEBACK ACCESS:      28920  HIT:      28911  MISS:          9
Heartbeat CPU 0 instructions: 94000000 cycles: 44634761 heartbeat IPC: 1.78371 cumulative IPC: 1.6898 (Simulation time: 0 hr 55 min 18 sec) 

Region of Interest Statistics
cpu0_DTLB TOTAL     ACCESS:    9568545  HIT:    9556214  MISS:      12331
cpu0_DTLB LOAD      ACCESS:    7326126  HIT:    7314963  MISS:      11163
cpu0_DTLB RFO       ACCESS:    2242419  HIT:    2241251  MISS:       1168
cpu0_DTLB PREFETCH  ACCESS:          0  HIT:          0  MISS:          0
cpu0_DTLB WRITEBACK ACCESS:          0  HIT:          0  MISS:          0
cpu0_ITLB TOTAL     ACCESS:    4020609  HIT:    4020603  MISS:          6
cpu0_ITLB LOAD      ACCESS:    4020609  HIT:    4020603  MISS:          6
cpu0_ITLB RFO       ACCESS:          0  HIT:          0  MISS:          0
cpu0_ITLB PREFETCH  ACCESS:          0  HIT:          0  MISS:          0
cpu0_ITLB WRITEBACK ACCESS:          0  HIT:          0  MISS:          0
cpu0_L1I TOTAL     ACCESS:    1137033  HIT:    1134218  MISS:       2815
cpu0_L1I LOAD      ACCESS:    1137033  HIT:    1134218  MISS:       2815
cpu0_L1I RFO       ACCESS:          0  HIT:          0  MISS:          0
cpu0_L1I PREFETCH  ACCESS:          0  HIT:          0  MISS:          0
cpu0_L1I WRITEBACK ACCESS:          0  HIT:          0  MISS:          0
cpu0_STLB TOTAL     ACCESS:      12337  HIT:      12225  MISS:        112
cpu0_STLB LOAD      ACCESS:      11169  HIT:      11089  MISS:         80
cpu0_STLB RFO       ACCESS:       1168  HIT:       1136  MISS:         32
cpu0_STLB PREFETCH  ACCESS:          0  HIT:          0  MISS:          0
cpu0_STLB WRITEBACK ACCESS:          0  HIT:          0  MISS:          0
cpu0_L1D TOTAL     ACCESS:    9756257  HIT:    9652832  MISS:     103425
cpu0_L1D LOAD      ACCESS:    6308352  HIT:    6231127  MISS:      77225
cpu0_L1D RFO       ACCESS:    3447797  HIT:    3421647  MISS:      26150
cpu0_L1D PREFETCH  ACCESS:          0  HIT:          0  MISS:          0
cpu0_L1D WRITEBACK ACCESS:          0  HIT:          0  MISS:          0
cpu0_L2C TOTAL     ACCESS:     133091  HIT:      72155  MISS:      60936
cpu0_L2C LOAD      ACCESS:      80040  HIT:      43342  MISS:      36698
cpu0_L2C RFO       ACCESS:      26150  HIT:       1967  MISS:      24183
cpu0_L2C PREFETCH  ACCESS:          0  HIT:          0  MISS:          0
cpu0_L2C WRITEBACK ACCESS:      26851  HIT:      26806  MISS:         45
LLC TOTAL     ACCESS:      89831  HIT:      87687  MISS:       2144
LLC LOAD      ACCESS:      36698  HIT:      34990  MISS:       1708
LLC RFO       ACCESS:      24183  HIT:      23756  MISS:        427
LLC PREFETCH  ACCESS:          0  HIT:          0  MISS:          0
LLC WRITEBACK ACCESS:      28940  HIT:      28931  MISS:          9
Heartbeat CPU 0 instructions: 96000004 cycles: 45674214 heartbeat IPC: 1.92409 cumulative IPC: 1.69879 (Simulation time: 0 hr 56 min 20 sec) 

Region of Interest Statistics
cpu0_DTLB TOTAL     ACCESS:    9998052  HIT:    9985234  MISS:      12818
cpu0_DTLB LOAD      ACCESS:    7655328  HIT:    7643945  MISS:      11383
cpu0_DTLB RFO       ACCESS:    2342724  HIT:    2341289  MISS:       1435
cpu0_DTLB PREFETCH  ACCESS:          0  HIT:          0  MISS:          0
cpu0_DTLB WRITEBACK ACCESS:          0  HIT:          0  MISS:          0
cpu0_ITLB TOTAL     ACCESS:    4204682  HIT:    4204676  MISS:          6
cpu0_ITLB LOAD      ACCESS:    4204682  HIT:    4204676  MISS:          6
cpu0_ITLB RFO       ACCESS:          0  HIT:          0  MISS:          0
cpu0_ITLB PREFETCH  ACCESS:          0  HIT:          0  MISS:          0
cpu0_ITLB WRITEBACK ACCESS:          0  HIT:          0  MISS:          0
cpu0_L1I TOTAL     ACCESS:    1162045  HIT:    1159136  MISS:       2909
cpu0_L1I LOAD      ACCESS:    1162045  HIT:    1159136  MISS:       2909
cpu0_L1I RFO       ACCESS:          0  HIT:          0  MISS:          0
cpu0_L1I PREFETCH  ACCESS:          0  HIT:          0  MISS:          0
cpu0_L1I WRITEBACK ACCESS:          0  HIT:          0  MISS:          0
cpu0_STLB TOTAL     ACCESS:      12824  HIT:      12688  MISS:        136
cpu0_STLB LOAD      ACCESS:      11389  HIT:      11287  MISS:        102
cpu0_STLB RFO       ACCESS:       1435  HIT:       1401  MISS:         34
cpu0_STLB PREFETCH  ACCESS:          0  HIT:          0  MISS:          0
cpu0_STLB WRITEBACK ACCESS:          0  HIT:          0  MISS:          0
cpu0_L1D TOTAL     ACCESS:   10162086  HIT:   10053101  MISS:     108985
cpu0_L1D LOAD      ACCESS:    6584387  HIT:    6503988  MISS:      80399
cpu0_L1D RFO       ACCESS:    3577573  HIT:    3549039  MISS:      28534
cpu0_L1D PREFETCH  ACCESS:          0  HIT:          0  MISS:          0
cpu0_L1D WRITEBACK ACCESS:          0  HIT:          0  MISS:          0
cpu0_L2C TOTAL     ACCESS:     141279  HIT:      77668  MISS:      63611
cpu0_L2C LOAD      ACCESS:      83308  HIT:      46192  MISS:      37116
cpu0_L2C RFO       ACCESS:      28534  HIT:       2094  MISS:      26440
cpu0_L2C PREFETCH  ACCESS:          0  HIT:          0  MISS:          0
cpu0_L2C WRITEBACK ACCESS:      29385  HIT:      29340  MISS:         45
LLC TOTAL     ACCESS:      92697  HIT:      90302  MISS:       2395
LLC LOAD      ACCESS:      37116  HIT:      35157  MISS:       1959
LLC RFO       ACCESS:      26440  HIT:      26013  MISS:        427
LLC PREFETCH  ACCESS:          0  HIT:          0  MISS:          0
LLC WRITEBACK ACCESS:      29131  HIT:      29122  MISS:          9
Heartbeat CPU 0 instructions: 98000003 cycles: 46774081 heartbeat IPC: 1.8184 cumulative IPC: 1.70346 (Simulation time: 0 hr 57 min 24 sec) 

Region of Interest Statistics
cpu0_DTLB TOTAL     ACCESS:   10438325  HIT:   10424726  MISS:      13599
cpu0_DTLB LOAD      ACCESS:    7997592  HIT:    7985845  MISS:      11747
cpu0_DTLB RFO       ACCESS:    2440733  HIT:    2438881  MISS:       1852
cpu0_DTLB PREFETCH  ACCESS:          0  HIT:          0  MISS:          0
cpu0_DTLB WRITEBACK ACCESS:          0  HIT:          0  MISS:          0
cpu0_ITLB TOTAL     ACCESS:    4382621  HIT:    4382615  MISS:          6
cpu0_ITLB LOAD      ACCESS:    4382621  HIT:    4382615  MISS:          6
cpu0_ITLB RFO       ACCESS:          0  HIT:          0  MISS:          0
cpu0_ITLB PREFETCH  ACCESS:          0  HIT:          0  MISS:          0
cpu0_ITLB WRITEBACK ACCESS:          0  HIT:          0  MISS:          0
cpu0_L1I TOTAL     ACCESS:    1171857  HIT:    1168948  MISS:       2909
cpu0_L1I LOAD      ACCESS:    1171857  HIT:    1168948  MISS:       2909
cpu0_L1I RFO       ACCESS:          0  HIT:          0  MISS:          0
cpu0_L1I PREFETCH  ACCESS:          0  HIT:          0  MISS:          0
cpu0_L1I WRITEBACK ACCESS:          0  HIT:          0  MISS:          0
cpu0_STLB TOTAL     ACCESS:      13605  HIT:      13468  MISS:        137
cpu0_STLB LOAD      ACCESS:      11753  HIT:      11650  MISS:        103
cpu0_STLB RFO       ACCESS:       1852  HIT:       1818  MISS:         34
cpu0_STLB PREFETCH  ACCESS:          0  HIT:          0  MISS:          0
cpu0_STLB WRITEBACK ACCESS:          0  HIT:          0  MISS:          0
cpu0_L1D TOTAL     ACCESS:   10595877  HIT:   10485276  MISS:     110601
cpu0_L1D LOAD      ACCESS:    6882089  HIT:    6801091  MISS:      80998
cpu0_L1D RFO       ACCESS:    3713661  HIT:    3684111  MISS:      29550
cpu0_L1D PREFETCH  ACCESS:          0  HIT:          0  MISS:          0
cpu0_L1D WRITEBACK ACCESS:          0  HIT:          0  MISS:          0
cpu0_L2C TOTAL     ACCESS:     144011  HIT:      79401  MISS:      64610
cpu0_L2C LOAD      ACCESS:      83907  HIT:      46764  MISS:      37143
cpu0_L2C RFO       ACCESS:      29550  HIT:       2138  MISS:      27412
cpu0_L2C PREFETCH  ACCESS:          0  HIT:          0  MISS:          0
cpu0_L2C WRITEBACK ACCESS:      30501  HIT:      30456  MISS:         45
LLC TOTAL     ACCESS:      93958  HIT:      91544  MISS:       2414
LLC LOAD      ACCESS:      37143  HIT:      35165  MISS:       1978
LLC RFO       ACCESS:      27412  HIT:      26985  MISS:        427
LLC PREFETCH  ACCESS:          0  HIT:          0  MISS:          0
LLC WRITEBACK ACCESS:      29393  HIT:      29384  MISS:          9
Heartbeat CPU 0 instructions: 100000002 cycles: 47833346 heartbeat IPC: 1.8881 cumulative IPC: 1.71015 (Simulation time: 0 hr 58 min 25 sec) 

Region of Interest Statistics
cpu0_DTLB TOTAL     ACCESS:   10874252  HIT:   10860520  MISS:      13732
cpu0_DTLB LOAD      ACCESS:    8331303  HIT:    8319473  MISS:      11830
cpu0_DTLB RFO       ACCESS:    2542949  HIT:    2541047  MISS:       1902
cpu0_DTLB PREFETCH  ACCESS:          0  HIT:          0  MISS:          0
cpu0_DTLB WRITEBACK ACCESS:          0  HIT:          0  MISS:          0
cpu0_ITLB TOTAL     ACCESS:    4571357  HIT:    4571351  MISS:          6
cpu0_ITLB LOAD      ACCESS:    4571357  HIT:    4571351  MISS:          6
cpu0_ITLB RFO       ACCESS:          0  HIT:          0  MISS:          0
cpu0_ITLB PREFETCH  ACCESS:          0  HIT:          0  MISS:          0
cpu0_ITLB WRITEBACK ACCESS:          0  HIT:          0  MISS:          0
cpu0_L1I TOTAL     ACCESS:    1196645  HIT:    1193732  MISS:       2913
cpu0_L1I LOAD      ACCESS:    1196645  HIT:    1193732  MISS:       2913
cpu0_L1I RFO       ACCESS:          0  HIT:          0  MISS:          0
cpu0_L1I PREFETCH  ACCESS:          0  HIT:          0  MISS:          0
cpu0_L1I WRITEBACK ACCESS:          0  HIT:          0  MISS:          0
cpu0_STLB TOTAL     ACCESS:      13738  HIT:      13575  MISS:        163
cpu0_STLB LOAD      ACCESS:      11836  HIT:      11709  MISS:        127
cpu0_STLB RFO       ACCESS:       1902  HIT:       1866  MISS:         36
cpu0_STLB PREFETCH  ACCESS:          0  HIT:          0  MISS:          0
cpu0_STLB WRITEBACK ACCESS:          0  HIT:          0  MISS:          0
cpu0_L1D TOTAL     ACCESS:   11007829  HIT:   10892426  MISS:     115403
cpu0_L1D LOAD      ACCESS:    7163539  HIT:    7079824  MISS:      83715
cpu0_L1D RFO       ACCESS:    3844144  HIT:    3812512  MISS:      31632
cpu0_L1D PREFETCH  ACCESS:          0  HIT:          0  MISS:          0
cpu0_L1D WRITEBACK ACCESS:          0  HIT:          0  MISS:          0
cpu0_L2C TOTAL     ACCESS:     150708  HIT:      83755  MISS:      66953
cpu0_L2C LOAD      ACCESS:      86628  HIT:      49156  MISS:      37472
cpu0_L2C RFO       ACCESS:      31632  HIT:       2207  MISS:      29425
cpu0_L2C PREFETCH  ACCESS:          0  HIT:          0  MISS:          0
cpu0_L2C WRITEBACK ACCESS:      32392  HIT:      32347  MISS:         45
LLC TOTAL     ACCESS:      97022  HIT:      94321  MISS:       2701
LLC LOAD      ACCESS:      37472  HIT:      35242  MISS:       2230
LLC RFO       ACCESS:      29425  HIT:      28963  MISS:        462
LLC PREFETCH  ACCESS:          0  HIT:          0  MISS:          0
LLC WRITEBACK ACCESS:      30114  HIT:      30105  MISS:          9
Heartbeat CPU 0 instructions: 102000004 cycles: 48866538 heartbeat IPC: 1.93575 cumulative IPC: 1.71785 (Simulation time: 0 hr 59 min 25 sec) 

Region of Interest Statistics
cpu0_DTLB TOTAL     ACCESS:   11300717  HIT:   11286844  MISS:      13873
cpu0_DTLB LOAD      ACCESS:    8659331  HIT:    8647416  MISS:      11915
cpu0_DTLB RFO       ACCESS:    2641386  HIT:    2639428  MISS:       1958
cpu0_DTLB PREFETCH  ACCESS:          0  HIT:          0  MISS:          0
cpu0_DTLB WRITEBACK ACCESS:          0  HIT:          0  MISS:          0
cpu0_ITLB TOTAL     ACCESS:    4753510  HIT:    4753504  MISS:          6
cpu0_ITLB LOAD      ACCESS:    4753510  HIT:    4753504  MISS:          6
cpu0_ITLB RFO       ACCESS:          0  HIT:          0  MISS:          0
cpu0_ITLB PREFETCH  ACCESS:          0  HIT:          0  MISS:          0
cpu0_ITLB WRITEBACK ACCESS:          0  HIT:          0  MISS:          0
cpu0_L1I TOTAL     ACCESS:    1221236  HIT:    1218323  MISS:       2913
cpu0_L1I LOAD      ACCESS:    1221236  HIT:    1218323  MISS:       2913
cpu0_L1I RFO       ACCESS:          0  HIT:          0  MISS:          0
cpu0_L1I PREFETCH  ACCESS:          0  HIT:          0  MISS:          0
cpu0_L1I WRITEBACK ACCESS:          0  HIT:          0  MISS:          0
cpu0_STLB TOTAL     ACCESS:      13879  HIT:      13689  MISS:        190
cpu0_STLB LOAD      ACCESS:      11921  HIT:      11770  MISS:        151
cpu0_STLB RFO       ACCESS:       1958  HIT:       1919  MISS:         39
cpu0_STLB PREFETCH  ACCESS:          0  HIT:          0  MISS:          0
cpu0_STLB WRITEBACK ACCESS:          0  HIT:          0  MISS:          0
cpu0_L1D TOTAL     ACCESS:   11414856  HIT:   11293871  MISS:     120985
cpu0_L1D LOAD      ACCESS:    7438819  HIT:    7351912  MISS:      86907
cpu0_L1D RFO       ACCESS:    3975871  HIT:    3941852  MISS:      34019
cpu0_L1D PREFETCH  ACCESS:          0  HIT:          0  MISS:          0
cpu0_L1D WRITEBACK ACCESS:          0  HIT:          0  MISS:          0
cpu0_L2C TOTAL     ACCESS:     158924  HIT:      89338  MISS:      69586
cpu0_L2C LOAD      ACCESS:      89820  HIT:      52050  MISS:      37770
cpu0_L2C RFO       ACCESS:      34019  HIT:       2259  MISS:      31760
cpu0_L2C PREFETCH  ACCESS:          0  HIT:          0  MISS:          0
cpu0_L2C WRITEBACK ACCESS:      35026  HIT:      34981  MISS:         45
LLC TOTAL     ACCESS:     101462  HIT:      98523  MISS:       2939
LLC LOAD      ACCESS:      37770  HIT:      35311  MISS:       2459
LLC RFO       ACCESS:      31760  HIT:      31289  MISS:        471
LLC PREFETCH  ACCESS:          0  HIT:          0  MISS:          0
LLC WRITEBACK ACCESS:      31921  HIT:      31912  MISS:          9
Heartbeat CPU 0 instructions: 104000000 cycles: 49989654 heartbeat IPC: 1.78076 cumulative IPC: 1.7201 (Simulation time: 1 hr 0 min 23 sec) 

Region of Interest Statistics
cpu0_DTLB TOTAL     ACCESS:   11748818  HIT:   11734943  MISS:      13875
cpu0_DTLB LOAD      ACCESS:    9005777  HIT:    8993861  MISS:      11916
cpu0_DTLB RFO       ACCESS:    2743041  HIT:    2741082  MISS:       1959
cpu0_DTLB PREFETCH  ACCESS:          0  HIT:          0  MISS:          0
cpu0_DTLB WRITEBACK ACCESS:          0  HIT:          0  MISS:          0
cpu0_ITLB TOTAL     ACCESS:    4938173  HIT:    4938167  MISS:          6
cpu0_ITLB LOAD      ACCESS:    4938173  HIT:    4938167  MISS:          6
cpu0_ITLB RFO       ACCESS:          0  HIT:          0  MISS:          0
cpu0_ITLB PREFETCH  ACCESS:          0  HIT:          0  MISS:          0
cpu0_ITLB WRITEBACK ACCESS:          0  HIT:          0  MISS:          0
cpu0_L1I TOTAL     ACCESS:    1230904  HIT:    1227991  MISS:       2913
cpu0_L1I LOAD      ACCESS:    1230904  HIT:    1227991  MISS:       2913
cpu0_L1I RFO       ACCESS:          0  HIT:          0  MISS:          0
cpu0_L1I PREFETCH  ACCESS:          0  HIT:          0  MISS:          0
cpu0_L1I WRITEBACK ACCESS:          0  HIT:          0  MISS:          0
cpu0_STLB TOTAL     ACCESS:      13881  HIT:      13691  MISS:        190
cpu0_STLB LOAD      ACCESS:      11922  HIT:      11771  MISS:        151
cpu0_STLB RFO       ACCESS:       1959  HIT:       1920  MISS:         39
cpu0_STLB PREFETCH  ACCESS:          0  HIT:          0  MISS:          0
cpu0_STLB WRITEBACK ACCESS:          0  HIT:          0  MISS:          0
cpu0_L1D TOTAL     ACCESS:   11852159  HIT:   11730325  MISS:     121834
cpu0_L1D LOAD      ACCESS:    7740293  HIT:    7653245  MISS:      87048
cpu0_L1D RFO       ACCESS:    4111700  HIT:    4076973  MISS:      34727
cpu0_L1D PREFETCH  ACCESS:          0  HIT:          0  MISS:          0
cpu0_L1D WRITEBACK ACCESS:          0  HIT:          0  MISS:          0
cpu0_L2C TOTAL     ACCESS:     160244  HIT:      89902  MISS:      70342
cpu0_L2C LOAD      ACCESS:      89961  HIT:      52142  MISS:      37819
cpu0_L2C RFO       ACCESS:      34727  HIT:       2260  MISS:      32467
cpu0_L2C PREFETCH  ACCESS:          0  HIT:          0  MISS:          0
cpu0_L2C WRITEBACK ACCESS:      35497  HIT:      35452  MISS:         45
LLC TOTAL     ACCESS:     102784  HIT:      99805  MISS:       2979
LLC LOAD      ACCESS:      37819  HIT:      35320  MISS:       2499
LLC RFO       ACCESS:      32467  HIT:      31996  MISS:        471
LLC PREFETCH  ACCESS:          0  HIT:          0  MISS:          0
LLC WRITEBACK ACCESS:      32487  HIT:      32478  MISS:          9
Heartbeat CPU 0 instructions: 106000003 cycles: 51018711 heartbeat IPC: 1.94353 cumulative IPC: 1.72719 (Simulation time: 1 hr 1 min 23 sec) 

Region of Interest Statistics
cpu0_DTLB TOTAL     ACCESS:   12177457  HIT:   12163440  MISS:      14017
cpu0_DTLB LOAD      ACCESS:    9333952  HIT:    9321951  MISS:      12001
cpu0_DTLB RFO       ACCESS:    2843505  HIT:    2841489  MISS:       2016
cpu0_DTLB PREFETCH  ACCESS:          0  HIT:          0  MISS:          0
cpu0_DTLB WRITEBACK ACCESS:          0  HIT:          0  MISS:          0
cpu0_ITLB TOTAL     ACCESS:    5122282  HIT:    5122276  MISS:          6
cpu0_ITLB LOAD      ACCESS:    5122282  HIT:    5122276  MISS:          6
cpu0_ITLB RFO       ACCESS:          0  HIT:          0  MISS:          0
cpu0_ITLB PREFETCH  ACCESS:          0  HIT:          0  MISS:          0
cpu0_ITLB WRITEBACK ACCESS:          0  HIT:          0  MISS:          0
cpu0_L1I TOTAL     ACCESS:    1255982  HIT:    1253069  MISS:       2913
cpu0_L1I LOAD      ACCESS:    1255982  HIT:    1253069  MISS:       2913
cpu0_L1I RFO       ACCESS:          0  HIT:          0  MISS:          0
cpu0_L1I PREFETCH  ACCESS:          0  HIT:          0  MISS:          0
cpu0_L1I WRITEBACK ACCESS:          0  HIT:          0  MISS:          0
cpu0_STLB TOTAL     ACCESS:      14023  HIT:      13807  MISS:        216
cpu0_STLB LOAD      ACCESS:      12007  HIT:      11833  MISS:        174
cpu0_STLB RFO       ACCESS:       2016  HIT:       1974  MISS:         42
cpu0_STLB PREFETCH  ACCESS:          0  HIT:          0  MISS:          0
cpu0_STLB WRITEBACK ACCESS:          0  HIT:          0  MISS:          0
cpu0_L1D TOTAL     ACCESS:   12257809  HIT:   12130424  MISS:     127385
cpu0_L1D LOAD      ACCESS:    8015203  HIT:    7924987  MISS:      90216
cpu0_L1D RFO       ACCESS:    4242420  HIT:    4205315  MISS:      37105
cpu0_L1D PREFETCH  ACCESS:          0  HIT:          0  MISS:          0
cpu0_L1D WRITEBACK ACCESS:          0  HIT:          0  MISS:          0
cpu0_L2C TOTAL     ACCESS:     168370  HIT:      95380  MISS:      72990
cpu0_L2C LOAD      ACCESS:      93129  HIT:      54998  MISS:      38131
cpu0_L2C RFO       ACCESS:      37105  HIT:       2302  MISS:      34803
cpu0_L2C PREFETCH  ACCESS:          0  HIT:          0  MISS:          0
cpu0_L2C WRITEBACK ACCESS:      38072  HIT:      38027  MISS:         45
[...]
cpu0_DTLB LOAD      ACCESS:  270321792  HIT:  269912448  MISS:     409344
cpu0_DTLB RFO       ACCESS:   63867779  HIT:   63811687  MISS:      56092
cpu0_DTLB PREFETCH  ACCESS:          0  HIT:          0  MISS:          0
cpu0_DTLB WRITEBACK ACCESS:          0  HIT:          0  MISS:          0
cpu0_ITLB TOTAL     ACCESS:  120403053  HIT:  120402837  MISS:        216
cpu0_ITLB LOAD      ACCESS:  120403053  HIT:  120402837  MISS:        216
cpu0_ITLB RFO       ACCESS:          0  HIT:          0  MISS:          0
cpu0_ITLB PREFETCH  ACCESS:          0  HIT:          0  MISS:          0
cpu0_ITLB WRITEBACK ACCESS:          0  HIT:          0  MISS:          0
cpu0_L1I TOTAL     ACCESS:   52196802  HIT:   52093337  MISS:     103465
cpu0_L1I LOAD      ACCESS:   52196802  HIT:   52093337  MISS:     103465
cpu0_L1I RFO       ACCESS:          0  HIT:          0  MISS:          0
cpu0_L1I PREFETCH  ACCESS:          0  HIT:          0  MISS:          0
cpu0_L1I WRITEBACK ACCESS:          0  HIT:          0  MISS:          0
cpu0_STLB TOTAL     ACCESS:     465652  HIT:     460998  MISS:       4654
cpu0_STLB LOAD      ACCESS:     409560  HIT:     406088  MISS:       3472
cpu0_STLB RFO       ACCESS:      56092  HIT:      54910  MISS:       1182
cpu0_STLB PREFETCH  ACCESS:          0  HIT:          0  MISS:          0
cpu0_STLB WRITEBACK ACCESS:          0  HIT:          0  MISS:          0
cpu0_L1D TOTAL     ACCESS:  344732364  HIT:  340829105  MISS:    3903259
cpu0_L1D LOAD      ACCESS:  243465023  HIT:  240645880  MISS:    2819143
cpu0_L1D RFO       ACCESS:  101262956  HIT:  100180668  MISS:    1082288
cpu0_L1D PREFETCH  ACCESS:          0  HIT:          0  MISS:          0
cpu0_L1D WRITEBACK ACCESS:          0  HIT:          0  MISS:          0
cpu0_L2C TOTAL     ACCESS:    5115646  HIT:    2835488  MISS:    2280158
cpu0_L2C LOAD      ACCESS:    2922605  HIT:    1649828  MISS:    1272777
cpu0_L2C RFO       ACCESS:    1082286  HIT:      76863  MISS:    1005423
cpu0_L2C PREFETCH  ACCESS:          0  HIT:          0  MISS:          0
cpu0_L2C WRITEBACK ACCESS:    1108927  HIT:    1107341  MISS:       1586
LLC TOTAL     ACCESS:    3304940  HIT:    3225853  MISS:      79087
LLC LOAD      ACCESS:    1272777  HIT:    1205544  MISS:      67233
LLC RFO       ACCESS:    1005423  HIT:     993868  MISS:      11555
LLC PREFETCH  ACCESS:          0  HIT:          0  MISS:          0
LLC WRITEBACK ACCESS:    1026368  HIT:    1026091  MISS:        277
Heartbeat CPU 0 instructions: 1550000000 cycles: 951498956 heartbeat IPC: 1.68421 cumulative IPC: 1.60788 (Simulation time: 12 hr 43 min 6 sec) 

Region of Interest Statistics
cpu0_DTLB TOTAL     ACCESS:  334575690  HIT:  334109090  MISS:     466600
cpu0_DTLB LOAD      ACCESS:  270613469  HIT:  270202994  MISS:     410475
cpu0_DTLB RFO       ACCESS:   63962221  HIT:   63906096  MISS:      56125
cpu0_DTLB PREFETCH  ACCESS:          0  HIT:          0  MISS:          0
cpu0_DTLB WRITEBACK ACCESS:          0  HIT:          0  MISS:          0
cpu0_ITLB TOTAL     ACCESS:  120605866  HIT:  120605650  MISS:        216
cpu0_ITLB LOAD      ACCESS:  120605866  HIT:  120605650  MISS:        216
cpu0_ITLB RFO       ACCESS:          0  HIT:          0  MISS:          0
cpu0_ITLB PREFETCH  ACCESS:          0  HIT:          0  MISS:          0
cpu0_ITLB WRITEBACK ACCESS:          0  HIT:          0  MISS:          0
cpu0_L1I TOTAL     ACCESS:   52294723  HIT:   52191251  MISS:     103472
cpu0_L1I LOAD      ACCESS:   52294723  HIT:   52191251  MISS:     103472
cpu0_L1I RFO       ACCESS:          0  HIT:          0  MISS:          0
cpu0_L1I PREFETCH  ACCESS:          0  HIT:          0  MISS:          0
cpu0_L1I WRITEBACK ACCESS:          0  HIT:          0  MISS:          0
cpu0_STLB TOTAL     ACCESS:     466816  HIT:     462162  MISS:       4654
cpu0_STLB LOAD      ACCESS:     410691  HIT:     407219  MISS:       3472
cpu0_STLB RFO       ACCESS:      56125  HIT:      54943  MISS:       1182
cpu0_STLB PREFETCH  ACCESS:          0  HIT:          0  MISS:          0
cpu0_STLB WRITEBACK ACCESS:          0  HIT:          0  MISS:          0
cpu0_L1D TOTAL     ACCESS:  345113961  HIT:  341202902  MISS:    3911059
cpu0_L1D LOAD      ACCESS:  243687934  HIT:  240861252  MISS:    2826682
cpu0_L1D RFO       ACCESS:  101421642  HIT:  100339093  MISS:    1082549
cpu0_L1D PREFETCH  ACCESS:          0  HIT:          0  MISS:          0
cpu0_L1D WRITEBACK ACCESS:          0  HIT:          0  MISS:          0
cpu0_L2C TOTAL     ACCESS:    5123740  HIT:    2838381  MISS:    2285359
cpu0_L2C LOAD      ACCESS:    2930151  HIT:    1652295  MISS:    1277856
cpu0_L2C RFO       ACCESS:    1082547  HIT:      77002  MISS:    1005545
cpu0_L2C PREFETCH  ACCESS:          0  HIT:          0  MISS:          0
cpu0_L2C WRITEBACK ACCESS:    1109214  HIT:    1107628  MISS:       1586
LLC TOTAL     ACCESS:    3311909  HIT:    3232818  MISS:      79091
LLC LOAD      ACCESS:    1277856  HIT:    1210623  MISS:      67233
LLC RFO       ACCESS:    1005545  HIT:     993990  MISS:      11555
LLC PREFETCH  ACCESS:          0  HIT:          0  MISS:          0
LLC WRITEBACK ACCESS:    1028136  HIT:    1027855  MISS:        281
Finished CPU 0 instructions: 1500000004 cycles: 932902773 cumulative IPC: 1.60788 (Simulation time: 12 hr 43 min 6 sec) 

ChampSim completed all CPUs

Region of Interest Statistics

CPU 0 cumulative IPC: 1.60788 instructions: 1500000004 cycles: 932902773
cpu0_DTLB TOTAL     ACCESS:  334575690  HIT:  334109090  MISS:     466600
cpu0_DTLB LOAD      ACCESS:  270613469  HIT:  270202994  MISS:     410475
cpu0_DTLB RFO       ACCESS:   63962221  HIT:   63906096  MISS:      56125
cpu0_DTLB PREFETCH  ACCESS:          0  HIT:          0  MISS:          0
cpu0_DTLB WRITEBACK ACCESS:          0  HIT:          0  MISS:          0
cpu0_DTLB TRANSLATION ACCESS:          0  HIT:          0  MISS:          0
cpu0_DTLB PREFETCH  REQUESTED:          0  ISSUED:          0  USEFUL:          0  USELESS:          0
cpu0_DTLB AVERAGE MISS LATENCY: 9.4333 cycles
cpu0_ITLB TOTAL     ACCESS:  120605866  HIT:  120605650  MISS:        216
cpu0_ITLB LOAD      ACCESS:  120605866  HIT:  120605650  MISS:        216
cpu0_ITLB RFO       ACCESS:          0  HIT:          0  MISS:          0
cpu0_ITLB PREFETCH  ACCESS:          0  HIT:          0  MISS:          0
cpu0_ITLB WRITEBACK ACCESS:          0  HIT:          0  MISS:          0
cpu0_ITLB TRANSLATION ACCESS:          0  HIT:          0  MISS:          0
cpu0_ITLB PREFETCH  REQUESTED:          0  ISSUED:          0  USEFUL:          0  USELESS:          0
cpu0_ITLB AVERAGE MISS LATENCY: 18.3843 cycles
cpu0_L1I TOTAL     ACCESS:   52294723  HIT:   52191251  MISS:     103472
cpu0_L1I LOAD      ACCESS:   52294723  HIT:   52191251  MISS:     103472
cpu0_L1I RFO       ACCESS:          0  HIT:          0  MISS:          0
cpu0_L1I PREFETCH  ACCESS:          0  HIT:          0  MISS:          0
cpu0_L1I WRITEBACK ACCESS:          0  HIT:          0  MISS:          0
cpu0_L1I TRANSLATION ACCESS:          0  HIT:          0  MISS:          0
cpu0_L1I PREFETCH  REQUESTED:          0  ISSUED:          0  USEFUL:          0  USELESS:          0
cpu0_L1I AVERAGE MISS LATENCY: 23.621 cycles
cpu0_STLB TOTAL     ACCESS:     466816  HIT:     462162  MISS:       4654
cpu0_STLB LOAD      ACCESS:     410691  HIT:     407219  MISS:       3472
cpu0_STLB RFO       ACCESS:      56125  HIT:      54943  MISS:       1182
cpu0_STLB PREFETCH  ACCESS:          0  HIT:          0  MISS:          0
cpu0_STLB WRITEBACK ACCESS:          0  HIT:          0  MISS:          0
cpu0_STLB TRANSLATION ACCESS:          0  HIT:          0  MISS:          0
cpu0_STLB PREFETCH  REQUESTED:          0  ISSUED:          0  USEFUL:          0  USELESS:          0
cpu0_STLB AVERAGE MISS LATENCY: 42.6992 cycles
cpu0_L1D TOTAL     ACCESS:  345113962  HIT:  341202903  MISS:    3911059
cpu0_L1D LOAD      ACCESS:  243687934  HIT:  240861252  MISS:    2826682
cpu0_L1D RFO       ACCESS:  101421643  HIT:  100339094  MISS:    1082549
cpu0_L1D PREFETCH  ACCESS:          0  HIT:          0  MISS:          0
cpu0_L1D WRITEBACK ACCESS:          0  HIT:          0  MISS:          0
cpu0_L1D TRANSLATION ACCESS:       4385  HIT:       2557  MISS:       1828
cpu0_L1D PREFETCH  REQUESTED:          0  ISSUED:          0  USEFUL:          0  USELESS:          0
cpu0_L1D AVERAGE MISS LATENCY: 26.8672 cycles
cpu0_L2C TOTAL     ACCESS:    5123740  HIT:    2838381  MISS:    2285359
cpu0_L2C LOAD      ACCESS:    2930151  HIT:    1652295  MISS:    1277856
cpu0_L2C RFO       ACCESS:    1082547  HIT:      77002  MISS:    1005545
cpu0_L2C PREFETCH  ACCESS:          0  HIT:          0  MISS:          0
cpu0_L2C WRITEBACK ACCESS:    1109214  HIT:    1107628  MISS:       1586
cpu0_L2C TRANSLATION ACCESS:       1828  HIT:       1456  MISS:        372
cpu0_L2C PREFETCH  REQUESTED:          0  ISSUED:          0  USEFUL:          0  USELESS:          0
cpu0_L2C AVERAGE MISS LATENCY: 27.6924 cycles
LLC TOTAL     ACCESS:    3311909  HIT:    3232818  MISS:      79091
LLC LOAD      ACCESS:    1277856  HIT:    1210623  MISS:      67233
LLC RFO       ACCESS:    1005545  HIT:     993990  MISS:      11555
LLC PREFETCH  ACCESS:          0  HIT:          0  MISS:          0
LLC WRITEBACK ACCESS:    1028136  HIT:    1027855  MISS:        281
LLC TRANSLATION ACCESS:        372  HIT:        350  MISS:         22
LLC PREFETCH  REQUESTED:          0  ISSUED:          0  USEFUL:          0  USELESS:          0
LLC AVERAGE MISS LATENCY: 193.798 cycles
~~~~~~~~~~Reuse Distance Profiler output~~~~~~~~~~
0	0	0
1	0	0
2	0	0
3	0	0
4	0	0
5	0	0
6	0	0
7	0	0
8	0	0
9	0	0
10	0	0
11	0	0
12	0	0
13	0	0
14	0	0
15	0	0
16	0	0
17	0	0
18	0	0
19	0	0
20	0	0
21	0	0
22	0	0
23	0	0
24	0	0
25	0	0
26	0	0
27	0	0
28	0	0
29	0	0
30	0	0
31	0	0
32	0	0
33	0	0
34	0	0
35	0	0
36	0	0
37	0	0
38	0	0
39	0	0
40	0	0
41	0	0
42	0	0
43	0	0
44	0	0
45	0	0
46	0	0
47	0	0
48	0	0
49	0	0
50	0	0
51	0	0
52	0	0
53	0	0
54	0	0
55	0	0
56	0	0
57	0	0
58	0	0
59	0	0
60	0	0
61	0	0
62	0	0
63	0	0
64	0	0
66	0	0
68	0	0
70	0	0
72	0	0
74	0	0
76	0	0
78	0	0
80	0	0
82	0	0
84	0	0
86	0	0
88	0	0
90	0	0
92	0	0
94	0	0
96	0	0
98	0	0
100	0	0
102	0	0
104	0	0
106	0	0
108	0	0
110	0	0
112	0	0
114	0	0
116	0	0
118	0	0
120	0	0
122	0	0
124	0	0
126	0	0
128	0	0
132	0	0
136	0	0
140	0	0
144	0	0
148	0	0
152	0	0
156	0	0
160	0	0
164	0	0
168	0	0
172	0	0
176	0	0
180	0	0
184	0	0
188	0	0
192	0	0
196	0	0
200	0	0
204	0	0
208	0	0
212	0	0
216	0	0
220	0	0
224	0	0
228	0	0
232	0	0
236	0	0
240	0	0
244	0	0
248	0	0
252	0	0
256	0	0
264	0	0
272	0	0
280	0	0
288	0	0
296	0	0
304	0	0
312	0	0
320	0	0
328	0	0
336	0	0
344	0	0
352	0	0
360	0	0
368	0	0
376	0	0
384	0	0
392	0	0
400	0	0
408	0	0
416	0	0
424	0	0
432	0	0
440	0	0
448	0	0
456	0	0
464	0	0
472	0	0
480	0	0
488	0	0
496	0	0
504	0	0
512	0	0
528	0	0
544	0	0
560	0	0
576	0	0
592	0	0
608	0	0
624	0	0
640	0	0
656	0	0
672	0	0
688	0	0
704	0	0
720	0	0
736	0	0
752	0	0
768	0	0
784	0	0
800	0	0
816	0	0
832	0	0
848	0	0
864	0	0
880	0	0
896	0	0
912	0	0
928	0	0
944	0	0
960	0	0
976	0	0
992	0	0
1008	0	0
1024	0	0
1056	0	0
1088	0	0
1120	0	0
1152	0	0
1184	0	0
1216	0	0
1248	0	0
1280	0	0
1312	0	0
1344	0	0
1376	0	0
1408	0	0
1440	0	0
1472	0	0
1504	0	0
1536	0	0
1568	0	0
1600	0	0
1632	0	0
1664	0	0
1696	0	0
1728	0	0
1760	0	0
1792	0	0
1824	0	0
1856	0	0
1888	0	0
1920	0	0
1952	0	0
1984	0	0
2016	0	0
2048	0	0
2112	0	0
2176	0	0
2240	0	0
2304	0	0
2368	0	0
2432	0	0
2496	0	0
2560	0	0
2624	0	0
2688	0	0
2752	0	0
2816	0	0
2880	0	0
2944	0	0
3008	0	0
3072	0	0
3136	0	0
3200	0	0
3264	0	0
3328	0	0
3392	0	0
3456	0	0
3520	0	0
3584	0	0
3648	0	0
3712	0	0
3776	0	0
3840	0	0
3904	0	0
3968	0	0
4032	0	0
4096	0	0
4224	0	0
4352	0	0
4480	0	0
4608	0	0
4736	0	0
4864	0	0
4992	0	0
5120	0	0
5248	0	0
5376	0	0
5504	0	0
5632	0	0
5760	0	0
5888	0	0
6016	0	0
6144	0	0
6272	0	0
6400	0	0
6528	0	0
6656	0	0
6784	0	0
6912	0	0
7040	0	0
7168	0	0
7296	0	0
7424	0	0
7552	0	0
7680	0	0
7808	0	0
7936	0	0
8064	0	0
8192	0	0
8448	0	0
8704	0	0
8960	0	0
9216	0	0
9472	0	0
9728	0	0
9984	0	0
10240	0	0
10496	0	0
10752	0	0
11008	0	0
11264	0	0
11520	0	0
11776	0	0
12032	0	0
12288	0	0
12544	0	0
12800	0	0
13056	0	0
13312	0	0
13568	0	0
13824	0	0
14080	0	0
14336	0	0
14592	0	0
14848	0	0
15104	0	0
15360	0	0
15616	0	0
15872	0	0
16128	0	0
16384	0	0
16896	0	0
17408	0	0
17920	0	0
18432	0	0
18944	0	0
19456	0	0
19968	0	0
20480	0	0
20992	0	0
21504	0	0
22016	0	0
22528	0	0
23040	0	0
23552	0	0
24064	0	0
24576	0	0
25088	0	0
25600	0	0
26112	0	0
26624	0	0
27136	0	0
27648	0	0
28160	0	0
28672	0	0
29184	0	0
29696	0	0
30208	0	0
30720	0	0
31232	0	0
31744	0	0
32256	0	0
32768	0	0
33792	0	0
34816	0	0
35840	0	0
36864	0	0
37888	0	0
38912	0	0
39936	0	0
40960	0	0
41984	0	0
43008	0	0
44032	0	0
45056	0	0
46080	0	0
47104	0	0
48128	0	0
49152	0	0
50176	0	0
51200	0	0
52224	0	0
53248	0	0
54272	0	0
55296	0	0
56320	0	0
57344	0	0
58368	0	0
59392	0	0
60416	0	0
61440	0	0
62464	0	0
63488	0	0
64512	0	0
65536	0	0
67584	0	0
69632	0	0
71680	0	0
73728	0	0
75776	0	0
77824	0	0
79872	0	0
81920	0	0
83968	0	0
86016	0	0
88064	0	0
90112	0	0
92160	0	0
94208	0	0
96256	0	0
98304	0	0
100352	0	0
102400	0	0
104448	0	0
106496	0	0
108544	0	0
110592	0	0
112640	0	0
114688	0	0
116736	0	0
118784	0	0
120832	0	0
122880	0	0
124928	0	0
126976	0	0
129024	0	0
131072	0	0
135168	0	0
139264	0	0
143360	0	0
147456	0	0
151552	0	0
155648	0	0
159744	0	0
163840	0	0
167936	0	0
172032	0	0
176128	0	0
180224	0	0
184320	0	0
188416	0	0
192512	0	0
196608	0	0
200704	0	0
204800	0	0
208896	0	0
212992	0	0
217088	0	0
221184	0	0
225280	0	0
229376	0	0
233472	0	0
237568	0	0
241664	0	0
245760	0	0
249856	0	0
253952	0	0
258048	0	0
262144	0	0
270336	0	0
278528	0	0
286720	0	0
294912	0	0
303104	0	0
311296	0	0
319488	0	0
327680	0	0
335872	0	0
344064	0	0
352256	0	0
360448	0	0
368640	0	0
376832	0	0
385024	0	0
393216	0	0
401408	0	0
409600	0	0
417792	0	0
425984	0	0
434176	0	0
442368	0	0
450560	0	0
458752	0	0
466944	0	0
475136	0	0
483328	0	0
491520	0	0
499712	0	0
507904	0	0
516096	0	0
524288	0	0
540672	0	0
557056	0	0
573440	0	0
589824	0	0
606208	0	0
622592	0	0
638976	0	0
655360	0	0
671744	0	0
688128	0	0
704512	0	0
720896	0	0
737280	0	0
753664	0	0
770048	0	0
786432	0	0
802816	0	0
819200	0	0
835584	0	0
851968	0	0
868352	0	0
884736	0	0
901120	0	0
917504	0	0
933888	0	0
950272	0	0
966656	0	0
983040	0	0
999424	0	0
1015808	0	0
1032192	0	0
1048576	0	0
1081344	0	0
1114112	0	0
1146880	0	0
1179648	0	0
1212416	0	0
1245184	0	0
1277952	0	0
1310720	0	0
1343488	0	0
1376256	0	0
1409024	0	0
1441792	0	0
1474560	0	0
1507328	0	0
1540096	0	0
1572864	0	0
1605632	0	0
1638400	0	0
1671168	0	0
1703936	0	0
1736704	0	0
1769472	0	0
1802240	0	0
1835008	0	0
1867776	0	0
1900544	0	0
1933312	0	0
1966080	0	0
1998848	0	0
2031616	0	0
2064384	0	0
2097152	0	0
2162688	0	0
2228224	0	0
2293760	0	0
2359296	0	0
2424832	0	0
2490368	0	0
2555904	0	0
2621440	0	0
2686976	0	0
2752512	0	0
2818048	0	0
2883584	0	0
2949120	0	0
3014656	0	0
3080192	0	0
3145728	0	0
3211264	0	0
3276800	0	0
3342336	0	0
3407872	0	0
3473408	0	0
3538944	0	0
3604480	0	0
3670016	0	0
3735552	0	0
3801088	0	0
3866624	0	0
3932160	0	0
3997696	0	0
4063232	0	0
4128768	0	0
4194304	0	0
4325376	0	0
4456448	0	0
4587520	0	0
4718592	0	0
4849664	0	0
4980736	0	0
5111808	0	0
5242880	0	0
5373952	0	0
5505024	0	0
5636096	0	0
5767168	0	0
5898240	0	0
6029312	0	0
6160384	0	0
6291456	0	0
6422528	0	0
6553600	0	0
6684672	0	0
6815744	0	0
6946816	0	0
7077888	0	0
7208960	0	0
7340032	0	0
7471104	0	0
7602176	0	0
7733248	0	0
7864320	0	0
7995392	0	0
8126464	0	0
8257536	0	0
8388608	0	0
8650752	0	0
8912896	0	0
9175040	0	0
9437184	0	0
9699328	0	0
9961472	0	0
10223616	0	0
10485760	0	0
10747904	0	0
11010048	0	0
11272192	0	0
11534336	0	0
11796480	0	0
12058624	0	0
12320768	0	0
12582912	0	0
12845056	0	0
13107200	0	0
13369344	0	0
13631488	0	0
13893632	0	0
14155776	0	0
14417920	0	0
14680064	0	0
14942208	0	0
15204352	0	0
15466496	0	0
15728640	0	0
15990784	0	0
16252928	0	0
16515072	0	0
16777216	0	0
17301504	0	0
17825792	0	0
18350080	0	0
18874368	0	0
19398656	0	0
19922944	0	0
20447232	0	0
20971520	0	0
21495808	0	0
22020096	0	0
22544384	0	0
23068672	0	0
23592960	0	0
24117248	0	0
24641536	0	0
25165824	0	0
25690112	0	0
26214400	0	0
26738688	0	0
27262976	0	0
27787264	0	0
28311552	0	0
28835840	0	0
29360128	0	0
29884416	0	0
30408704	0	0
30932992	0	0
31457280	0	0
31981568	0	0
32505856	0	0
33030144	0	0
33554432	0	0
34603008	0	0
35651584	0	0
36700160	0	0
37748736	0	0
38797312	0	0
39845888	0	0
40894464	0	0
41943040	0	0
42991616	0	0
44040192	0	0
45088768	0	0
46137344	0	0
47185920	0	0
48234496	0	0
49283072	0	0
50331648	0	0
51380224	0	0
52428800	0	0
53477376	0	0
54525952	0	0
55574528	0	0
56623104	0	0
57671680	0	0
58720256	0	0
59768832	0	0
60817408	0	0
61865984	0	0
62914560	0	0
63963136	0	0
65011712	0	0
66060288	0	0
67108864	0	0
69206016	0	0
71303168	0	0
73400320	0	0
75497472	0	0
77594624	0	0
79691776	0	0
81788928	0	0
83886080	0	0
85983232	0	0
88080384	0	0
90177536	0	0
92274688	0	0
94371840	0	0
96468992	0	0
98566144	0	0
100663296	0	0
102760448	0	0
104857600	0	0
106954752	0	0
109051904	0	0
111149056	0	0
113246208	0	0
115343360	0	0
117440512	0	0
119537664	0	0
121634816	0	0
123731968	0	0
125829120	0	0
127926272	0	0
130023424	0	0
132120576	0	0
134217728	0	0
138412032	0	0
142606336	0	0
146800640	0	0
150994944	0	0
155189248	0	0
159383552	0	0
163577856	0	0
167772160	0	0
171966464	0	0
176160768	0	0
180355072	0	0
184549376	0	0
188743680	0	0
192937984	0	0
197132288	0	0
201326592	0	0
205520896	0	0
209715200	0	0
213909504	0	0
218103808	0	0
222298112	0	0
226492416	0	0
230686720	0	0
234881024	0	0
239075328	0	0
243269632	0	0
247463936	0	0
251658240	0	0
255852544	0	0
260046848	0	0
264241152	0	0
268435456	0	0
276824064	0	0
285212672	0	0
293601280	0	0
301989888	0	0
310378496	0	0
318767104	0	0
327155712	0	0
335544320	0	0
343932928	0	0
352321536	0	0
360710144	0	0
369098752	0	0
377487360	0	0
385875968	0	0
394264576	0	0
402653184	0	0
411041792	0	0
419430400	0	0
427819008	0	0
436207616	0	0
444596224	0	0
452984832	0	0
461373440	0	0
469762048	0	0
478150656	0	0
486539264	0	0
494927872	0	0
503316480	0	0
511705088	0	0
520093696	0	0
528482304	0	0
536870912	0	0
553648128	0	0
570425344	0	0
587202560	0	0
603979776	0	0
620756992	0	0
637534208	0	0
654311424	0	0
671088640	0	0
687865856	0	0
704643072	0	0
721420288	0	0
738197504	0	0
754974720	0	0
771751936	0	0
788529152	0	0
805306368	0	0
822083584	0	0
838860800	0	0
855638016	0	0
872415232	0	0
889192448	0	0
905969664	0	0
922746880	0	0
939524096	0	0
956301312	0	0
973078528	0	0
989855744	0	0
1006632960	0	0
1023410176	0	0
1040187392	0	0
1056964608	0	0
1073741824	0	0
1107296256	0	0
1140850688	0	0
1174405120	0	0
1207959552	0	0
1241513984	0	0
1275068416	0	0
1308622848	0	0
1342177280	0	0
1375731712	0	0
1409286144	0	0
1442840576	0	0
1476395008	0	0
1509949440	0	0
1543503872	0	0
1577058304	0	0
1610612736	0	0
1644167168	0	0
1677721600	0	0
1711276032	0	0
1744830464	0	0
1778384896	0	0
1811939328	0	0
1845493760	0	0
1879048192	0	0
1912602624	0	0
1946157056	0	0
1979711488	0	0
2013265920	0	0
2046820352	0	0
2080374784	0	0
2113929216	0	0
2147483648	0	0
2214592512	0	0
2281701376	0	0
2348810240	0	0
2415919104	0	0
2483027968	0	0
2550136832	0	0
2617245696	0	0
2684354560	0	0
2751463424	0	0
2818572288	0	0
2885681152	0	0
2952790016	0	0
3019898880	0	0
3087007744	0	0
3154116608	0	0
3221225472	0	0
3288334336	0	0
3355443200	0	0
3422552064	0	0
3489660928	0	0
3556769792	0	0
3623878656	0	0
3690987520	0	0
3758096384	0	0
3825205248	0	0
3892314112	0	0
3959422976	0	0
4026531840	0	0
4093640704	0	0
4160749568	0	0
4227858432	0	0
~~~~~~~~~~Reuse Distance Profiler output end~~~~~~~~~~


DRAM Statistics
 CHANNEL 0
 RQ ROW_BUFFER_HIT:       4371  ROW_BUFFER_MISS:      74430
 DBUS AVG_CONGESTED_CYCLE:    3.77724
 WQ ROW_BUFFER_HIT:       1984  ROW_BUFFER_MISS:      12752  FULL:          0


CPU 0 Branch Prediction Accuracy: 92.0014% MPKI: 7.78177 Average ROB Occupancy at Mispredict: 125.04
Branch type MPKI
BRANCH_DIRECT_JUMP: 2.6e-05
BRANCH_INDIRECT: 0.001128
BRANCH_CONDITIONAL: 7.69646
BRANCH_DIRECT_CALL: 0.082528
BRANCH_INDIRECT_CALL: 0.000115333
BRANCH_RETURN: 0.001514

