
*** ChampSim Multicore Out-of-Order Simulator ***

Warmup Instructions: 50000000
Simulation Instructions: 1500000000
Number of CPUs: 1
Off-chip DRAM Size: 4 GiB Channels: 1 Width: 64-bit Data Rate: 3200 MT/s

VirtualMemory physical capacity: 8588881920 num_ppages: 2096895
VirtualMemory page size: 4096 log2_page_size: 12

CPU 0 runs traces/471.omnetpp-188B.champsimtrace.xz
CPU 0 Bimodal branch predictor
Basic BTB sets: 1024 ways: 8 indirect buffer size: 4096 RAS size: 64
Initializing LRU.
Initializing LRU.
Initializing LRU.
Initializing LRU.
Initializing rdLRU.
Initializing LRU.
Initializing LRU.
Heartbeat CPU 0 instructions: 2000001 cycles: 500349 heartbeat IPC: 3.99721 cumulative IPC: 3.99721 (Simulation time: 0 hr 0 min 55 sec) 
Heartbeat CPU 0 instructions: 4000001 cycles: 1000349 heartbeat IPC: 4 cumulative IPC: 3.99861 (Simulation time: 0 hr 1 min 50 sec) 
Heartbeat CPU 0 instructions: 6000001 cycles: 1500349 heartbeat IPC: 4 cumulative IPC: 3.99907 (Simulation time: 0 hr 2 min 46 sec) 
Heartbeat CPU 0 instructions: 8000001 cycles: 2000357 heartbeat IPC: 3.99994 cumulative IPC: 3.99929 (Simulation time: 0 hr 3 min 41 sec) 
Heartbeat CPU 0 instructions: 10000001 cycles: 2500349 heartbeat IPC: 4.00006 cumulative IPC: 3.99944 (Simulation time: 0 hr 4 min 38 sec) 
Heartbeat CPU 0 instructions: 12000001 cycles: 3000352 heartbeat IPC: 3.99998 cumulative IPC: 3.99953 (Simulation time: 0 hr 5 min 34 sec) 
Heartbeat CPU 0 instructions: 14000000 cycles: 3500364 heartbeat IPC: 3.9999 cumulative IPC: 3.99958 (Simulation time: 0 hr 6 min 29 sec) 
Heartbeat CPU 0 instructions: 16000001 cycles: 4000352 heartbeat IPC: 4.0001 cumulative IPC: 3.99965 (Simulation time: 0 hr 7 min 21 sec) 
Heartbeat CPU 0 instructions: 18000001 cycles: 4500352 heartbeat IPC: 4 cumulative IPC: 3.99969 (Simulation time: 0 hr 8 min 10 sec) 
Heartbeat CPU 0 instructions: 20000002 cycles: 5000355 heartbeat IPC: 3.99998 cumulative IPC: 3.99972 (Simulation time: 0 hr 8 min 59 sec) 
Heartbeat CPU 0 instructions: 22000002 cycles: 5500355 heartbeat IPC: 4 cumulative IPC: 3.99974 (Simulation time: 0 hr 9 min 53 sec) 
Heartbeat CPU 0 instructions: 24000002 cycles: 6000355 heartbeat IPC: 4 cumulative IPC: 3.99976 (Simulation time: 0 hr 10 min 44 sec) 
Heartbeat CPU 0 instructions: 26000002 cycles: 6500360 heartbeat IPC: 3.99996 cumulative IPC: 3.99978 (Simulation time: 0 hr 11 min 36 sec) 
Heartbeat CPU 0 instructions: 28000002 cycles: 7000360 heartbeat IPC: 4 cumulative IPC: 3.99979 (Simulation time: 0 hr 12 min 28 sec) 
Heartbeat CPU 0 instructions: 30000002 cycles: 7500360 heartbeat IPC: 4 cumulative IPC: 3.99981 (Simulation time: 0 hr 13 min 22 sec) 
Heartbeat CPU 0 instructions: 32000002 cycles: 8000360 heartbeat IPC: 4 cumulative IPC: 3.99982 (Simulation time: 0 hr 14 min 15 sec) 
Heartbeat CPU 0 instructions: 34000002 cycles: 8500360 heartbeat IPC: 4 cumulative IPC: 3.99983 (Simulation time: 0 hr 15 min 8 sec) 
Heartbeat CPU 0 instructions: 36000002 cycles: 9000360 heartbeat IPC: 4 cumulative IPC: 3.99984 (Simulation time: 0 hr 16 min 1 sec) 
Heartbeat CPU 0 instructions: 38000003 cycles: 9500367 heartbeat IPC: 3.99995 cumulative IPC: 3.99985 (Simulation time: 0 hr 16 min 54 sec) 
Heartbeat CPU 0 instructions: 40000002 cycles: 10000360 heartbeat IPC: 4.00005 cumulative IPC: 3.99986 (Simulation time: 0 hr 17 min 44 sec) 
Heartbeat CPU 0 instructions: 42000002 cycles: 10500449 heartbeat IPC: 3.99929 cumulative IPC: 3.99983 (Simulation time: 0 hr 18 min 36 sec) 
Heartbeat CPU 0 instructions: 44000003 cycles: 11000465 heartbeat IPC: 3.99987 cumulative IPC: 3.99983 (Simulation time: 0 hr 19 min 24 sec) 
Heartbeat CPU 0 instructions: 46000003 cycles: 11500465 heartbeat IPC: 4 cumulative IPC: 3.99984 (Simulation time: 0 hr 20 min 14 sec) 
Heartbeat CPU 0 instructions: 48000003 cycles: 12000465 heartbeat IPC: 4 cumulative IPC: 3.99985 (Simulation time: 0 hr 21 min 7 sec) 
Heartbeat CPU 0 instructions: 50000003 cycles: 12500465 heartbeat IPC: 4 cumulative IPC: 3.99985 (Simulation time: 0 hr 22 min 1 sec) 

Warmup complete CPU 0 instructions: 50000003 cycles: 12500465 (Simulation time: 0 hr 22 min 1 sec) 

Heartbeat CPU 0 instructions: 52000004 cycles: 18735357 heartbeat IPC: 0.320776 cumulative IPC: 0.320776 (Simulation time: 0 hr 24 min 14 sec) 

Region of Interest Statistics
cpu0_DTLB TOTAL     ACCESS:     494317  HIT:     454126  MISS:      40191
cpu0_DTLB LOAD      ACCESS:     305186  HIT:     271613  MISS:      33573
cpu0_DTLB RFO       ACCESS:     189131  HIT:     182513  MISS:       6618
cpu0_DTLB PREFETCH  ACCESS:          0  HIT:          0  MISS:          0
cpu0_DTLB WRITEBACK ACCESS:          0  HIT:          0  MISS:          0
cpu0_ITLB TOTAL     ACCESS:     225722  HIT:     225548  MISS:        174
cpu0_ITLB LOAD      ACCESS:     225722  HIT:     225548  MISS:        174
cpu0_ITLB RFO       ACCESS:          0  HIT:          0  MISS:          0
cpu0_ITLB PREFETCH  ACCESS:          0  HIT:          0  MISS:          0
cpu0_ITLB WRITEBACK ACCESS:          0  HIT:          0  MISS:          0
cpu0_L1I TOTAL     ACCESS:     178787  HIT:     178780  MISS:          7
cpu0_L1I LOAD      ACCESS:     178787  HIT:     178780  MISS:          7
cpu0_L1I RFO       ACCESS:          0  HIT:          0  MISS:          0
cpu0_L1I PREFETCH  ACCESS:          0  HIT:          0  MISS:          0
cpu0_L1I WRITEBACK ACCESS:          0  HIT:          0  MISS:          0
cpu0_STLB TOTAL     ACCESS:      40365  HIT:      30710  MISS:       9655
cpu0_STLB LOAD      ACCESS:      33747  HIT:      27242  MISS:       6505
cpu0_STLB RFO       ACCESS:       6618  HIT:       3468  MISS:       3150
cpu0_STLB PREFETCH  ACCESS:          0  HIT:          0  MISS:          0
cpu0_STLB WRITEBACK ACCESS:          0  HIT:          0  MISS:          0
cpu0_L1D TOTAL     ACCESS:     622492  HIT:     575338  MISS:      47154
cpu0_L1D LOAD      ACCESS:     320409  HIT:     278574  MISS:      41835
cpu0_L1D RFO       ACCESS:     293113  HIT:     287883  MISS:       5230
cpu0_L1D PREFETCH  ACCESS:          0  HIT:          0  MISS:          0
cpu0_L1D WRITEBACK ACCESS:          0  HIT:          0  MISS:          0
cpu0_L2C TOTAL     ACCESS:      68683  HIT:      25621  MISS:      43062
cpu0_L2C LOAD      ACCESS:      41842  HIT:       3785  MISS:      38057
cpu0_L2C RFO       ACCESS:       5230  HIT:        282  MISS:       4948
cpu0_L2C PREFETCH  ACCESS:          0  HIT:          0  MISS:          0
cpu0_L2C WRITEBACK ACCESS:      21522  HIT:      21486  MISS:         36
LLC TOTAL     ACCESS:      62902  HIT:       5366  MISS:      57536
LLC LOAD      ACCESS:      38057  HIT:       1846  MISS:      36211
LLC RFO       ACCESS:       4948  HIT:        217  MISS:       4731
LLC PREFETCH  ACCESS:          0  HIT:          0  MISS:          0
LLC WRITEBACK ACCESS:      19876  HIT:       3303  MISS:      16573
Heartbeat CPU 0 instructions: 54000000 cycles: 26249061 heartbeat IPC: 0.26618 cumulative IPC: 0.290939 (Simulation time: 0 hr 26 min 40 sec) 

Region of Interest Statistics
cpu0_DTLB TOTAL     ACCESS:     985229  HIT:     901905  MISS:      83324
cpu0_DTLB LOAD      ACCESS:     593933  HIT:     525004  MISS:      68929
cpu0_DTLB RFO       ACCESS:     391296  HIT:     376901  MISS:      14395
cpu0_DTLB PREFETCH  ACCESS:          0  HIT:          0  MISS:          0
cpu0_DTLB WRITEBACK ACCESS:          0  HIT:          0  MISS:          0
cpu0_ITLB TOTAL     ACCESS:     438058  HIT:     435538  MISS:       2520
cpu0_ITLB LOAD      ACCESS:     438058  HIT:     435538  MISS:       2520
cpu0_ITLB RFO       ACCESS:          0  HIT:          0  MISS:          0
cpu0_ITLB PREFETCH  ACCESS:          0  HIT:          0  MISS:          0
cpu0_ITLB WRITEBACK ACCESS:          0  HIT:          0  MISS:          0
cpu0_L1I TOTAL     ACCESS:     373519  HIT:     373486  MISS:         33
cpu0_L1I LOAD      ACCESS:     373519  HIT:     373486  MISS:         33
cpu0_L1I RFO       ACCESS:          0  HIT:          0  MISS:          0
cpu0_L1I PREFETCH  ACCESS:          0  HIT:          0  MISS:          0
cpu0_L1I WRITEBACK ACCESS:          0  HIT:          0  MISS:          0
cpu0_STLB TOTAL     ACCESS:      85844  HIT:      64844  MISS:      21000
cpu0_STLB LOAD      ACCESS:      71449  HIT:      57242  MISS:      14207
cpu0_STLB RFO       ACCESS:      14395  HIT:       7602  MISS:       6793
cpu0_STLB PREFETCH  ACCESS:          0  HIT:          0  MISS:          0
cpu0_STLB WRITEBACK ACCESS:          0  HIT:          0  MISS:          0
cpu0_L1D TOTAL     ACCESS:    1247700  HIT:    1144882  MISS:     102818
cpu0_L1D LOAD      ACCESS:     621429  HIT:     531674  MISS:      89755
cpu0_L1D RFO       ACCESS:     606673  HIT:     593792  MISS:      12881
cpu0_L1D PREFETCH  ACCESS:          0  HIT:          0  MISS:          0
cpu0_L1D WRITEBACK ACCESS:          0  HIT:          0  MISS:          0
cpu0_L2C TOTAL     ACCESS:     144899  HIT:      52004  MISS:      92895
cpu0_L2C LOAD      ACCESS:      89788  HIT:       9544  MISS:      80244
cpu0_L2C RFO       ACCESS:      12881  HIT:        364  MISS:      12517
cpu0_L2C PREFETCH  ACCESS:          0  HIT:          0  MISS:          0
cpu0_L2C WRITEBACK ACCESS:      42048  HIT:      41963  MISS:         85
LLC TOTAL     ACCESS:     131502  HIT:      10466  MISS:     121036
LLC LOAD      ACCESS:      80244  HIT:       3063  MISS:      77181
LLC RFO       ACCESS:      12517  HIT:        272  MISS:      12245
LLC PREFETCH  ACCESS:          0  HIT:          0  MISS:          0
LLC WRITEBACK ACCESS:      38692  HIT:       7131  MISS:      31561
Heartbeat CPU 0 instructions: 56000000 cycles: 32562167 heartbeat IPC: 0.316801 cumulative IPC: 0.299077 (Simulation time: 0 hr 28 min 40 sec) 

Region of Interest Statistics
cpu0_DTLB TOTAL     ACCESS:    1476945  HIT:    1357286  MISS:     119659
cpu0_DTLB LOAD      ACCESS:     893965  HIT:     793771  MISS:     100194
cpu0_DTLB RFO       ACCESS:     582980  HIT:     563515  MISS:      19465
cpu0_DTLB PREFETCH  ACCESS:          0  HIT:          0  MISS:          0
cpu0_DTLB WRITEBACK ACCESS:          0  HIT:          0  MISS:          0
cpu0_ITLB TOTAL     ACCESS:     664459  HIT:     661000  MISS:       3459
cpu0_ITLB LOAD      ACCESS:     664459  HIT:     661000  MISS:       3459
cpu0_ITLB RFO       ACCESS:          0  HIT:          0  MISS:          0
cpu0_ITLB PREFETCH  ACCESS:          0  HIT:          0  MISS:          0
cpu0_ITLB WRITEBACK ACCESS:          0  HIT:          0  MISS:          0
cpu0_L1I TOTAL     ACCESS:     576835  HIT:     576765  MISS:         70
cpu0_L1I LOAD      ACCESS:     576835  HIT:     576765  MISS:         70
cpu0_L1I RFO       ACCESS:          0  HIT:          0  MISS:          0
cpu0_L1I PREFETCH  ACCESS:          0  HIT:          0  MISS:          0
cpu0_L1I WRITEBACK ACCESS:          0  HIT:          0  MISS:          0
cpu0_STLB TOTAL     ACCESS:     123118  HIT:      94197  MISS:      28921
cpu0_STLB LOAD      ACCESS:     103653  HIT:      83702  MISS:      19951
cpu0_STLB RFO       ACCESS:      19465  HIT:      10495  MISS:       8970
cpu0_STLB PREFETCH  ACCESS:          0  HIT:          0  MISS:          0
cpu0_STLB WRITEBACK ACCESS:          0  HIT:          0  MISS:          0
cpu0_L1D TOTAL     ACCESS:    1862785  HIT:    1718503  MISS:     144282
cpu0_L1D LOAD      ACCESS:     926376  HIT:     801502  MISS:     124874
cpu0_L1D RFO       ACCESS:     909213  HIT:     890074  MISS:      19139
cpu0_L1D PREFETCH  ACCESS:          0  HIT:          0  MISS:          0
cpu0_L1D WRITEBACK ACCESS:          0  HIT:          0  MISS:          0
cpu0_L2C TOTAL     ACCESS:     201865  HIT:      69936  MISS:     131929
cpu0_L2C LOAD      ACCESS:     124944  HIT:      11908  MISS:     113036
cpu0_L2C RFO       ACCESS:      19139  HIT:        435  MISS:      18704
cpu0_L2C PREFETCH  ACCESS:          0  HIT:          0  MISS:          0
cpu0_L2C WRITEBACK ACCESS:      57513  HIT:      57393  MISS:        120
LLC TOTAL     ACCESS:     185791  HIT:      15549  MISS:     170242
LLC LOAD      ACCESS:     113036  HIT:       4720  MISS:     108316
LLC RFO       ACCESS:      18704  HIT:        455  MISS:      18249
LLC PREFETCH  ACCESS:          0  HIT:          0  MISS:          0
LLC WRITEBACK ACCESS:      53982  HIT:      10374  MISS:      43608
Heartbeat CPU 0 instructions: 58000004 cycles: 39538630 heartbeat IPC: 0.286679 cumulative IPC: 0.295878 (Simulation time: 0 hr 30 min 50 sec) 

Region of Interest Statistics
cpu0_DTLB TOTAL     ACCESS:    1976849  HIT:    1813767  MISS:     163082
cpu0_DTLB LOAD      ACCESS:    1195765  HIT:    1058776  MISS:     136989
cpu0_DTLB RFO       ACCESS:     781084  HIT:     754991  MISS:      26093
cpu0_DTLB PREFETCH  ACCESS:          0  HIT:          0  MISS:          0
cpu0_DTLB WRITEBACK ACCESS:          0  HIT:          0  MISS:          0
cpu0_ITLB TOTAL     ACCESS:     885995  HIT:     880755  MISS:       5240
cpu0_ITLB LOAD      ACCESS:     885995  HIT:     880755  MISS:       5240
cpu0_ITLB RFO       ACCESS:          0  HIT:          0  MISS:          0
cpu0_ITLB PREFETCH  ACCESS:          0  HIT:          0  MISS:          0
cpu0_ITLB WRITEBACK ACCESS:          0  HIT:          0  MISS:          0
cpu0_L1I TOTAL     ACCESS:     759481  HIT:     759364  MISS:        117
cpu0_L1I LOAD      ACCESS:     759481  HIT:     759364  MISS:        117
cpu0_L1I RFO       ACCESS:          0  HIT:          0  MISS:          0
cpu0_L1I PREFETCH  ACCESS:          0  HIT:          0  MISS:          0
cpu0_L1I WRITEBACK ACCESS:          0  HIT:          0  MISS:          0
cpu0_STLB TOTAL     ACCESS:     168322  HIT:     129660  MISS:      38662
cpu0_STLB LOAD      ACCESS:     142229  HIT:     115219  MISS:      27010
cpu0_STLB RFO       ACCESS:      26093  HIT:      14441  MISS:      11652
cpu0_STLB PREFETCH  ACCESS:          0  HIT:          0  MISS:          0
cpu0_STLB WRITEBACK ACCESS:          0  HIT:          0  MISS:          0
cpu0_L1D TOTAL     ACCESS:    2487113  HIT:    2291524  MISS:     195589
cpu0_L1D LOAD      ACCESS:    1238657  HIT:    1070267  MISS:     168390
cpu0_L1D RFO       ACCESS:    1212060  HIT:    1185239  MISS:      26821
cpu0_L1D PREFETCH  ACCESS:          0  HIT:          0  MISS:          0
cpu0_L1D WRITEBACK ACCESS:          0  HIT:          0  MISS:          0
cpu0_L2C TOTAL     ACCESS:     272356  HIT:      94686  MISS:     177670
cpu0_L2C LOAD      ACCESS:     168507  HIT:      17047  MISS:     151460
cpu0_L2C RFO       ACCESS:      26821  HIT:        884  MISS:      25937
cpu0_L2C PREFETCH  ACCESS:          0  HIT:          0  MISS:          0
cpu0_L2C WRITEBACK ACCESS:      76650  HIT:      76474  MISS:        176
LLC TOTAL     ACCESS:     247697  HIT:      20780  MISS:     226917
LLC LOAD      ACCESS:     151460  HIT:       5801  MISS:     145659
LLC RFO       ACCESS:      25937  HIT:        730  MISS:      25207
LLC PREFETCH  ACCESS:          0  HIT:          0  MISS:          0
LLC WRITEBACK ACCESS:      70203  HIT:      14249  MISS:      55954
Heartbeat CPU 0 instructions: 60000001 cycles: 44915042 heartbeat IPC: 0.371995 cumulative IPC: 0.308503 (Simulation time: 0 hr 32 min 28 sec) 

Region of Interest Statistics
cpu0_DTLB TOTAL     ACCESS:    2462541  HIT:    2274183  MISS:     188358
cpu0_DTLB LOAD      ACCESS:    1493043  HIT:    1334235  MISS:     158808
cpu0_DTLB RFO       ACCESS:     969498  HIT:     939948  MISS:      29550
cpu0_DTLB PREFETCH  ACCESS:          0  HIT:          0  MISS:          0
cpu0_DTLB WRITEBACK ACCESS:          0  HIT:          0  MISS:          0
cpu0_ITLB TOTAL     ACCESS:    1106947  HIT:    1101134  MISS:       5813
cpu0_ITLB LOAD      ACCESS:    1106947  HIT:    1101134  MISS:       5813
cpu0_ITLB RFO       ACCESS:          0  HIT:          0  MISS:          0
cpu0_ITLB PREFETCH  ACCESS:          0  HIT:          0  MISS:          0
cpu0_ITLB WRITEBACK ACCESS:          0  HIT:          0  MISS:          0
cpu0_L1I TOTAL     ACCESS:     972681  HIT:     972541  MISS:        140
cpu0_L1I LOAD      ACCESS:     972681  HIT:     972541  MISS:        140
cpu0_L1I RFO       ACCESS:          0  HIT:          0  MISS:          0
cpu0_L1I PREFETCH  ACCESS:          0  HIT:          0  MISS:          0
cpu0_L1I WRITEBACK ACCESS:          0  HIT:          0  MISS:          0
cpu0_STLB TOTAL     ACCESS:     194171  HIT:     149211  MISS:      44960
cpu0_STLB LOAD      ACCESS:     164621  HIT:     132626  MISS:      31995
cpu0_STLB RFO       ACCESS:      29550  HIT:      16585  MISS:      12965
cpu0_STLB PREFETCH  ACCESS:          0  HIT:          0  MISS:          0
cpu0_STLB WRITEBACK ACCESS:          0  HIT:          0  MISS:          0
cpu0_L1D TOTAL     ACCESS:    3103507  HIT:    2871164  MISS:     232343
cpu0_L1D LOAD      ACCESS:    1538685  HIT:    1339869  MISS:     198816
cpu0_L1D RFO       ACCESS:    1522355  HIT:    1489287  MISS:      33068
cpu0_L1D PREFETCH  ACCESS:          0  HIT:          0  MISS:          0
cpu0_L1D WRITEBACK ACCESS:          0  HIT:          0  MISS:          0
cpu0_L2C TOTAL     ACCESS:     323745  HIT:     111953  MISS:     211792
cpu0_L2C LOAD      ACCESS:     198955  HIT:      19398  MISS:     179557
cpu0_L2C RFO       ACCESS:      33068  HIT:       1158  MISS:      31910
cpu0_L2C PREFETCH  ACCESS:          0  HIT:          0  MISS:          0
cpu0_L2C WRITEBACK ACCESS:      91263  HIT:      91051  MISS:        212
LLC TOTAL     ACCESS:     295431  HIT:      25430  MISS:     270001
LLC LOAD      ACCESS:     179557  HIT:       7296  MISS:     172261
LLC RFO       ACCESS:      31910  HIT:        996  MISS:      30914
LLC PREFETCH  ACCESS:          0  HIT:          0  MISS:          0
LLC WRITEBACK ACCESS:      83851  HIT:      17138  MISS:      66713
Heartbeat CPU 0 instructions: 62000001 cycles: 51628943 heartbeat IPC: 0.297889 cumulative IPC: 0.306682 (Simulation time: 0 hr 34 min 28 sec) 

Region of Interest Statistics
cpu0_DTLB TOTAL     ACCESS:    2955700  HIT:    2735409  MISS:     220291
cpu0_DTLB LOAD      ACCESS:    1789379  HIT:    1602411  MISS:     186968
cpu0_DTLB RFO       ACCESS:    1166321  HIT:    1132998  MISS:      33323
cpu0_DTLB PREFETCH  ACCESS:          0  HIT:          0  MISS:          0
cpu0_DTLB WRITEBACK ACCESS:          0  HIT:          0  MISS:          0
cpu0_ITLB TOTAL     ACCESS:    1323757  HIT:    1315617  MISS:       8140
cpu0_ITLB LOAD      ACCESS:    1323757  HIT:    1315617  MISS:       8140
cpu0_ITLB RFO       ACCESS:          0  HIT:          0  MISS:          0
cpu0_ITLB PREFETCH  ACCESS:          0  HIT:          0  MISS:          0
cpu0_ITLB WRITEBACK ACCESS:          0  HIT:          0  MISS:          0
cpu0_L1I TOTAL     ACCESS:    1174721  HIT:    1174581  MISS:        140
cpu0_L1I LOAD      ACCESS:    1174721  HIT:    1174581  MISS:        140
cpu0_L1I RFO       ACCESS:          0  HIT:          0  MISS:          0
cpu0_L1I PREFETCH  ACCESS:          0  HIT:          0  MISS:          0
cpu0_L1I WRITEBACK ACCESS:          0  HIT:          0  MISS:          0
cpu0_STLB TOTAL     ACCESS:     228431  HIT:     175977  MISS:      52454
cpu0_STLB LOAD      ACCESS:     195108  HIT:     156950  MISS:      38158
cpu0_STLB RFO       ACCESS:      33323  HIT:      19027  MISS:      14296
cpu0_STLB PREFETCH  ACCESS:          0  HIT:          0  MISS:          0
cpu0_STLB WRITEBACK ACCESS:          0  HIT:          0  MISS:          0
cpu0_L1D TOTAL     ACCESS:    3727607  HIT:    3448582  MISS:     279025
cpu0_L1D LOAD      ACCESS:    1842944  HIT:    1605802  MISS:     237142
cpu0_L1D RFO       ACCESS:    1835100  HIT:    1793790  MISS:      41310
cpu0_L1D PREFETCH  ACCESS:          0  HIT:          0  MISS:          0
cpu0_L1D WRITEBACK ACCESS:          0  HIT:          0  MISS:          0
cpu0_L2C TOTAL     ACCESS:     385874  HIT:     128847  MISS:     257027
cpu0_L2C LOAD      ACCESS:     237281  HIT:      20753  MISS:     216528
cpu0_L2C RFO       ACCESS:      41310  HIT:       1214  MISS:      40096
cpu0_L2C PREFETCH  ACCESS:          0  HIT:          0  MISS:          0
cpu0_L2C WRITEBACK ACCESS:     106710  HIT:     106446  MISS:        264
LLC TOTAL     ACCESS:     355309  HIT:      29048  MISS:     326261
LLC LOAD      ACCESS:     216528  HIT:       7725  MISS:     208803
LLC RFO       ACCESS:      40096  HIT:       1045  MISS:      39051
LLC PREFETCH  ACCESS:          0  HIT:          0  MISS:          0
LLC WRITEBACK ACCESS:      98546  HIT:      20277  MISS:      78269
Heartbeat CPU 0 instructions: 64000001 cycles: 57119177 heartbeat IPC: 0.364283 cumulative IPC: 0.31377 (Simulation time: 0 hr 36 min 37 sec) 

Region of Interest Statistics
cpu0_DTLB TOTAL     ACCESS:    3457547  HIT:    3199961  MISS:     257586
cpu0_DTLB LOAD      ACCESS:    2099429  HIT:    1881318  MISS:     218111
cpu0_DTLB RFO       ACCESS:    1358118  HIT:    1318643  MISS:      39475
cpu0_DTLB PREFETCH  ACCESS:          0  HIT:          0  MISS:          0
cpu0_DTLB WRITEBACK ACCESS:          0  HIT:          0  MISS:          0
cpu0_ITLB TOTAL     ACCESS:    1553095  HIT:    1544185  MISS:       8910
cpu0_ITLB LOAD      ACCESS:    1553095  HIT:    1544185  MISS:       8910
cpu0_ITLB RFO       ACCESS:          0  HIT:          0  MISS:          0
cpu0_ITLB PREFETCH  ACCESS:          0  HIT:          0  MISS:          0
cpu0_ITLB WRITEBACK ACCESS:          0  HIT:          0  MISS:          0
cpu0_L1I TOTAL     ACCESS:    1337322  HIT:    1336994  MISS:        328
cpu0_L1I LOAD      ACCESS:    1337322  HIT:    1336994  MISS:        328
cpu0_L1I RFO       ACCESS:          0  HIT:          0  MISS:          0
cpu0_L1I PREFETCH  ACCESS:          0  HIT:          0  MISS:          0
cpu0_L1I WRITEBACK ACCESS:          0  HIT:          0  MISS:          0
cpu0_STLB TOTAL     ACCESS:     266496  HIT:     206767  MISS:      59729
cpu0_STLB LOAD      ACCESS:     227021  HIT:     182970  MISS:      44051
cpu0_STLB RFO       ACCESS:      39475  HIT:      23797  MISS:      15678
cpu0_STLB PREFETCH  ACCESS:          0  HIT:          0  MISS:          0
cpu0_STLB WRITEBACK ACCESS:          0  HIT:          0  MISS:          0
cpu0_L1D TOTAL     ACCESS:    4358228  HIT:    4032290  MISS:     325938
cpu0_L1D LOAD      ACCESS:    2166037  HIT:    1887837  MISS:     278200
cpu0_L1D RFO       ACCESS:    2135966  HIT:    2088932  MISS:      47034
cpu0_L1D PREFETCH  ACCESS:          0  HIT:          0  MISS:          0
cpu0_L1D WRITEBACK ACCESS:          0  HIT:          0  MISS:          0
cpu0_L2C TOTAL     ACCESS:     453002  HIT:     163201  MISS:     289801
cpu0_L2C LOAD      ACCESS:     278526  HIT:      33066  MISS:     245460
cpu0_L2C RFO       ACCESS:      47034  HIT:       3153  MISS:      43881
cpu0_L2C PREFETCH  ACCESS:          0  HIT:          0  MISS:          0
cpu0_L2C WRITEBACK ACCESS:     126738  HIT:     126438  MISS:        300
LLC TOTAL     ACCESS:     400868  HIT:      34768  MISS:     366100
LLC LOAD      ACCESS:     245460  HIT:       9255  MISS:     236205
LLC RFO       ACCESS:      43881  HIT:       1511  MISS:      42370
LLC PREFETCH  ACCESS:          0  HIT:          0  MISS:          0
LLC WRITEBACK ACCESS:     111367  HIT:      24000  MISS:      87367
Heartbeat CPU 0 instructions: 66000001 cycles: 62512802 heartbeat IPC: 0.370808 cumulative IPC: 0.319921 (Simulation time: 0 hr 39 min 7 sec) 

Region of Interest Statistics
cpu0_DTLB TOTAL     ACCESS:    3943677  HIT:    3655497  MISS:     288180
cpu0_DTLB LOAD      ACCESS:    2402712  HIT:    2159124  MISS:     243588
cpu0_DTLB RFO       ACCESS:    1540965  HIT:    1496373  MISS:      44592
cpu0_DTLB PREFETCH  ACCESS:          0  HIT:          0  MISS:          0
cpu0_DTLB WRITEBACK ACCESS:          0  HIT:          0  MISS:          0
cpu0_ITLB TOTAL     ACCESS:    1776219  HIT:    1767074  MISS:       9145
cpu0_ITLB LOAD      ACCESS:    1776219  HIT:    1767074  MISS:       9145
cpu0_ITLB RFO       ACCESS:          0  HIT:          0  MISS:          0
cpu0_ITLB PREFETCH  ACCESS:          0  HIT:          0  MISS:          0
cpu0_ITLB WRITEBACK ACCESS:          0  HIT:          0  MISS:          0
cpu0_L1I TOTAL     ACCESS:    1534527  HIT:    1534192  MISS:        335
cpu0_L1I LOAD      ACCESS:    1534527  HIT:    1534192  MISS:        335
cpu0_L1I RFO       ACCESS:          0  HIT:          0  MISS:          0
cpu0_L1I PREFETCH  ACCESS:          0  HIT:          0  MISS:          0
cpu0_L1I WRITEBACK ACCESS:          0  HIT:          0  MISS:          0
cpu0_STLB TOTAL     ACCESS:     297325  HIT:     230290  MISS:      67035
cpu0_STLB LOAD      ACCESS:     252733  HIT:     203208  MISS:      49525
cpu0_STLB RFO       ACCESS:      44592  HIT:      27082  MISS:      17510
cpu0_STLB PREFETCH  ACCESS:          0  HIT:          0  MISS:          0
cpu0_STLB WRITEBACK ACCESS:          0  HIT:          0  MISS:          0
cpu0_L1D TOTAL     ACCESS:    4981922  HIT:    4615476  MISS:     366446
cpu0_L1D LOAD      ACCESS:    2480842  HIT:    2167775  MISS:     313067
cpu0_L1D RFO       ACCESS:    2437970  HIT:    2385368  MISS:      52602
cpu0_L1D PREFETCH  ACCESS:          0  HIT:          0  MISS:          0
cpu0_L1D WRITEBACK ACCESS:          0  HIT:          0  MISS:          0
cpu0_L2C TOTAL     ACCESS:     510944  HIT:     187220  MISS:     323724
cpu0_L2C LOAD      ACCESS:     313400  HIT:      38710  MISS:     274690
cpu0_L2C RFO       ACCESS:      52602  HIT:       4085  MISS:      48517
cpu0_L2C PREFETCH  ACCESS:          0  HIT:          0  MISS:          0
cpu0_L2C WRITEBACK ACCESS:     144165  HIT:     143831  MISS:        334
LLC TOTAL     ACCESS:     449352  HIT:      40994  MISS:     408358
LLC LOAD      ACCESS:     274690  HIT:      11327  MISS:     263363
LLC RFO       ACCESS:      48517  HIT:       2103  MISS:      46414
LLC PREFETCH  ACCESS:          0  HIT:          0  MISS:          0
LLC WRITEBACK ACCESS:     125962  HIT:      27560  MISS:      98402
Heartbeat CPU 0 instructions: 68000001 cycles: 68166102 heartbeat IPC: 0.353776 cumulative IPC: 0.323359 (Simulation time: 0 hr 41 min 25 sec) 

Region of Interest Statistics
cpu0_DTLB TOTAL     ACCESS:    4437901  HIT:    4120927  MISS:     316974
cpu0_DTLB LOAD      ACCESS:    2703735  HIT:    2434950  MISS:     268785
cpu0_DTLB RFO       ACCESS:    1734166  HIT:    1685977  MISS:      48189
cpu0_DTLB PREFETCH  ACCESS:          0  HIT:          0  MISS:          0
cpu0_DTLB WRITEBACK ACCESS:          0  HIT:          0  MISS:          0
cpu0_ITLB TOTAL     ACCESS:    1996351  HIT:    1985556  MISS:      10795
cpu0_ITLB LOAD      ACCESS:    1996351  HIT:    1985556  MISS:      10795
cpu0_ITLB RFO       ACCESS:          0  HIT:          0  MISS:          0
cpu0_ITLB PREFETCH  ACCESS:          0  HIT:          0  MISS:          0
cpu0_ITLB WRITEBACK ACCESS:          0  HIT:          0  MISS:          0
cpu0_L1I TOTAL     ACCESS:    1730885  HIT:    1730330  MISS:        555
cpu0_L1I LOAD      ACCESS:    1730885  HIT:    1730330  MISS:        555
cpu0_L1I RFO       ACCESS:          0  HIT:          0  MISS:          0
cpu0_L1I PREFETCH  ACCESS:          0  HIT:          0  MISS:          0
cpu0_L1I WRITEBACK ACCESS:          0  HIT:          0  MISS:          0
cpu0_STLB TOTAL     ACCESS:     327770  HIT:     255411  MISS:      72359
cpu0_STLB LOAD      ACCESS:     279581  HIT:     225729  MISS:      53852
cpu0_STLB RFO       ACCESS:      48189  HIT:      29682  MISS:      18507
cpu0_STLB PREFETCH  ACCESS:          0  HIT:          0  MISS:          0
cpu0_STLB WRITEBACK ACCESS:          0  HIT:          0  MISS:          0
cpu0_L1D TOTAL     ACCESS:    5600510  HIT:    5190349  MISS:     410161
cpu0_L1D LOAD      ACCESS:    2785696  HIT:    2436296  MISS:     349400
cpu0_L1D RFO       ACCESS:    2746624  HIT:    2686734  MISS:      59890
cpu0_L1D PREFETCH  ACCESS:          0  HIT:          0  MISS:          0
cpu0_L1D WRITEBACK ACCESS:          0  HIT:          0  MISS:          0
cpu0_L2C TOTAL     ACCESS:     570345  HIT:     212617  MISS:     357728
cpu0_L2C LOAD      ACCESS:     349951  HIT:      47848  MISS:     302103
cpu0_L2C RFO       ACCESS:      59890  HIT:       4856  MISS:      55034
cpu0_L2C PREFETCH  ACCESS:          0  HIT:          0  MISS:          0
cpu0_L2C WRITEBACK ACCESS:     159633  HIT:     159249  MISS:        384
LLC TOTAL     ACCESS:     495305  HIT:      46340  MISS:     448965
LLC LOAD      ACCESS:     302103  HIT:      12960  MISS:     289143
LLC RFO       ACCESS:      55034  HIT:       2249  MISS:      52785
LLC PREFETCH  ACCESS:          0  HIT:          0  MISS:          0
LLC WRITEBACK ACCESS:     137961  HIT:      31124  MISS:     106837
Heartbeat CPU 0 instructions: 70000001 cycles: 74567429 heartbeat IPC: 0.312435 cumulative IPC: 0.322233 (Simulation time: 0 hr 44 min 38 sec) 

Region of Interest Statistics
cpu0_DTLB TOTAL     ACCESS:    4945359  HIT:    4576752  MISS:     368607
cpu0_DTLB LOAD      ACCESS:    3017550  HIT:    2705857  MISS:     311693
cpu0_DTLB RFO       ACCESS:    1927809  HIT:    1870895  MISS:      56914
cpu0_DTLB PREFETCH  ACCESS:          0  HIT:          0  MISS:          0
cpu0_DTLB WRITEBACK ACCESS:          0  HIT:          0  MISS:          0
cpu0_ITLB TOTAL     ACCESS:    2242446  HIT:    2231648  MISS:      10798
cpu0_ITLB LOAD      ACCESS:    2242446  HIT:    2231648  MISS:      10798
cpu0_ITLB RFO       ACCESS:          0  HIT:          0  MISS:          0
cpu0_ITLB PREFETCH  ACCESS:          0  HIT:          0  MISS:          0
cpu0_ITLB WRITEBACK ACCESS:          0  HIT:          0  MISS:          0
cpu0_L1I TOTAL     ACCESS:    1815804  HIT:    1815242  MISS:        562
cpu0_L1I LOAD      ACCESS:    1815804  HIT:    1815242  MISS:        562
cpu0_L1I RFO       ACCESS:          0  HIT:          0  MISS:          0
cpu0_L1I PREFETCH  ACCESS:          0  HIT:          0  MISS:          0
cpu0_L1I WRITEBACK ACCESS:          0  HIT:          0  MISS:          0
cpu0_STLB TOTAL     ACCESS:     379405  HIT:     295728  MISS:      83677
cpu0_STLB LOAD      ACCESS:     322491  HIT:     259519  MISS:      62972
cpu0_STLB RFO       ACCESS:      56914  HIT:      36209  MISS:      20705
cpu0_STLB PREFETCH  ACCESS:          0  HIT:          0  MISS:          0
cpu0_STLB WRITEBACK ACCESS:          0  HIT:          0  MISS:          0
cpu0_L1D TOTAL     ACCESS:    6261434  HIT:    5799102  MISS:     462332
cpu0_L1D LOAD      ACCESS:    3146739  HIT:    2749141  MISS:     397598
cpu0_L1D RFO       ACCESS:    3036723  HIT:    2972972  MISS:      63751
cpu0_L1D PREFETCH  ACCESS:          0  HIT:          0  MISS:          0
cpu0_L1D WRITEBACK ACCESS:          0  HIT:          0  MISS:          0
cpu0_L2C TOTAL     ACCESS:     651709  HIT:     249100  MISS:     402609
cpu0_L2C LOAD      ACCESS:     398155  HIT:      55001  MISS:     343154
cpu0_L2C RFO       ACCESS:      63751  HIT:       4930  MISS:      58821
cpu0_L2C PREFETCH  ACCESS:          0  HIT:          0  MISS:          0
cpu0_L2C WRITEBACK ACCESS:     188820  HIT:     188411  MISS:        409
LLC TOTAL     ACCESS:     564774  HIT:      50536  MISS:     514238
LLC LOAD      ACCESS:     343154  HIT:      13615  MISS:     329539
LLC RFO       ACCESS:      58821  HIT:       2279  MISS:      56542
LLC PREFETCH  ACCESS:          0  HIT:          0  MISS:          0
LLC WRITEBACK ACCESS:     162574  HIT:      34635  MISS:     127939
Heartbeat CPU 0 instructions: 72000000 cycles: 80879535 heartbeat IPC: 0.316851 cumulative IPC: 0.321736 (Simulation time: 0 hr 46 min 50 sec) 

Region of Interest Statistics
cpu0_DTLB TOTAL     ACCESS:    5431392  HIT:    5026384  MISS:     405008
cpu0_DTLB LOAD      ACCESS:    3310629  HIT:    2970191  MISS:     340438
cpu0_DTLB RFO       ACCESS:    2120763  HIT:    2056193  MISS:      64570
cpu0_DTLB PREFETCH  ACCESS:          0  HIT:          0  MISS:          0
cpu0_DTLB WRITEBACK ACCESS:          0  HIT:          0  MISS:          0
cpu0_ITLB TOTAL     ACCESS:    2462970  HIT:    2452020  MISS:      10950
cpu0_ITLB LOAD      ACCESS:    2462970  HIT:    2452020  MISS:      10950
cpu0_ITLB RFO       ACCESS:          0  HIT:          0  MISS:          0
cpu0_ITLB PREFETCH  ACCESS:          0  HIT:          0  MISS:          0
cpu0_ITLB WRITEBACK ACCESS:          0  HIT:          0  MISS:          0
cpu0_L1I TOTAL     ACCESS:    1995698  HIT:    1995117  MISS:        581
cpu0_L1I LOAD      ACCESS:    1995698  HIT:    1995117  MISS:        581
cpu0_L1I RFO       ACCESS:          0  HIT:          0  MISS:          0
cpu0_L1I PREFETCH  ACCESS:          0  HIT:          0  MISS:          0
cpu0_L1I WRITEBACK ACCESS:          0  HIT:          0  MISS:          0
cpu0_STLB TOTAL     ACCESS:     415958  HIT:     322940  MISS:      93018
cpu0_STLB LOAD      ACCESS:     351388  HIT:     282322  MISS:      69066
cpu0_STLB RFO       ACCESS:      64570  HIT:      40618  MISS:      23952
cpu0_STLB PREFETCH  ACCESS:          0  HIT:          0  MISS:          0
cpu0_STLB WRITEBACK ACCESS:          0  HIT:          0  MISS:          0
cpu0_L1D TOTAL     ACCESS:    6883269  HIT:    6376294  MISS:     506975
cpu0_L1D LOAD      ACCESS:    3456423  HIT:    3019476  MISS:     436947
cpu0_L1D RFO       ACCESS:    3340189  HIT:    3271235  MISS:      68954
cpu0_L1D PREFETCH  ACCESS:          0  HIT:          0  MISS:          0
cpu0_L1D WRITEBACK ACCESS:          0  HIT:          0  MISS:          0
cpu0_L2C TOTAL     ACCESS:     718059  HIT:     276247  MISS:     441812
cpu0_L2C LOAD      ACCESS:     437522  HIT:      60327  MISS:     377195
cpu0_L2C RFO       ACCESS:      68954  HIT:       5039  MISS:      63915
cpu0_L2C PREFETCH  ACCESS:          0  HIT:          0  MISS:          0
cpu0_L2C WRITEBACK ACCESS:     210509  HIT:     210053  MISS:        456
LLC TOTAL     ACCESS:     624878  HIT:      54366  MISS:     570512
LLC LOAD      ACCESS:     377195  HIT:      14894  MISS:     362301
LLC RFO       ACCESS:      63915  HIT:       2315  MISS:      61600
LLC PREFETCH  ACCESS:          0  HIT:          0  MISS:          0
LLC WRITEBACK ACCESS:     183522  HIT:      37150  MISS:     146372
Heartbeat CPU 0 instructions: 74000001 cycles: 87505434 heartbeat IPC: 0.301846 cumulative IPC: 0.319979 (Simulation time: 0 hr 48 min 32 sec) 

Region of Interest Statistics
cpu0_DTLB TOTAL     ACCESS:    5925268  HIT:    5480680  MISS:     444588
cpu0_DTLB LOAD      ACCESS:    3609200  HIT:    3234356  MISS:     374844
cpu0_DTLB RFO       ACCESS:    2316068  HIT:    2246324  MISS:      69744
cpu0_DTLB PREFETCH  ACCESS:          0  HIT:          0  MISS:          0
cpu0_DTLB WRITEBACK ACCESS:          0  HIT:          0  MISS:          0
cpu0_ITLB TOTAL     ACCESS:    2678997  HIT:    2665711  MISS:      13286
cpu0_ITLB LOAD      ACCESS:    2678997  HIT:    2665711  MISS:      13286
cpu0_ITLB RFO       ACCESS:          0  HIT:          0  MISS:          0
cpu0_ITLB PREFETCH  ACCESS:          0  HIT:          0  MISS:          0
cpu0_ITLB WRITEBACK ACCESS:          0  HIT:          0  MISS:          0
cpu0_L1I TOTAL     ACCESS:    2198939  HIT:    2198356  MISS:        583
cpu0_L1I LOAD      ACCESS:    2198939  HIT:    2198356  MISS:        583
cpu0_L1I RFO       ACCESS:          0  HIT:          0  MISS:          0
cpu0_L1I PREFETCH  ACCESS:          0  HIT:          0  MISS:          0
cpu0_L1I WRITEBACK ACCESS:          0  HIT:          0  MISS:          0
cpu0_STLB TOTAL     ACCESS:     457874  HIT:     356804  MISS:     101070
cpu0_STLB LOAD      ACCESS:     388130  HIT:     312830  MISS:      75300
cpu0_STLB RFO       ACCESS:      69744  HIT:      43974  MISS:      25770
cpu0_STLB PREFETCH  ACCESS:          0  HIT:          0  MISS:          0
cpu0_STLB WRITEBACK ACCESS:          0  HIT:          0  MISS:          0
cpu0_L1D TOTAL     ACCESS:    7506446  HIT:    6952424  MISS:     554022
cpu0_L1D LOAD      ACCESS:    3764149  HIT:    3287316  MISS:     476833
cpu0_L1D RFO       ACCESS:    3648028  HIT:    3571977  MISS:      76051
cpu0_L1D PREFETCH  ACCESS:          0  HIT:          0  MISS:          0
cpu0_L1D WRITEBACK ACCESS:          0  HIT:          0  MISS:          0
cpu0_L2C TOTAL     ACCESS:     781367  HIT:     294204  MISS:     487163
cpu0_L2C LOAD      ACCESS:     477410  HIT:      61964  MISS:     415446
cpu0_L2C RFO       ACCESS:      76051  HIT:       5092  MISS:      70959
cpu0_L2C PREFETCH  ACCESS:          0  HIT:          0  MISS:          0
cpu0_L2C WRITEBACK ACCESS:     226768  HIT:     226273  MISS:        495
LLC TOTAL     ACCESS:     685768  HIT:      58971  MISS:     626797
LLC LOAD      ACCESS:     415446  HIT:      16182  MISS:     399264
LLC RFO       ACCESS:      70959  HIT:       2459  MISS:      68500
LLC PREFETCH  ACCESS:          0  HIT:          0  MISS:          0
LLC WRITEBACK ACCESS:     199100  HIT:      40323  MISS:     158777
Heartbeat CPU 0 instructions: 76000002 cycles: 94017417 heartbeat IPC: 0.307126 cumulative IPC: 0.318952 (Simulation time: 0 hr 50 min 58 sec) 

Region of Interest Statistics
cpu0_DTLB TOTAL     ACCESS:    6431801  HIT:    5943095  MISS:     488706
cpu0_DTLB LOAD      ACCESS:    3925933  HIT:    3513998  MISS:     411935
cpu0_DTLB RFO       ACCESS:    2505868  HIT:    2429097  MISS:      76771
cpu0_DTLB PREFETCH  ACCESS:          0  HIT:          0  MISS:          0
cpu0_DTLB WRITEBACK ACCESS:          0  HIT:          0  MISS:          0
cpu0_ITLB TOTAL     ACCESS:    2918366  HIT:    2905001  MISS:      13365
cpu0_ITLB LOAD      ACCESS:    2918366  HIT:    2905001  MISS:      13365
cpu0_ITLB RFO       ACCESS:          0  HIT:          0  MISS:          0
cpu0_ITLB PREFETCH  ACCESS:          0  HIT:          0  MISS:          0
cpu0_ITLB WRITEBACK ACCESS:          0  HIT:          0  MISS:          0
cpu0_L1I TOTAL     ACCESS:    2315845  HIT:    2315256  MISS:        589
cpu0_L1I LOAD      ACCESS:    2315845  HIT:    2315256  MISS:        589
cpu0_L1I RFO       ACCESS:          0  HIT:          0  MISS:          0
cpu0_L1I PREFETCH  ACCESS:          0  HIT:          0  MISS:          0
cpu0_L1I WRITEBACK ACCESS:          0  HIT:          0  MISS:          0
cpu0_STLB TOTAL     ACCESS:     502071  HIT:     390506  MISS:     111565
cpu0_STLB LOAD      ACCESS:     425300  HIT:     342070  MISS:      83230
cpu0_STLB RFO       ACCESS:      76771  HIT:      48436  MISS:      28335
cpu0_STLB PREFETCH  ACCESS:          0  HIT:          0  MISS:          0
cpu0_STLB WRITEBACK ACCESS:          0  HIT:          0  MISS:          0
cpu0_L1D TOTAL     ACCESS:    8150148  HIT:    7543483  MISS:     606665
cpu0_L1D LOAD      ACCESS:    4114004  HIT:    3590166  MISS:     523838
cpu0_L1D RFO       ACCESS:    3932433  HIT:    3850840  MISS:      81593
cpu0_L1D PREFETCH  ACCESS:          0  HIT:          0  MISS:          0
cpu0_L1D WRITEBACK ACCESS:          0  HIT:          0  MISS:          0
cpu0_L2C TOTAL     ACCESS:     860654  HIT:     325996  MISS:     534658
cpu0_L2C LOAD      ACCESS:     524420  HIT:      66992  MISS:     457428
cpu0_L2C RFO       ACCESS:      81593  HIT:       5184  MISS:      76409
cpu0_L2C PREFETCH  ACCESS:          0  HIT:          0  MISS:          0
cpu0_L2C WRITEBACK ACCESS:     253407  HIT:     252874  MISS:        533
LLC TOTAL     ACCESS:     756797  HIT:      63884  MISS:     692913
LLC LOAD      ACCESS:     457428  HIT:      16999  MISS:     440429
LLC RFO       ACCESS:      76409  HIT:       2552  MISS:      73857
LLC PREFETCH  ACCESS:          0  HIT:          0  MISS:          0
LLC WRITEBACK ACCESS:     222672  HIT:      44326  MISS:     178346
Heartbeat CPU 0 instructions: 78000000 cycles: 100370718 heartbeat IPC: 0.314797 cumulative IPC: 0.318652 (Simulation time: 0 hr 53 min 19 sec) 

Region of Interest Statistics
cpu0_DTLB TOTAL     ACCESS:    6915301  HIT:    6389535  MISS:     525766
cpu0_DTLB LOAD      ACCESS:    4213315  HIT:    3772248  MISS:     441067
cpu0_DTLB RFO       ACCESS:    2701986  HIT:    2617287  MISS:      84699
cpu0_DTLB PREFETCH  ACCESS:          0  HIT:          0  MISS:          0
cpu0_DTLB WRITEBACK ACCESS:          0  HIT:          0  MISS:          0
cpu0_ITLB TOTAL     ACCESS:    3146175  HIT:    3132558  MISS:      13617
cpu0_ITLB LOAD      ACCESS:    3146175  HIT:    3132558  MISS:      13617
cpu0_ITLB RFO       ACCESS:          0  HIT:          0  MISS:          0
cpu0_ITLB PREFETCH  ACCESS:          0  HIT:          0  MISS:          0
cpu0_ITLB WRITEBACK ACCESS:          0  HIT:          0  MISS:          0
cpu0_L1I TOTAL     ACCESS:    2466425  HIT:    2465805  MISS:        620
cpu0_L1I LOAD      ACCESS:    2466425  HIT:    2465805  MISS:        620
cpu0_L1I RFO       ACCESS:          0  HIT:          0  MISS:          0
cpu0_L1I PREFETCH  ACCESS:          0  HIT:          0  MISS:          0
cpu0_L1I WRITEBACK ACCESS:          0  HIT:          0  MISS:          0
cpu0_STLB TOTAL     ACCESS:     539383  HIT:     416924  MISS:     122459
cpu0_STLB LOAD      ACCESS:     454684  HIT:     364785  MISS:      89899
cpu0_STLB RFO       ACCESS:      84699  HIT:      52139  MISS:      32560
cpu0_STLB PREFETCH  ACCESS:          0  HIT:          0  MISS:          0
cpu0_STLB WRITEBACK ACCESS:          0  HIT:          0  MISS:          0
cpu0_L1D TOTAL     ACCESS:    8769318  HIT:    8119689  MISS:     649629
cpu0_L1D LOAD      ACCESS:    4421109  HIT:    3859603  MISS:     561506
cpu0_L1D RFO       ACCESS:    4234105  HIT:    4147293  MISS:      86812
cpu0_L1D PREFETCH  ACCESS:          0  HIT:          0  MISS:          0
cpu0_L1D WRITEBACK ACCESS:          0  HIT:          0  MISS:          0
cpu0_L2C TOTAL     ACCESS:     924904  HIT:     350580  MISS:     574324
cpu0_L2C LOAD      ACCESS:     562119  HIT:      69979  MISS:     492140
cpu0_L2C RFO       ACCESS:      86812  HIT:       5517  MISS:      81295
cpu0_L2C PREFETCH  ACCESS:          0  HIT:          0  MISS:          0
cpu0_L2C WRITEBACK ACCESS:     274662  HIT:     274087  MISS:        575
LLC TOTAL     ACCESS:     817049  HIT:      67438  MISS:     749611
LLC LOAD      ACCESS:     492140  HIT:      18014  MISS:     474126
LLC RFO       ACCESS:      81295  HIT:       2664  MISS:      78631
LLC PREFETCH  ACCESS:          0  HIT:          0  MISS:          0
LLC WRITEBACK ACCESS:     243300  HIT:      46753  MISS:     196547
Heartbeat CPU 0 instructions: 80000002 cycles: 107365130 heartbeat IPC: 0.285943 cumulative IPC: 0.31624 (Simulation time: 0 hr 55 min 20 sec) 

Region of Interest Statistics
cpu0_DTLB TOTAL     ACCESS:    7411522  HIT:    6840158  MISS:     571364
cpu0_DTLB LOAD      ACCESS:    4513010  HIT:    4033842  MISS:     479168
cpu0_DTLB RFO       ACCESS:    2898512  HIT:    2806316  MISS:      92196
cpu0_DTLB PREFETCH  ACCESS:          0  HIT:          0  MISS:          0
cpu0_DTLB WRITEBACK ACCESS:          0  HIT:          0  MISS:          0
cpu0_ITLB TOTAL     ACCESS:    3366150  HIT:    3350750  MISS:      15400
cpu0_ITLB LOAD      ACCESS:    3366150  HIT:    3350750  MISS:      15400
cpu0_ITLB RFO       ACCESS:          0  HIT:          0  MISS:          0
cpu0_ITLB PREFETCH  ACCESS:          0  HIT:          0  MISS:          0
cpu0_ITLB WRITEBACK ACCESS:          0  HIT:          0  MISS:          0
cpu0_L1I TOTAL     ACCESS:    2642779  HIT:    2642157  MISS:        622
cpu0_L1I LOAD      ACCESS:    2642779  HIT:    2642157  MISS:        622
cpu0_L1I RFO       ACCESS:          0  HIT:          0  MISS:          0
cpu0_L1I PREFETCH  ACCESS:          0  HIT:          0  MISS:          0
cpu0_L1I WRITEBACK ACCESS:          0  HIT:          0  MISS:          0
cpu0_STLB TOTAL     ACCESS:     586764  HIT:     453405  MISS:     133359
cpu0_STLB LOAD      ACCESS:     494568  HIT:     396946  MISS:      97622
cpu0_STLB RFO       ACCESS:      92196  HIT:      56459  MISS:      35737
cpu0_STLB PREFETCH  ACCESS:          0  HIT:          0  MISS:          0
cpu0_STLB WRITEBACK ACCESS:          0  HIT:          0  MISS:          0
cpu0_L1D TOTAL     ACCESS:    9407819  HIT:    8703986  MISS:     703833
cpu0_L1D LOAD      ACCESS:    4743773  HIT:    4133977  MISS:     609796
cpu0_L1D RFO       ACCESS:    4539879  HIT:    4447243  MISS:      92636
cpu0_L1D PREFETCH  ACCESS:          0  HIT:          0  MISS:          0
cpu0_L1D WRITEBACK ACCESS:          0  HIT:          0  MISS:          0
cpu0_L2C TOTAL     ACCESS:    1002333  HIT:     379380  MISS:     622953
cpu0_L2C LOAD      ACCESS:     610411  HIT:      75446  MISS:     534965
cpu0_L2C RFO       ACCESS:      92636  HIT:       5603  MISS:      87033
cpu0_L2C PREFETCH  ACCESS:          0  HIT:          0  MISS:          0
cpu0_L2C WRITEBACK ACCESS:     297885  HIT:     297260  MISS:        625
LLC TOTAL     ACCESS:     887212  HIT:      73056  MISS:     814156
LLC LOAD      ACCESS:     534965  HIT:      19560  MISS:     515405
LLC RFO       ACCESS:      87033  HIT:       2717  MISS:      84316
LLC PREFETCH  ACCESS:          0  HIT:          0  MISS:          0
LLC WRITEBACK ACCESS:     264884  HIT:      50772  MISS:     214112
Heartbeat CPU 0 instructions: 82000000 cycles: 113568854 heartbeat IPC: 0.322387 cumulative IPC: 0.316617 (Simulation time: 0 hr 56 min 56 sec) 

Region of Interest Statistics
cpu0_DTLB TOTAL     ACCESS:    7920182  HIT:    7305466  MISS:     614716
cpu0_DTLB LOAD      ACCESS:    4824643  HIT:    4309724  MISS:     514919
cpu0_DTLB RFO       ACCESS:    3095539  HIT:    2995742  MISS:      99797
cpu0_DTLB PREFETCH  ACCESS:          0  HIT:          0  MISS:          0
cpu0_DTLB WRITEBACK ACCESS:          0  HIT:          0  MISS:          0
cpu0_ITLB TOTAL     ACCESS:    3597813  HIT:    3581725  MISS:      16088
cpu0_ITLB LOAD      ACCESS:    3597813  HIT:    3581725  MISS:      16088
cpu0_ITLB RFO       ACCESS:          0  HIT:          0  MISS:          0
cpu0_ITLB PREFETCH  ACCESS:          0  HIT:          0  MISS:          0
cpu0_ITLB WRITEBACK ACCESS:          0  HIT:          0  MISS:          0
cpu0_L1I TOTAL     ACCESS:    2795192  HIT:    2794436  MISS:        756
cpu0_L1I LOAD      ACCESS:    2795192  HIT:    2794436  MISS:        756
cpu0_L1I RFO       ACCESS:          0  HIT:          0  MISS:          0
cpu0_L1I PREFETCH  ACCESS:          0  HIT:          0  MISS:          0
cpu0_L1I WRITEBACK ACCESS:          0  HIT:          0  MISS:          0
cpu0_STLB TOTAL     ACCESS:     630804  HIT:     488918  MISS:     141886
cpu0_STLB LOAD      ACCESS:     531007  HIT:     427468  MISS:     103539
cpu0_STLB RFO       ACCESS:      99797  HIT:      61450  MISS:      38347
cpu0_STLB PREFETCH  ACCESS:          0  HIT:          0  MISS:          0
cpu0_STLB WRITEBACK ACCESS:          0  HIT:          0  MISS:          0
cpu0_L1D TOTAL     ACCESS:   10036220  HIT:    9284586  MISS:     751634
cpu0_L1D LOAD      ACCESS:    5074726  HIT:    4425097  MISS:     649629
cpu0_L1D RFO       ACCESS:    4829419  HIT:    4728910  MISS:     100509
cpu0_L1D PREFETCH  ACCESS:          0  HIT:          0  MISS:          0
cpu0_L1D WRITEBACK ACCESS:          0  HIT:          0  MISS:          0
cpu0_L2C TOTAL     ACCESS:    1071370  HIT:     406562  MISS:     664808
cpu0_L2C LOAD      ACCESS:     650378  HIT:      81007  MISS:     569371
cpu0_L2C RFO       ACCESS:     100509  HIT:       6104  MISS:      94405
cpu0_L2C PREFETCH  ACCESS:          0  HIT:          0  MISS:          0
cpu0_L2C WRITEBACK ACCESS:     318987  HIT:     318310  MISS:        677
LLC TOTAL     ACCESS:     945573  HIT:      77634  MISS:     867939
LLC LOAD      ACCESS:     569371  HIT:      20290  MISS:     549081
LLC RFO       ACCESS:      94405  HIT:       2834  MISS:      91571
LLC PREFETCH  ACCESS:          0  HIT:          0  MISS:          0
LLC WRITEBACK ACCESS:     281442  HIT:      54502  MISS:     226940
Heartbeat CPU 0 instructions: 84000003 cycles: 120966261 heartbeat IPC: 0.270365 cumulative IPC: 0.313463 (Simulation time: 0 hr 58 min 51 sec) 

Region of Interest Statistics
cpu0_DTLB TOTAL     ACCESS:    8423638  HIT:    7762678  MISS:     660960
cpu0_DTLB LOAD      ACCESS:    5130499  HIT:    4576693  MISS:     553806
cpu0_DTLB RFO       ACCESS:    3293139  HIT:    3185985  MISS:     107154
cpu0_DTLB PREFETCH  ACCESS:          0  HIT:          0  MISS:          0
cpu0_DTLB WRITEBACK ACCESS:          0  HIT:          0  MISS:          0
cpu0_ITLB TOTAL     ACCESS:    3822964  HIT:    3805303  MISS:      17661
cpu0_ITLB LOAD      ACCESS:    3822964  HIT:    3805303  MISS:      17661
cpu0_ITLB RFO       ACCESS:          0  HIT:          0  MISS:          0
cpu0_ITLB PREFETCH  ACCESS:          0  HIT:          0  MISS:          0
cpu0_ITLB WRITEBACK ACCESS:          0  HIT:          0  MISS:          0
cpu0_L1I TOTAL     ACCESS:    2962191  HIT:    2961427  MISS:        764
cpu0_L1I LOAD      ACCESS:    2962191  HIT:    2961427  MISS:        764
cpu0_L1I RFO       ACCESS:          0  HIT:          0  MISS:          0
cpu0_L1I PREFETCH  ACCESS:          0  HIT:          0  MISS:          0
cpu0_L1I WRITEBACK ACCESS:          0  HIT:          0  MISS:          0
cpu0_STLB TOTAL     ACCESS:     678621  HIT:     525738  MISS:     152883
cpu0_STLB LOAD      ACCESS:     571467  HIT:     459607  MISS:     111860
cpu0_STLB RFO       ACCESS:     107154  HIT:      66131  MISS:      41023
cpu0_STLB PREFETCH  ACCESS:          0  HIT:          0  MISS:          0
cpu0_STLB WRITEBACK ACCESS:          0  HIT:          0  MISS:          0
cpu0_L1D TOTAL     ACCESS:   10688105  HIT:    9879471  MISS:     808634
cpu0_L1D LOAD      ACCESS:    5411666  HIT:    4710918  MISS:     700748
cpu0_L1D RFO       ACCESS:    5134613  HIT:    5028323  MISS:     106290
cpu0_L1D PREFETCH  ACCESS:          0  HIT:          0  MISS:          0
cpu0_L1D WRITEBACK ACCESS:          0  HIT:          0  MISS:          0
cpu0_L2C TOTAL     ACCESS:    1153578  HIT:     439868  MISS:     713710
cpu0_L2C LOAD      ACCESS:     701504  HIT:      89011  MISS:     612493
cpu0_L2C RFO       ACCESS:     106290  HIT:       6181  MISS:     100109
cpu0_L2C PREFETCH  ACCESS:          0  HIT:          0  MISS:          0
cpu0_L2C WRITEBACK ACCESS:     344188  HIT:     343457  MISS:        731
LLC TOTAL     ACCESS:    1018777  HIT:      81845  MISS:     936932
LLC LOAD      ACCESS:     612493  HIT:      21031  MISS:     591462
LLC RFO       ACCESS:     100109  HIT:       2875  MISS:      97234
LLC PREFETCH  ACCESS:          0  HIT:          0  MISS:          0
LLC WRITEBACK ACCESS:     305798  HIT:      57930  MISS:     247868
Heartbeat CPU 0 instructions: 86000001 cycles: 127455308 heartbeat IPC: 0.308211 cumulative IPC: 0.313166 (Simulation time: 1 hr 0 min 25 sec) 

Region of Interest Statistics
cpu0_DTLB TOTAL     ACCESS:    8918242  HIT:    8218684  MISS:     699558
cpu0_DTLB LOAD      ACCESS:    5430972  HIT:    4844810  MISS:     586162
cpu0_DTLB RFO       ACCESS:    3487270  HIT:    3373874  MISS:     113396
cpu0_DTLB PREFETCH  ACCESS:          0  HIT:          0  MISS:          0
cpu0_DTLB WRITEBACK ACCESS:          0  HIT:          0  MISS:          0
cpu0_ITLB TOTAL     ACCESS:    4046365  HIT:    4027743  MISS:      18622
cpu0_ITLB LOAD      ACCESS:    4046365  HIT:    4027743  MISS:      18622
cpu0_ITLB RFO       ACCESS:          0  HIT:          0  MISS:          0
cpu0_ITLB PREFETCH  ACCESS:          0  HIT:          0  MISS:          0
cpu0_ITLB WRITEBACK ACCESS:          0  HIT:          0  MISS:          0
cpu0_L1I TOTAL     ACCESS:    3156673  HIT:    3155855  MISS:        818
cpu0_L1I LOAD      ACCESS:    3156673  HIT:    3155855  MISS:        818
cpu0_L1I RFO       ACCESS:          0  HIT:          0  MISS:          0
cpu0_L1I PREFETCH  ACCESS:          0  HIT:          0  MISS:          0
cpu0_L1I WRITEBACK ACCESS:          0  HIT:          0  MISS:          0
cpu0_STLB TOTAL     ACCESS:     718180  HIT:     556631  MISS:     161549
cpu0_STLB LOAD      ACCESS:     604784  HIT:     486874  MISS:     117910
cpu0_STLB RFO       ACCESS:     113396  HIT:      69757  MISS:      43639
cpu0_STLB PREFETCH  ACCESS:          0  HIT:          0  MISS:          0
cpu0_STLB WRITEBACK ACCESS:          0  HIT:          0  MISS:          0
cpu0_L1D TOTAL     ACCESS:   11305079  HIT:   10451363  MISS:     853716
cpu0_L1D LOAD      ACCESS:    5720424  HIT:    4981858  MISS:     738566
cpu0_L1D RFO       ACCESS:    5434582  HIT:    5321119  MISS:     113463
cpu0_L1D PREFETCH  ACCESS:          0  HIT:          0  MISS:          0
cpu0_L1D WRITEBACK ACCESS:          0  HIT:          0  MISS:          0
cpu0_L2C TOTAL     ACCESS:    1215652  HIT:     460468  MISS:     755184
cpu0_L2C LOAD      ACCESS:     739376  HIT:      92442  MISS:     646934
cpu0_L2C RFO       ACCESS:     113463  HIT:       6401  MISS:     107062
cpu0_L2C PREFETCH  ACCESS:          0  HIT:          0  MISS:          0
cpu0_L2C WRITEBACK ACCESS:     361126  HIT:     360341  MISS:        785
LLC TOTAL     ACCESS:    1074889  HIT:      85696  MISS:     989193
LLC LOAD      ACCESS:     646934  HIT:      21576  MISS:     625358
LLC RFO       ACCESS:     107062  HIT:       2934  MISS:     104128
LLC PREFETCH  ACCESS:          0  HIT:          0  MISS:          0
LLC WRITEBACK ACCESS:     320490  HIT:      61176  MISS:     259314
Heartbeat CPU 0 instructions: 88000001 cycles: 132982639 heartbeat IPC: 0.361838 cumulative IPC: 0.315399 (Simulation time: 1 hr 1 min 49 sec) 

Region of Interest Statistics
cpu0_DTLB TOTAL     ACCESS:    9399399  HIT:    8669459  MISS:     729940
cpu0_DTLB LOAD      ACCESS:    5722262  HIT:    5110113  MISS:     612149
cpu0_DTLB RFO       ACCESS:    3677137  HIT:    3559346  MISS:     117791
cpu0_DTLB PREFETCH  ACCESS:          0  HIT:          0  MISS:          0
cpu0_DTLB WRITEBACK ACCESS:          0  HIT:          0  MISS:          0
cpu0_ITLB TOTAL     ACCESS:    4270761  HIT:    4251847  MISS:      18914
cpu0_ITLB LOAD      ACCESS:    4270761  HIT:    4251847  MISS:      18914
cpu0_ITLB RFO       ACCESS:          0  HIT:          0  MISS:          0
cpu0_ITLB PREFETCH  ACCESS:          0  HIT:          0  MISS:          0
cpu0_ITLB WRITEBACK ACCESS:          0  HIT:          0  MISS:          0
cpu0_L1I TOTAL     ACCESS:    3380423  HIT:    3379601  MISS:        822
cpu0_L1I LOAD      ACCESS:    3380423  HIT:    3379601  MISS:        822
cpu0_L1I RFO       ACCESS:          0  HIT:          0  MISS:          0
cpu0_L1I PREFETCH  ACCESS:          0  HIT:          0  MISS:          0
cpu0_L1I WRITEBACK ACCESS:          0  HIT:          0  MISS:          0
cpu0_STLB TOTAL     ACCESS:     748854  HIT:     580574  MISS:     168280
cpu0_STLB LOAD      ACCESS:     631063  HIT:     508081  MISS:     122982
cpu0_STLB RFO       ACCESS:     117791  HIT:      72493  MISS:      45298
cpu0_STLB PREFETCH  ACCESS:          0  HIT:          0  MISS:          0
cpu0_STLB WRITEBACK ACCESS:          0  HIT:          0  MISS:          0
cpu0_L1D TOTAL     ACCESS:   11913269  HIT:   11024185  MISS:     889084
cpu0_L1D LOAD      ACCESS:    6008339  HIT:    5240778  MISS:     767561
cpu0_L1D RFO       ACCESS:    5748366  HIT:    5628580  MISS:     119786
cpu0_L1D PREFETCH  ACCESS:          0  HIT:          0  MISS:          0
cpu0_L1D WRITEBACK ACCESS:          0  HIT:          0  MISS:          0
cpu0_L2C TOTAL     ACCESS:    1264997  HIT:     476231  MISS:     788766
cpu0_L2C LOAD      ACCESS:     768375  HIT:      94200  MISS:     674175
cpu0_L2C RFO       ACCESS:     119786  HIT:       6424  MISS:     113362
cpu0_L2C PREFETCH  ACCESS:          0  HIT:          0  MISS:          0
cpu0_L2C WRITEBACK ACCESS:     375099  HIT:     374286  MISS:        813
LLC TOTAL     ACCESS:    1121504  HIT:      88383  MISS:    1033121
LLC LOAD      ACCESS:     674175  HIT:      21840  MISS:     652335
LLC RFO       ACCESS:     113362  HIT:       2957  MISS:     110405
LLC PREFETCH  ACCESS:          0  HIT:          0  MISS:          0
LLC WRITEBACK ACCESS:     333551  HIT:      63576  MISS:     269975
Heartbeat CPU 0 instructions: 90000001 cycles: 139638200 heartbeat IPC: 0.300501 cumulative IPC: 0.314619 (Simulation time: 1 hr 3 min 28 sec) 

Region of Interest Statistics
cpu0_DTLB TOTAL     ACCESS:    9889862  HIT:    9119220  MISS:     770642
cpu0_DTLB LOAD      ACCESS:    6019526  HIT:    5371241  MISS:     648285
cpu0_DTLB RFO       ACCESS:    3870336  HIT:    3747979  MISS:     122357
cpu0_DTLB PREFETCH  ACCESS:          0  HIT:          0  MISS:          0
cpu0_DTLB WRITEBACK ACCESS:          0  HIT:          0  MISS:          0
cpu0_ITLB TOTAL     ACCESS:    4489268  HIT:    4467776  MISS:      21492
cpu0_ITLB LOAD      ACCESS:    4489268  HIT:    4467776  MISS:      21492
cpu0_ITLB RFO       ACCESS:          0  HIT:          0  MISS:          0
cpu0_ITLB PREFETCH  ACCESS:          0  HIT:          0  MISS:          0
cpu0_ITLB WRITEBACK ACCESS:          0  HIT:          0  MISS:          0
cpu0_L1I TOTAL     ACCESS:    3585076  HIT:    3584239  MISS:        837
cpu0_L1I LOAD      ACCESS:    3585076  HIT:    3584239  MISS:        837
cpu0_L1I RFO       ACCESS:          0  HIT:          0  MISS:          0
cpu0_L1I PREFETCH  ACCESS:          0  HIT:          0  MISS:          0
cpu0_L1I WRITEBACK ACCESS:          0  HIT:          0  MISS:          0
cpu0_STLB TOTAL     ACCESS:     792134  HIT:     616186  MISS:     175948
cpu0_STLB LOAD      ACCESS:     669777  HIT:     540341  MISS:     129436
cpu0_STLB RFO       ACCESS:     122357  HIT:      75845  MISS:      46512
cpu0_STLB PREFETCH  ACCESS:          0  HIT:          0  MISS:          0
cpu0_STLB WRITEBACK ACCESS:          0  HIT:          0  MISS:          0
cpu0_L1D TOTAL     ACCESS:   12538378  HIT:   11603696  MISS:     934682
cpu0_L1D LOAD      ACCESS:    6315560  HIT:    5509545  MISS:     806015
cpu0_L1D RFO       ACCESS:    6058943  HIT:    5932068  MISS:     126875
cpu0_L1D PREFETCH  ACCESS:          0  HIT:          0  MISS:          0
cpu0_L1D WRITEBACK ACCESS:          0  HIT:          0  MISS:          0
cpu0_L2C TOTAL     ACCESS:    1325957  HIT:     492876  MISS:     833081
cpu0_L2C LOAD      ACCESS:     806844  HIT:      95437  MISS:     711407
cpu0_L2C RFO       ACCESS:     126875  HIT:       6481  MISS:     120394
cpu0_L2C PREFETCH  ACCESS:          0  HIT:          0  MISS:          0
cpu0_L2C WRITEBACK ACCESS:     390446  HIT:     389599  MISS:        847
LLC TOTAL     ACCESS:    1181547  HIT:      90865  MISS:    1090682
LLC LOAD      ACCESS:     711407  HIT:      21923  MISS:     689484
LLC RFO       ACCESS:     120394  HIT:       2967  MISS:     117427
LLC PREFETCH  ACCESS:          0  HIT:          0  MISS:          0
LLC WRITEBACK ACCESS:     349313  HIT:      65965  MISS:     283348
Heartbeat CPU 0 instructions: 92000000 cycles: 146414076 heartbeat IPC: 0.295165 cumulative IPC: 0.313635 (Simulation time: 1 hr 5 min 6 sec) 

Region of Interest Statistics
cpu0_DTLB TOTAL     ACCESS:   10383066  HIT:    9580632  MISS:     802434
cpu0_DTLB LOAD      ACCESS:    6316720  HIT:    5641249  MISS:     675471
cpu0_DTLB RFO       ACCESS:    4066346  HIT:    3939383  MISS:     126963
cpu0_DTLB PREFETCH  ACCESS:          0  HIT:          0  MISS:          0
cpu0_DTLB WRITEBACK ACCESS:          0  HIT:          0  MISS:          0
cpu0_ITLB TOTAL     ACCESS:    4707845  HIT:    4684468  MISS:      23377
cpu0_ITLB LOAD      ACCESS:    4707845  HIT:    4684468  MISS:      23377
cpu0_ITLB RFO       ACCESS:          0  HIT:          0  MISS:          0
cpu0_ITLB PREFETCH  ACCESS:          0  HIT:          0  MISS:          0
cpu0_ITLB WRITEBACK ACCESS:          0  HIT:          0  MISS:          0
cpu0_L1I TOTAL     ACCESS:    3779362  HIT:    3778523  MISS:        839
cpu0_L1I LOAD      ACCESS:    3779362  HIT:    3778523  MISS:        839
cpu0_L1I RFO       ACCESS:          0  HIT:          0  MISS:          0
cpu0_L1I PREFETCH  ACCESS:          0  HIT:          0  MISS:          0
cpu0_L1I WRITEBACK ACCESS:          0  HIT:          0  MISS:          0
cpu0_STLB TOTAL     ACCESS:     825811  HIT:     641621  MISS:     184190
cpu0_STLB LOAD      ACCESS:     698848  HIT:     563271  MISS:     135577
cpu0_STLB RFO       ACCESS:     126963  HIT:      78350  MISS:      48613
cpu0_STLB PREFETCH  ACCESS:          0  HIT:          0  MISS:          0
cpu0_STLB WRITEBACK ACCESS:          0  HIT:          0  MISS:          0
cpu0_L1D TOTAL     ACCESS:   13157665  HIT:   12175919  MISS:     981746
cpu0_L1D LOAD      ACCESS:    6621213  HIT:    5776797  MISS:     844416
cpu0_L1D RFO       ACCESS:    6364766  HIT:    6229299  MISS:     135467
cpu0_L1D PREFETCH  ACCESS:          0  HIT:          0  MISS:          0
cpu0_L1D WRITEBACK ACCESS:          0  HIT:          0  MISS:          0
cpu0_L2C TOTAL     ACCESS:    1389687  HIT:     510859  MISS:     878828
cpu0_L2C LOAD      ACCESS:     845247  HIT:      96714  MISS:     748533
cpu0_L2C RFO       ACCESS:     135467  HIT:       6525  MISS:     128942
cpu0_L2C PREFETCH  ACCESS:          0  HIT:          0  MISS:          0
cpu0_L2C WRITEBACK ACCESS:     407110  HIT:     406217  MISS:        893
LLC TOTAL     ACCESS:    1242549  HIT:      94199  MISS:    1148350
LLC LOAD      ACCESS:     748533  HIT:      21999  MISS:     726534
LLC RFO       ACCESS:     128942  HIT:       2973  MISS:     125969
LLC PREFETCH  ACCESS:          0  HIT:          0  MISS:          0
LLC WRITEBACK ACCESS:     364614  HIT:      69217  MISS:     295397
Heartbeat CPU 0 instructions: 94000001 cycles: 152056388 heartbeat IPC: 0.354465 cumulative IPC: 0.315286 (Simulation time: 1 hr 6 min 34 sec) 

Region of Interest Statistics
cpu0_DTLB TOTAL     ACCESS:   10887571  HIT:   10051572  MISS:     835999
cpu0_DTLB LOAD      ACCESS:    6629795  HIT:    5926197  MISS:     703598
cpu0_DTLB RFO       ACCESS:    4257776  HIT:    4125375  MISS:     132401
cpu0_DTLB PREFETCH  ACCESS:          0  HIT:          0  MISS:          0
cpu0_DTLB WRITEBACK ACCESS:          0  HIT:          0  MISS:          0
cpu0_ITLB TOTAL     ACCESS:    4932960  HIT:    4908842  MISS:      24118
cpu0_ITLB LOAD      ACCESS:    4932960  HIT:    4908842  MISS:      24118
cpu0_ITLB RFO       ACCESS:          0  HIT:          0  MISS:          0
cpu0_ITLB PREFETCH  ACCESS:          0  HIT:          0  MISS:          0
cpu0_ITLB WRITEBACK ACCESS:          0  HIT:          0  MISS:          0
cpu0_L1I TOTAL     ACCESS:    3947136  HIT:    3945933  MISS:       1203
cpu0_L1I LOAD      ACCESS:    3947136  HIT:    3945933  MISS:       1203
cpu0_L1I RFO       ACCESS:          0  HIT:          0  MISS:          0
cpu0_L1I PREFETCH  ACCESS:          0  HIT:          0  MISS:          0
cpu0_L1I WRITEBACK ACCESS:          0  HIT:          0  MISS:          0
cpu0_STLB TOTAL     ACCESS:     860117  HIT:     669066  MISS:     191051
cpu0_STLB LOAD      ACCESS:     727716  HIT:     586763  MISS:     140953
cpu0_STLB RFO       ACCESS:     132401  HIT:      82303  MISS:      50098
cpu0_STLB PREFETCH  ACCESS:          0  HIT:          0  MISS:          0
cpu0_STLB WRITEBACK ACCESS:          0  HIT:          0  MISS:          0
cpu0_L1D TOTAL     ACCESS:   13780332  HIT:   12753668  MISS:    1026664
cpu0_L1D LOAD      ACCESS:    6944509  HIT:    6061852  MISS:     882657
cpu0_L1D RFO       ACCESS:    6657865  HIT:    6515871  MISS:     141994
cpu0_L1D PREFETCH  ACCESS:          0  HIT:          0  MISS:          0
cpu0_L1D WRITEBACK ACCESS:          0  HIT:          0  MISS:          0
cpu0_L2C TOTAL     ACCESS:    1453389  HIT:     540166  MISS:     913223
cpu0_L2C LOAD      ACCESS:     883852  HIT:     106183  MISS:     777669
cpu0_L2C RFO       ACCESS:     141994  HIT:       7856  MISS:     134138
cpu0_L2C PREFETCH  ACCESS:          0  HIT:          0  MISS:          0
cpu0_L2C WRITEBACK ACCESS:     425530  HIT:     424603  MISS:        927
LLC TOTAL     ACCESS:    1290242  HIT:      98300  MISS:    1191942
LLC LOAD      ACCESS:     777669  HIT:      22847  MISS:     754822
LLC RFO       ACCESS:     134138  HIT:       3164  MISS:     130974
LLC PREFETCH  ACCESS:          0  HIT:          0  MISS:          0
LLC WRITEBACK ACCESS:     377946  HIT:      72276  MISS:     305670
Heartbeat CPU 0 instructions: 96000000 cycles: 157987342 heartbeat IPC: 0.337214 cumulative IPC: 0.31618 (Simulation time: 1 hr 8 min 7 sec) 

Region of Interest Statistics
cpu0_DTLB TOTAL     ACCESS:   11375158  HIT:   10502548  MISS:     872610
cpu0_DTLB LOAD      ACCESS:    6920901  HIT:    6187387  MISS:     733514
cpu0_DTLB RFO       ACCESS:    4454257  HIT:    4315161  MISS:     139096
cpu0_DTLB PREFETCH  ACCESS:          0  HIT:          0  MISS:          0
cpu0_DTLB WRITEBACK ACCESS:          0  HIT:          0  MISS:          0
cpu0_ITLB TOTAL     ACCESS:    5168334  HIT:    5144075  MISS:      24259
cpu0_ITLB LOAD      ACCESS:    5168334  HIT:    5144075  MISS:      24259
cpu0_ITLB RFO       ACCESS:          0  HIT:          0  MISS:          0
cpu0_ITLB PREFETCH  ACCESS:          0  HIT:          0  MISS:          0
cpu0_ITLB WRITEBACK ACCESS:          0  HIT:          0  MISS:          0
cpu0_L1I TOTAL     ACCESS:    4106049  HIT:    4104826  MISS:       1223
cpu0_L1I LOAD      ACCESS:    4106049  HIT:    4104826  MISS:       1223
cpu0_L1I RFO       ACCESS:          0  HIT:          0  MISS:          0
cpu0_L1I PREFETCH  ACCESS:          0  HIT:          0  MISS:          0
cpu0_L1I WRITEBACK ACCESS:          0  HIT:          0  MISS:          0
cpu0_STLB TOTAL     ACCESS:     896869  HIT:     695977  MISS:     200892
cpu0_STLB LOAD      ACCESS:     757773  HIT:     609588  MISS:     148185
cpu0_STLB RFO       ACCESS:     139096  HIT:      86389  MISS:      52707
cpu0_STLB PREFETCH  ACCESS:          0  HIT:          0  MISS:          0
cpu0_STLB WRITEBACK ACCESS:          0  HIT:          0  MISS:          0
cpu0_L1D TOTAL     ACCESS:   14408412  HIT:   13337478  MISS:    1070934
cpu0_L1D LOAD      ACCESS:    7255768  HIT:    6334284  MISS:     921484
cpu0_L1D RFO       ACCESS:    6965832  HIT:    6818459  MISS:     147373
cpu0_L1D PREFETCH  ACCESS:          0  HIT:          0  MISS:          0
cpu0_L1D WRITEBACK ACCESS:          0  HIT:          0  MISS:          0
cpu0_L2C TOTAL     ACCESS:    1520333  HIT:     569012  MISS:     951321
cpu0_L2C LOAD      ACCESS:     922699  HIT:     112085  MISS:     810614
cpu0_L2C RFO       ACCESS:     147373  HIT:       8142  MISS:     139231
cpu0_L2C PREFETCH  ACCESS:          0  HIT:          0  MISS:          0
cpu0_L2C WRITEBACK ACCESS:     448184  HIT:     447215  MISS:        969
LLC TOTAL     ACCESS:    1348655  HIT:     102548  MISS:    1246107
LLC LOAD      ACCESS:     810614  HIT:      23828  MISS:     786786
LLC RFO       ACCESS:     139231  HIT:       3259  MISS:     135972
LLC PREFETCH  ACCESS:          0  HIT:          0  MISS:          0
LLC WRITEBACK ACCESS:     398303  HIT:      75448  MISS:     322855
Heartbeat CPU 0 instructions: 98000001 cycles: 164607799 heartbeat IPC: 0.302094 cumulative IPC: 0.315567 (Simulation time: 1 hr 9 min 56 sec) 

Region of Interest Statistics
cpu0_DTLB TOTAL     ACCESS:   11875717  HIT:   10959322  MISS:     916395
cpu0_DTLB LOAD      ACCESS:    7232036  HIT:    6462013  MISS:     770023
cpu0_DTLB RFO       ACCESS:    4643681  HIT:    4497309  MISS:     146372
cpu0_DTLB PREFETCH  ACCESS:          0  HIT:          0  MISS:          0
cpu0_DTLB WRITEBACK ACCESS:          0  HIT:          0  MISS:          0
cpu0_ITLB TOTAL     ACCESS:    5393639  HIT:    5368605  MISS:      25034
cpu0_ITLB LOAD      ACCESS:    5393639  HIT:    5368605  MISS:      25034
cpu0_ITLB RFO       ACCESS:          0  HIT:          0  MISS:          0
cpu0_ITLB PREFETCH  ACCESS:          0  HIT:          0  MISS:          0
cpu0_ITLB WRITEBACK ACCESS:          0  HIT:          0  MISS:          0
cpu0_L1I TOTAL     ACCESS:    4265045  HIT:    4263810  MISS:       1235
cpu0_L1I LOAD      ACCESS:    4265045  HIT:    4263810  MISS:       1235
cpu0_L1I RFO       ACCESS:          0  HIT:          0  MISS:          0
cpu0_L1I PREFETCH  ACCESS:          0  HIT:          0  MISS:          0
cpu0_L1I WRITEBACK ACCESS:          0  HIT:          0  MISS:          0
cpu0_STLB TOTAL     ACCESS:     941429  HIT:     730401  MISS:     211028
cpu0_STLB LOAD      ACCESS:     795057  HIT:     639819  MISS:     155238
cpu0_STLB RFO       ACCESS:     146372  HIT:      90582  MISS:      55790
cpu0_STLB PREFETCH  ACCESS:          0  HIT:          0  MISS:          0
cpu0_STLB WRITEBACK ACCESS:          0  HIT:          0  MISS:          0
cpu0_L1D TOTAL     ACCESS:   15043502  HIT:   13921387  MISS:    1122115
cpu0_L1D LOAD      ACCESS:    7592841  HIT:    6625657  MISS:     967184
cpu0_L1D RFO       ACCESS:    7254500  HIT:    7101741  MISS:     152759
cpu0_L1D PREFETCH  ACCESS:          0  HIT:          0  MISS:          0
cpu0_L1D WRITEBACK ACCESS:          0  HIT:          0  MISS:          0
cpu0_L2C TOTAL     ACCESS:    1595127  HIT:     596917  MISS:     998210
cpu0_L2C LOAD      ACCESS:     968410  HIT:     116177  MISS:     852233
cpu0_L2C RFO       ACCESS:     152759  HIT:       8335  MISS:     144424
cpu0_L2C PREFETCH  ACCESS:          0  HIT:          0  MISS:          0
cpu0_L2C WRITEBACK ACCESS:     471786  HIT:     470761  MISS:       1025
LLC TOTAL     ACCESS:    1417693  HIT:     107708  MISS:    1309985
LLC LOAD      ACCESS:     852233  HIT:      25425  MISS:     826808
LLC RFO       ACCESS:     144424  HIT:       3369  MISS:     141055
LLC PREFETCH  ACCESS:          0  HIT:          0  MISS:          0
LLC WRITEBACK ACCESS:     420508  HIT:      78900  MISS:     341608
Heartbeat CPU 0 instructions: 100000000 cycles: 171653738 heartbeat IPC: 0.283851 cumulative IPC: 0.314163 (Simulation time: 1 hr 11 min 35 sec) 

Region of Interest Statistics
cpu0_DTLB TOTAL     ACCESS:   12371744  HIT:   11416538  MISS:     955206
cpu0_DTLB LOAD      ACCESS:    7527352  HIT:    6723941  MISS:     803411
cpu0_DTLB RFO       ACCESS:    4844392  HIT:    4692597  MISS:     151795
cpu0_DTLB PREFETCH  ACCESS:          0  HIT:          0  MISS:          0
cpu0_DTLB WRITEBACK ACCESS:          0  HIT:          0  MISS:          0
cpu0_ITLB TOTAL     ACCESS:    5613225  HIT:    5585631  MISS:      27594
cpu0_ITLB LOAD      ACCESS:    5613225  HIT:    5585631  MISS:      27594
cpu0_ITLB RFO       ACCESS:          0  HIT:          0  MISS:          0
cpu0_ITLB PREFETCH  ACCESS:          0  HIT:          0  MISS:          0
cpu0_ITLB WRITEBACK ACCESS:          0  HIT:          0  MISS:          0
cpu0_L1I TOTAL     ACCESS:    4465652  HIT:    4464413  MISS:       1239
cpu0_L1I LOAD      ACCESS:    4465652  HIT:    4464413  MISS:       1239
cpu0_L1I RFO       ACCESS:          0  HIT:          0  MISS:          0
cpu0_L1I PREFETCH  ACCESS:          0  HIT:          0  MISS:          0
cpu0_L1I WRITEBACK ACCESS:          0  HIT:          0  MISS:          0
cpu0_STLB TOTAL     ACCESS:     982800  HIT:     762432  MISS:     220368
cpu0_STLB LOAD      ACCESS:     831005  HIT:     668533  MISS:     162472
cpu0_STLB RFO       ACCESS:     151795  HIT:      93899  MISS:      57896
cpu0_STLB PREFETCH  ACCESS:          0  HIT:          0  MISS:          0
cpu0_STLB WRITEBACK ACCESS:          0  HIT:          0  MISS:          0
cpu0_L1D TOTAL     ACCESS:   15671247  HIT:   14496563  MISS:    1174684
cpu0_L1D LOAD      ACCESS:    7896114  HIT:    6884535  MISS:    1011579
cpu0_L1D RFO       ACCESS:    7570193  HIT:    7409341  MISS:     160852
cpu0_L1D PREFETCH  ACCESS:          0  HIT:          0  MISS:          0
cpu0_L1D WRITEBACK ACCESS:          0  HIT:          0  MISS:          0
cpu0_L2C TOTAL     ACCESS:    1665232  HIT:     619860  MISS:    1045372
cpu0_L2C LOAD      ACCESS:    1012808  HIT:     121377  MISS:     891431
cpu0_L2C RFO       ACCESS:     160852  HIT:       8543  MISS:     152309
cpu0_L2C PREFETCH  ACCESS:          0  HIT:          0  MISS:          0
cpu0_L2C WRITEBACK ACCESS:     489319  HIT:     488238  MISS:       1081
LLC TOTAL     ACCESS:    1479723  HIT:     112587  MISS:    1367136
LLC LOAD      ACCESS:     891431  HIT:      26365  MISS:     865066
LLC RFO       ACCESS:     152309  HIT:       3470  MISS:     148839
LLC PREFETCH  ACCESS:          0  HIT:          0  MISS:          0
LLC WRITEBACK ACCESS:     435432  HIT:      82738  MISS:     352694
Heartbeat CPU 0 instructions: 102000004 cycles: 177139176 heartbeat IPC: 0.364602 cumulative IPC: 0.315843 (Simulation time: 1 hr 12 min 57 sec) 

Region of Interest Statistics
cpu0_DTLB TOTAL     ACCESS:   12865232  HIT:   11884168  MISS:     981064
cpu0_DTLB LOAD      ACCESS:    7827290  HIT:    7001883  MISS:     825407
cpu0_DTLB RFO       ACCESS:    5037942  HIT:    4882285  MISS:     155657
cpu0_DTLB PREFETCH  ACCESS:          0  HIT:          0  MISS:          0
cpu0_DTLB WRITEBACK ACCESS:          0  HIT:          0  MISS:          0
cpu0_ITLB TOTAL     ACCESS:    5840743  HIT:    5812792  MISS:      27951
cpu0_ITLB LOAD      ACCESS:    5840743  HIT:    5812792  MISS:      27951
cpu0_ITLB RFO       ACCESS:          0  HIT:          0  MISS:          0
cpu0_ITLB PREFETCH  ACCESS:          0  HIT:          0  MISS:          0
cpu0_ITLB WRITEBACK ACCESS:          0  HIT:          0  MISS:          0
cpu0_L1I TOTAL     ACCESS:    4649835  HIT:    4648567  MISS:       1268
cpu0_L1I LOAD      ACCESS:    4649835  HIT:    4648567  MISS:       1268
cpu0_L1I RFO       ACCESS:          0  HIT:          0  MISS:          0
cpu0_L1I PREFETCH  ACCESS:          0  HIT:          0  MISS:          0
cpu0_L1I WRITEBACK ACCESS:          0  HIT:          0  MISS:          0
cpu0_STLB TOTAL     ACCESS:    1009015  HIT:     781614  MISS:     227401
cpu0_STLB LOAD      ACCESS:     853358  HIT:     685163  MISS:     168195
cpu0_STLB RFO       ACCESS:     155657  HIT:      96451  MISS:      59206
cpu0_STLB PREFETCH  ACCESS:          0  HIT:          0  MISS:          0
cpu0_STLB WRITEBACK ACCESS:          0  HIT:          0  MISS:          0
cpu0_L1D TOTAL     ACCESS:   16297642  HIT:   15083912  MISS:    1213730
cpu0_L1D LOAD      ACCESS:    8205111  HIT:    7160804  MISS:    1044307
cpu0_L1D RFO       ACCESS:    7881147  HIT:    7714056  MISS:     167091
cpu0_L1D PREFETCH  ACCESS:          0  HIT:          0  MISS:          0
cpu0_L1D WRITEBACK ACCESS:          0  HIT:          0  MISS:          0
cpu0_L2C TOTAL     ACCESS:    1721230  HIT:     641432  MISS:    1079798
cpu0_L2C LOAD      ACCESS:    1045565  HIT:     125623  MISS:     919942
cpu0_L2C RFO       ACCESS:     167091  HIT:       8924  MISS:     158167
cpu0_L2C PREFETCH  ACCESS:          0  HIT:          0  MISS:          0
cpu0_L2C WRITEBACK ACCESS:     506242  HIT:     505126  MISS:       1116
LLC TOTAL     ACCESS:    1529114  HIT:     117305  MISS:    1411809
LLC LOAD      ACCESS:     919942  HIT:      27342  MISS:     892600
LLC RFO       ACCESS:     158167  HIT:       3638  MISS:     154529
LLC PREFETCH  ACCESS:          0  HIT:          0  MISS:          0
LLC WRITEBACK ACCESS:     450432  HIT:      86311  MISS:     364121
Heartbeat CPU 0 instructions: 104000004 cycles: 183630403 heartbeat IPC: 0.308108 cumulative IPC: 0.31555 (Simulation time: 1 hr 14 min 37 sec) 

Region of Interest Statistics
cpu0_DTLB TOTAL     ACCESS:   13370181  HIT:   12347096  MISS:    1023085
cpu0_DTLB LOAD      ACCESS:    8146962  HIT:    7286488  MISS:     860474
cpu0_DTLB RFO       ACCESS:    5223219  HIT:    5060608  MISS:     162611
cpu0_DTLB PREFETCH  ACCESS:          0  HIT:          0  MISS:          0
cpu0_DTLB WRITEBACK ACCESS:          0  HIT:          0  MISS:          0
cpu0_ITLB TOTAL     ACCESS:    6078299  HIT:    6050207  MISS:      28092
cpu0_ITLB LOAD      ACCESS:    6078299  HIT:    6050207  MISS:      28092
cpu0_ITLB RFO       ACCESS:          0  HIT:          0  MISS:          0
cpu0_ITLB PREFETCH  ACCESS:          0  HIT:          0  MISS:          0
cpu0_ITLB WRITEBACK ACCESS:          0  HIT:          0  MISS:          0
cpu0_L1I TOTAL     ACCESS:    4772426  HIT:    4771141  MISS:       1285
cpu0_L1I LOAD      ACCESS:    4772426  HIT:    4771141  MISS:       1285
cpu0_L1I RFO       ACCESS:          0  HIT:          0  MISS:          0
cpu0_L1I PREFETCH  ACCESS:          0  HIT:          0  MISS:          0
cpu0_L1I WRITEBACK ACCESS:          0  HIT:          0  MISS:          0
cpu0_STLB TOTAL     ACCESS:    1051177  HIT:     812138  MISS:     239039
cpu0_STLB LOAD      ACCESS:     888566  HIT:     711242  MISS:     177324
cpu0_STLB RFO       ACCESS:     162611  HIT:     100896  MISS:      61715
cpu0_STLB PREFETCH  ACCESS:          0  HIT:          0  MISS:          0
cpu0_STLB WRITEBACK ACCESS:          0  HIT:          0  MISS:          0
cpu0_L1D TOTAL     ACCESS:   16947658  HIT:   15679874  MISS:    1267784
cpu0_L1D LOAD      ACCESS:    8560132  HIT:    7466325  MISS:    1093807
cpu0_L1D RFO       ACCESS:    8165866  HIT:    7994300  MISS:     171566
cpu0_L1D PREFETCH  ACCESS:          0  HIT:          0  MISS:          0
cpu0_L1D WRITEBACK ACCESS:          0  HIT:          0  MISS:          0
cpu0_L2C TOTAL     ACCESS:    1801830  HIT:     676808  MISS:    1125022
cpu0_L2C LOAD      ACCESS:    1095082  HIT:     134132  MISS:     960950
cpu0_L2C RFO       ACCESS:     171566  HIT:       9239  MISS:     162327
cpu0_L2C PREFETCH  ACCESS:          0  HIT:          0  MISS:          0
cpu0_L2C WRITEBACK ACCESS:     532771  HIT:     531620  MISS:       1151
LLC TOTAL     ACCESS:    1595701  HIT:     123117  MISS:    1472584
LLC LOAD      ACCESS:     960950  HIT:      29039  MISS:     931911
LLC RFO       ACCESS:     162327  HIT:       3828  MISS:     158499
LLC PREFETCH  ACCESS:          0  HIT:          0  MISS:          0
LLC WRITEBACK ACCESS:     471830  HIT:      90234  MISS:     381596
Heartbeat CPU 0 instructions: 106000003 cycles: 189565695 heartbeat IPC: 0.336967 cumulative IPC: 0.316268 (Simulation time: 1 hr 16 min 12 sec) 

Region of Interest Statistics
cpu0_DTLB TOTAL     ACCESS:   13854927  HIT:   12799574  MISS:    1055353
cpu0_DTLB LOAD      ACCESS:    8445189  HIT:    7557727  MISS:     887462
cpu0_DTLB RFO       ACCESS:    5409738  HIT:    5241847  MISS:     167891
cpu0_DTLB PREFETCH  ACCESS:          0  HIT:          0  MISS:          0
cpu0_DTLB WRITEBACK ACCESS:          0  HIT:          0  MISS:          0
cpu0_ITLB TOTAL     ACCESS:    6298693  HIT:    6270370  MISS:      28323
cpu0_ITLB LOAD      ACCESS:    6298693  HIT:    6270370  MISS:      28323
cpu0_ITLB RFO       ACCESS:          0  HIT:          0  MISS:          0
cpu0_ITLB PREFETCH  ACCESS:          0  HIT:          0  MISS:          0
cpu0_ITLB WRITEBACK ACCESS:          0  HIT:          0  MISS:          0
cpu0_L1I TOTAL     ACCESS:    4966212  HIT:    4964916  MISS:       1296
cpu0_L1I LOAD      ACCESS:    4966212  HIT:    4964916  MISS:       1296
cpu0_L1I RFO       ACCESS:          0  HIT:          0  MISS:          0
cpu0_L1I PREFETCH  ACCESS:          0  HIT:          0  MISS:          0
cpu0_L1I WRITEBACK ACCESS:          0  HIT:          0  MISS:          0
cpu0_STLB TOTAL     ACCESS:    1083676  HIT:     836344  MISS:     247332
cpu0_STLB LOAD      ACCESS:     915785  HIT:     732800  MISS:     182985
cpu0_STLB RFO       ACCESS:     167891  HIT:     103544  MISS:      64347
cpu0_STLB PREFETCH  ACCESS:          0  HIT:          0  MISS:          0
cpu0_STLB WRITEBACK ACCESS:          0  HIT:          0  MISS:          0
cpu0_L1D TOTAL     ACCESS:   17560787  HIT:   16251345  MISS:    1309442
cpu0_L1D LOAD      ACCESS:    8867608  HIT:    7737666  MISS:    1129942
cpu0_L1D RFO       ACCESS:    8463593  HIT:    8286578  MISS:     177015
cpu0_L1D PREFETCH  ACCESS:          0  HIT:          0  MISS:          0
cpu0_L1D WRITEBACK ACCESS:          0  HIT:          0  MISS:          0
cpu0_L2C TOTAL     ACCESS:    1861328  HIT:     698547  MISS:    1162781
cpu0_L2C LOAD      ACCESS:    1131228  HIT:     137908  MISS:     993320
cpu0_L2C RFO       ACCESS:     177015  HIT:       9369  MISS:     167646
cpu0_L2C PREFETCH  ACCESS:          0  HIT:          0  MISS:          0
cpu0_L2C WRITEBACK ACCESS:     550600  HIT:     549401  MISS:       1199
[...]
cpu0_DTLB LOAD      ACCESS:  225513277  HIT:  201341639  MISS:   24171638
cpu0_DTLB RFO       ACCESS:  145238844  HIT:  140464305  MISS:    4774539
cpu0_DTLB PREFETCH  ACCESS:          0  HIT:          0  MISS:          0
cpu0_DTLB WRITEBACK ACCESS:          0  HIT:          0  MISS:          0
cpu0_ITLB TOTAL     ACCESS:  168683278  HIT:  167921917  MISS:     761361
cpu0_ITLB LOAD      ACCESS:  168683278  HIT:  167921917  MISS:     761361
cpu0_ITLB RFO       ACCESS:          0  HIT:          0  MISS:          0
cpu0_ITLB PREFETCH  ACCESS:          0  HIT:          0  MISS:          0
cpu0_ITLB WRITEBACK ACCESS:          0  HIT:          0  MISS:          0
cpu0_L1I TOTAL     ACCESS:  129284127  HIT:  129231709  MISS:      52418
cpu0_L1I LOAD      ACCESS:  129284127  HIT:  129231709  MISS:      52418
cpu0_L1I RFO       ACCESS:          0  HIT:          0  MISS:          0
cpu0_L1I PREFETCH  ACCESS:          0  HIT:          0  MISS:          0
cpu0_L1I WRITEBACK ACCESS:          0  HIT:          0  MISS:          0
cpu0_STLB TOTAL     ACCESS:   29707538  HIT:   22844032  MISS:    6863506
cpu0_STLB LOAD      ACCESS:   24932999  HIT:   19895343  MISS:    5037656
cpu0_STLB RFO       ACCESS:    4774539  HIT:    2948689  MISS:    1825850
cpu0_STLB PREFETCH  ACCESS:          0  HIT:          0  MISS:          0
cpu0_STLB WRITEBACK ACCESS:          0  HIT:          0  MISS:          0
cpu0_L1D TOTAL     ACCESS:  469745792  HIT:  433657078  MISS:   36088714
cpu0_L1D LOAD      ACCESS:  237756053  HIT:  206349333  MISS:   31406720
cpu0_L1D RFO       ACCESS:  225622710  HIT:  221010658  MISS:    4612052
cpu0_L1D PREFETCH  ACCESS:          0  HIT:          0  MISS:          0
cpu0_L1D WRITEBACK ACCESS:          0  HIT:          0  MISS:          0
cpu0_L2C TOTAL     ACCESS:   51613071  HIT:   20456608  MISS:   31156463
cpu0_L2C LOAD      ACCESS:   31458698  HIT:    4669838  MISS:   26788860
cpu0_L2C RFO       ACCESS:    4612041  HIT:     291287  MISS:    4320754
cpu0_L2C PREFETCH  ACCESS:          0  HIT:          0  MISS:          0
cpu0_L2C WRITEBACK ACCESS:   15472390  HIT:   15441395  MISS:      30995
LLC TOTAL     ACCESS:   44530997  HIT:    3664415  MISS:   40866582
LLC LOAD      ACCESS:   26788845  HIT:     913108  MISS:   25875737
LLC RFO       ACCESS:    4320750  HIT:     129899  MISS:    4190851
LLC PREFETCH  ACCESS:          0  HIT:          0  MISS:          0
LLC WRITEBACK ACCESS:   13405548  HIT:    2621041  MISS:   10784507
Heartbeat CPU 0 instructions: 1550000000 cycles: 4740237487 heartbeat IPC: 0.289276 cumulative IPC: 0.317277 (Simulation time: 16 hr 28 min 0 sec) 

Region of Interest Statistics
cpu0_DTLB TOTAL     ACCESS:  371246481  HIT:  342263469  MISS:   28983012
cpu0_DTLB LOAD      ACCESS:  225810096  HIT:  201606804  MISS:   24203292
cpu0_DTLB RFO       ACCESS:  145436385  HIT:  140656665  MISS:    4779720
cpu0_DTLB PREFETCH  ACCESS:          0  HIT:          0  MISS:          0
cpu0_DTLB WRITEBACK ACCESS:          0  HIT:          0  MISS:          0
cpu0_ITLB TOTAL     ACCESS:  168900816  HIT:  168137278  MISS:     763538
cpu0_ITLB LOAD      ACCESS:  168900816  HIT:  168137278  MISS:     763538
cpu0_ITLB RFO       ACCESS:          0  HIT:          0  MISS:          0
cpu0_ITLB PREFETCH  ACCESS:          0  HIT:          0  MISS:          0
cpu0_ITLB WRITEBACK ACCESS:          0  HIT:          0  MISS:          0
cpu0_L1I TOTAL     ACCESS:  129483979  HIT:  129431558  MISS:      52421
cpu0_L1I LOAD      ACCESS:  129483979  HIT:  129431558  MISS:      52421
cpu0_L1I RFO       ACCESS:          0  HIT:          0  MISS:          0
cpu0_L1I PREFETCH  ACCESS:          0  HIT:          0  MISS:          0
cpu0_L1I WRITEBACK ACCESS:          0  HIT:          0  MISS:          0
cpu0_STLB TOTAL     ACCESS:   29746550  HIT:   22874601  MISS:    6871949
cpu0_STLB LOAD      ACCESS:   24966830  HIT:   19922826  MISS:    5044004
cpu0_STLB RFO       ACCESS:    4779720  HIT:    2951775  MISS:    1827945
cpu0_STLB PREFETCH  ACCESS:          0  HIT:          0  MISS:          0
cpu0_STLB WRITEBACK ACCESS:          0  HIT:          0  MISS:          0
cpu0_L1D TOTAL     ACCESS:  470366055  HIT:  434227299  MISS:   36138756
cpu0_L1D LOAD      ACCESS:  238062611  HIT:  206614289  MISS:   31448322
cpu0_L1D RFO       ACCESS:  225928474  HIT:  221308079  MISS:    4620395
cpu0_L1D PREFETCH  ACCESS:          0  HIT:          0  MISS:          0
cpu0_L1D WRITEBACK ACCESS:          0  HIT:          0  MISS:          0
cpu0_L2C TOTAL     ACCESS:   51680405  HIT:   20477642  MISS:   31202763
cpu0_L2C LOAD      ACCESS:   31500303  HIT:    4673494  MISS:   26826809
cpu0_L2C RFO       ACCESS:    4620384  HIT:     291360  MISS:    4329024
cpu0_L2C PREFETCH  ACCESS:          0  HIT:          0  MISS:          0
cpu0_L2C WRITEBACK ACCESS:   15489679  HIT:   15458634  MISS:      31045
LLC TOTAL     ACCESS:   44593629  HIT:    3669095  MISS:   40924534
LLC LOAD      ACCESS:   26826794  HIT:     914014  MISS:   25912780
LLC RFO       ACCESS:    4329020  HIT:     129985  MISS:    4199035
LLC PREFETCH  ACCESS:          0  HIT:          0  MISS:          0
LLC WRITEBACK ACCESS:   13421930  HIT:    2624727  MISS:   10797203
Finished CPU 0 instructions: 1500000001 cycles: 4727737024 cumulative IPC: 0.317277 (Simulation time: 16 hr 28 min 0 sec) 

ChampSim completed all CPUs

Region of Interest Statistics

CPU 0 cumulative IPC: 0.317277 instructions: 1500000001 cycles: 4727737024
cpu0_DTLB TOTAL     ACCESS:  371246482  HIT:  342263470  MISS:   28983012
cpu0_DTLB LOAD      ACCESS:  225810097  HIT:  201606805  MISS:   24203292
cpu0_DTLB RFO       ACCESS:  145436385  HIT:  140656665  MISS:    4779720
cpu0_DTLB PREFETCH  ACCESS:          0  HIT:          0  MISS:          0
cpu0_DTLB WRITEBACK ACCESS:          0  HIT:          0  MISS:          0
cpu0_DTLB TRANSLATION ACCESS:          0  HIT:          0  MISS:          0
cpu0_DTLB PREFETCH  REQUESTED:          0  ISSUED:          0  USEFUL:          0  USELESS:          0
cpu0_DTLB AVERAGE MISS LATENCY: 11.1926 cycles
cpu0_ITLB TOTAL     ACCESS:  168900816  HIT:  168137278  MISS:     763538
cpu0_ITLB LOAD      ACCESS:  168900816  HIT:  168137278  MISS:     763538
cpu0_ITLB RFO       ACCESS:          0  HIT:          0  MISS:          0
cpu0_ITLB PREFETCH  ACCESS:          0  HIT:          0  MISS:          0
cpu0_ITLB WRITEBACK ACCESS:          0  HIT:          0  MISS:          0
cpu0_ITLB TRANSLATION ACCESS:          0  HIT:          0  MISS:          0
cpu0_ITLB PREFETCH  REQUESTED:          0  ISSUED:          0  USEFUL:          0  USELESS:          0
cpu0_ITLB AVERAGE MISS LATENCY: 9.36722 cycles
cpu0_L1I TOTAL     ACCESS:  129483979  HIT:  129431558  MISS:      52421
cpu0_L1I LOAD      ACCESS:  129483979  HIT:  129431558  MISS:      52421
cpu0_L1I RFO       ACCESS:          0  HIT:          0  MISS:          0
cpu0_L1I PREFETCH  ACCESS:          0  HIT:          0  MISS:          0
cpu0_L1I WRITEBACK ACCESS:          0  HIT:          0  MISS:          0
cpu0_L1I TRANSLATION ACCESS:          0  HIT:          0  MISS:          0
cpu0_L1I PREFETCH  REQUESTED:          0  ISSUED:          0  USEFUL:          0  USELESS:          0
cpu0_L1I AVERAGE MISS LATENCY: 171.941 cycles
cpu0_STLB TOTAL     ACCESS:   29746550  HIT:   22874601  MISS:    6871949
cpu0_STLB LOAD      ACCESS:   24966830  HIT:   19922826  MISS:    5044004
cpu0_STLB RFO       ACCESS:    4779720  HIT:    2951775  MISS:    1827945
cpu0_STLB PREFETCH  ACCESS:          0  HIT:          0  MISS:          0
cpu0_STLB WRITEBACK ACCESS:          0  HIT:          0  MISS:          0
cpu0_STLB TRANSLATION ACCESS:          0  HIT:          0  MISS:          0
cpu0_STLB PREFETCH  REQUESTED:          0  ISSUED:          0  USEFUL:          0  USELESS:          0
cpu0_STLB AVERAGE MISS LATENCY: 8.84007 cycles
cpu0_L1D TOTAL     ACCESS:  470366055  HIT:  434227299  MISS:   36138756
cpu0_L1D LOAD      ACCESS:  238062611  HIT:  206614289  MISS:   31448322
cpu0_L1D RFO       ACCESS:  225928474  HIT:  221308079  MISS:    4620395
cpu0_L1D PREFETCH  ACCESS:          0  HIT:          0  MISS:          0
cpu0_L1D WRITEBACK ACCESS:          0  HIT:          0  MISS:          0
cpu0_L1D TRANSLATION ACCESS:    6374970  HIT:    6304931  MISS:      70039
cpu0_L1D PREFETCH  REQUESTED:          0  ISSUED:          0  USEFUL:          0  USELESS:          0
cpu0_L1D AVERAGE MISS LATENCY: 183.454 cycles
cpu0_L2C TOTAL     ACCESS:   51680405  HIT:   20477642  MISS:   31202763
cpu0_L2C LOAD      ACCESS:   31500303  HIT:    4673494  MISS:   26826809
cpu0_L2C RFO       ACCESS:    4620384  HIT:     291360  MISS:    4329024
cpu0_L2C PREFETCH  ACCESS:          0  HIT:          0  MISS:          0
cpu0_L2C WRITEBACK ACCESS:   15489679  HIT:   15458634  MISS:      31045
cpu0_L2C TRANSLATION ACCESS:      70039  HIT:      54154  MISS:      15885
cpu0_L2C PREFETCH  REQUESTED:          0  ISSUED:          0  USEFUL:          0  USELESS:          0
cpu0_L2C AVERAGE MISS LATENCY: 199.88 cycles
LLC TOTAL     ACCESS:   44593629  HIT:    3669095  MISS:   40924534
LLC LOAD      ACCESS:   26826794  HIT:     914014  MISS:   25912780
LLC RFO       ACCESS:    4329020  HIT:     129985  MISS:    4199035
LLC PREFETCH  ACCESS:          0  HIT:          0  MISS:          0
LLC WRITEBACK ACCESS:   13421930  HIT:    2624727  MISS:   10797203
LLC TRANSLATION ACCESS:      15885  HIT:        369  MISS:      15516
LLC PREFETCH  REQUESTED:          0  ISSUED:          0  USEFUL:          0  USELESS:          0
LLC AVERAGE MISS LATENCY: 136.403 cycles
~~~~~~~~~~Reuse Distance Profiler output~~~~~~~~~~
0	0	0
1	0	0
2	0	0
3	0	0
4	0	0
5	0	0
6	0	0
7	0	0
8	0	0
9	0	0
10	0	0
11	0	0
12	0	0
13	0	0
14	0	0
15	0	0
16	0	0
17	0	0
18	0	0
19	0	0
20	0	0
21	0	0
22	0	0
23	0	0
24	0	0
25	0	0
26	0	0
27	0	0
28	0	0
29	0	0
30	0	0
31	0	0
32	0	0
33	0	0
34	0	0
35	0	0
36	0	0
37	0	0
38	0	0
39	0	0
40	0	0
41	0	0
42	0	0
43	0	0
44	0	0
45	0	0
46	0	0
47	0	0
48	0	0
49	0	0
50	0	0
51	0	0
52	0	0
53	0	0
54	0	0
55	0	0
56	0	0
57	0	0
58	0	0
59	0	0
60	0	0
61	0	0
62	0	0
63	0	0
64	0	0
66	0	0
68	0	0
70	0	0
72	0	0
74	0	0
76	0	0
78	0	0
80	0	0
82	0	0
84	0	0
86	0	0
88	0	0
90	0	0
92	0	0
94	0	0
96	0	0
98	0	0
100	0	0
102	0	0
104	0	0
106	0	0
108	0	0
110	0	0
112	0	0
114	0	0
116	0	0
118	0	0
120	0	0
122	0	0
124	0	0
126	0	0
128	0	0
132	0	0
136	0	0
140	0	0
144	0	0
148	0	0
152	0	0
156	0	0
160	0	0
164	0	0
168	0	0
172	0	0
176	0	0
180	0	0
184	0	0
188	0	0
192	0	0
196	0	0
200	0	0
204	0	0
208	0	0
212	0	0
216	0	0
220	0	0
224	0	0
228	0	0
232	0	0
236	0	0
240	0	0
244	0	0
248	0	0
252	0	0
256	0	0
264	0	0
272	0	0
280	0	0
288	0	0
296	0	0
304	0	0
312	0	0
320	0	0
328	0	0
336	0	0
344	0	0
352	0	0
360	0	0
368	0	0
376	0	0
384	0	0
392	0	0
400	0	0
408	0	0
416	0	0
424	0	0
432	0	0
440	0	0
448	0	0
456	0	0
464	0	0
472	0	0
480	0	0
488	0	0
496	0	0
504	0	0
512	0	0
528	0	0
544	0	0
560	0	0
576	0	0
592	0	0
608	0	0
624	0	0
640	0	0
656	0	0
672	0	0
688	0	0
704	0	0
720	0	0
736	0	0
752	0	0
768	0	0
784	0	0
800	0	0
816	0	0
832	0	0
848	0	0
864	0	0
880	0	0
896	0	0
912	0	0
928	0	0
944	0	0
960	0	0
976	0	0
992	0	0
1008	0	0
1024	0	0
1056	0	0
1088	0	0
1120	0	0
1152	0	0
1184	0	0
1216	0	0
1248	0	0
1280	0	0
1312	0	0
1344	0	0
1376	0	0
1408	0	0
1440	0	0
1472	0	0
1504	0	0
1536	0	0
1568	0	0
1600	0	0
1632	0	0
1664	0	0
1696	0	0
1728	0	0
1760	0	0
1792	0	0
1824	0	0
1856	0	0
1888	0	0
1920	0	0
1952	0	0
1984	0	0
2016	0	0
2048	0	0
2112	0	0
2176	0	0
2240	0	0
2304	0	0
2368	0	0
2432	0	0
2496	0	0
2560	0	0
2624	0	0
2688	0	0
2752	0	0
2816	0	0
2880	0	0
2944	0	0
3008	0	0
3072	0	0
3136	0	0
3200	0	0
3264	0	0
3328	0	0
3392	0	0
3456	0	0
3520	0	0
3584	0	0
3648	0	0
3712	0	0
3776	0	0
3840	0	0
3904	0	0
3968	0	0
4032	0	0
4096	0	0
4224	0	0
4352	0	0
4480	0	0
4608	0	0
4736	0	0
4864	0	0
4992	0	0
5120	0	0
5248	0	0
5376	0	0
5504	0	0
5632	0	0
5760	0	0
5888	0	0
6016	0	0
6144	0	0
6272	0	0
6400	0	0
6528	0	0
6656	0	0
6784	0	0
6912	0	0
7040	0	0
7168	0	0
7296	0	0
7424	0	0
7552	0	0
7680	0	0
7808	0	0
7936	0	0
8064	0	0
8192	0	0
8448	0	0
8704	0	0
8960	0	0
9216	0	0
9472	0	0
9728	0	0
9984	0	0
10240	0	0
10496	0	0
10752	0	0
11008	0	0
11264	0	0
11520	0	0
11776	0	0
12032	0	0
12288	0	0
12544	0	0
12800	0	0
13056	0	0
13312	0	0
13568	0	0
13824	0	0
14080	0	0
14336	0	0
14592	0	0
14848	0	0
15104	0	0
15360	0	0
15616	0	0
15872	0	0
16128	0	0
16384	0	0
16896	0	0
17408	0	0
17920	0	0
18432	0	0
18944	0	0
19456	0	0
19968	0	0
20480	0	0
20992	0	0
21504	0	0
22016	0	0
22528	0	0
23040	0	0
23552	0	0
24064	0	0
24576	0	0
25088	0	0
25600	0	0
26112	0	0
26624	0	0
27136	0	0
27648	0	0
28160	0	0
28672	0	0
29184	0	0
29696	0	0
30208	0	0
30720	0	0
31232	0	0
31744	0	0
32256	0	0
32768	0	0
33792	0	0
34816	0	0
35840	0	0
36864	0	0
37888	0	0
38912	0	0
39936	0	0
40960	0	0
41984	0	0
43008	0	0
44032	0	0
45056	0	0
46080	0	0
47104	0	0
48128	0	0
49152	0	0
50176	0	0
51200	0	0
52224	0	0
53248	0	0
54272	0	0
55296	0	0
56320	0	0
57344	0	0
58368	0	0
59392	0	0
60416	0	0
61440	0	0
62464	0	0
63488	0	0
64512	0	0
65536	0	0
67584	0	0
69632	0	0
71680	0	0
73728	0	0
75776	0	0
77824	0	0
79872	0	0
81920	0	0
83968	0	0
86016	0	0
88064	0	0
90112	0	0
92160	0	0
94208	0	0
96256	0	0
98304	0	0
100352	0	0
102400	0	0
104448	0	0
106496	0	0
108544	0	0
110592	0	0
112640	0	0
114688	0	0
116736	0	0
118784	0	0
120832	0	0
122880	0	0
124928	0	0
126976	0	0
129024	0	0
131072	0	0
135168	0	0
139264	0	0
143360	0	0
147456	0	0
151552	0	0
155648	0	0
159744	0	0
163840	0	0
167936	0	0
172032	0	0
176128	0	0
180224	0	0
184320	0	0
188416	0	0
192512	0	0
196608	0	0
200704	0	0
204800	0	0
208896	0	0
212992	0	0
217088	0	0
221184	0	0
225280	0	0
229376	0	0
233472	0	0
237568	0	0
241664	0	0
245760	0	0
249856	0	0
253952	0	0
258048	0	0
262144	0	0
270336	0	0
278528	0	0
286720	0	0
294912	0	0
303104	0	0
311296	0	0
319488	0	0
327680	0	0
335872	0	0
344064	0	0
352256	0	0
360448	0	0
368640	0	0
376832	0	0
385024	0	0
393216	0	0
401408	0	0
409600	0	0
417792	0	0
425984	0	0
434176	0	0
442368	0	0
450560	0	0
458752	0	0
466944	0	0
475136	0	0
483328	0	0
491520	0	0
499712	0	0
507904	0	0
516096	0	0
524288	0	0
540672	0	0
557056	0	0
573440	0	0
589824	0	0
606208	0	0
622592	0	0
638976	0	0
655360	0	0
671744	0	0
688128	0	0
704512	0	0
720896	0	0
737280	0	0
753664	0	0
770048	0	0
786432	0	0
802816	0	0
819200	0	0
835584	0	0
851968	0	0
868352	0	0
884736	0	0
901120	0	0
917504	0	0
933888	0	0
950272	0	0
966656	0	0
983040	0	0
999424	0	0
1015808	0	0
1032192	0	0
1048576	0	0
1081344	0	0
1114112	0	0
1146880	0	0
1179648	0	0
1212416	0	0
1245184	0	0
1277952	0	0
1310720	0	0
1343488	0	0
1376256	0	0
1409024	0	0
1441792	0	0
1474560	0	0
1507328	0	0
1540096	0	0
1572864	0	0
1605632	0	0
1638400	0	0
1671168	0	0
1703936	0	0
1736704	0	0
1769472	0	0
1802240	0	0
1835008	0	0
1867776	0	0
1900544	0	0
1933312	0	0
1966080	0	0
1998848	0	0
2031616	0	0
2064384	0	0
2097152	0	0
2162688	0	0
2228224	0	0
2293760	0	0
2359296	0	0
2424832	0	0
2490368	0	0
2555904	0	0
2621440	0	0
2686976	0	0
2752512	0	0
2818048	0	0
2883584	0	0
2949120	0	0
3014656	0	0
3080192	0	0
3145728	0	0
3211264	0	0
3276800	0	0
3342336	0	0
3407872	0	0
3473408	0	0
3538944	0	0
3604480	0	0
3670016	0	0
3735552	0	0
3801088	0	0
3866624	0	0
3932160	0	0
3997696	0	0
4063232	0	0
4128768	0	0
4194304	0	0
4325376	0	0
4456448	0	0
4587520	0	0
4718592	0	0
4849664	0	0
4980736	0	0
5111808	0	0
5242880	0	0
5373952	0	0
5505024	0	0
5636096	0	0
5767168	0	0
5898240	0	0
6029312	0	0
6160384	0	0
6291456	0	0
6422528	0	0
6553600	0	0
6684672	0	0
6815744	0	0
6946816	0	0
7077888	0	0
7208960	0	0
7340032	0	0
7471104	0	0
7602176	0	0
7733248	0	0
7864320	0	0
7995392	0	0
8126464	0	0
8257536	0	0
8388608	0	0
8650752	0	0
8912896	0	0
9175040	0	0
9437184	0	0
9699328	0	0
9961472	0	0
10223616	0	0
10485760	0	0
10747904	0	0
11010048	0	0
11272192	0	0
11534336	0	0
11796480	0	0
12058624	0	0
12320768	0	0
12582912	0	0
12845056	0	0
13107200	0	0
13369344	0	0
13631488	0	0
13893632	0	0
14155776	0	0
14417920	0	0
14680064	0	0
14942208	0	0
15204352	0	0
15466496	0	0
15728640	0	0
15990784	0	0
16252928	0	0
16515072	0	0
16777216	0	0
17301504	0	0
17825792	0	0
18350080	0	0
18874368	0	0
19398656	0	0
19922944	0	0
20447232	0	0
20971520	0	0
21495808	0	0
22020096	0	0
22544384	0	0
23068672	0	0
23592960	0	0
24117248	0	0
24641536	0	0
25165824	0	0
25690112	0	0
26214400	0	0
26738688	0	0
27262976	0	0
27787264	0	0
28311552	0	0
28835840	0	0
29360128	0	0
29884416	0	0
30408704	0	0
30932992	0	0
31457280	0	0
31981568	0	0
32505856	0	0
33030144	0	0
33554432	0	0
34603008	0	0
35651584	0	0
36700160	0	0
37748736	0	0
38797312	0	0
39845888	0	0
40894464	0	0
41943040	0	0
42991616	0	0
44040192	0	0
45088768	0	0
46137344	0	0
47185920	0	0
48234496	0	0
49283072	0	0
50331648	0	0
51380224	0	0
52428800	0	0
53477376	0	0
54525952	0	0
55574528	0	0
56623104	0	0
57671680	0	0
58720256	0	0
59768832	0	0
60817408	0	0
61865984	0	0
62914560	0	0
63963136	0	0
65011712	0	0
66060288	0	0
67108864	0	0
69206016	0	0
71303168	0	0
73400320	0	0
75497472	0	0
77594624	0	0
79691776	0	0
81788928	0	0
83886080	0	0
85983232	0	0
88080384	0	0
90177536	0	0
92274688	0	0
94371840	0	0
96468992	0	0
98566144	0	0
100663296	0	0
102760448	0	0
104857600	0	0
106954752	0	0
109051904	0	0
111149056	0	0
113246208	0	0
115343360	0	0
117440512	0	0
119537664	0	0
121634816	0	0
123731968	0	0
125829120	0	0
127926272	0	0
130023424	0	0
132120576	0	0
134217728	0	0
138412032	0	0
142606336	0	0
146800640	0	0
150994944	0	0
155189248	0	0
159383552	0	0
163577856	0	0
167772160	0	0
171966464	0	0
176160768	0	0
180355072	0	0
184549376	0	0
188743680	0	0
192937984	0	0
197132288	0	0
201326592	0	0
205520896	0	0
209715200	0	0
213909504	0	0
218103808	0	0
222298112	0	0
226492416	0	0
230686720	0	0
234881024	0	0
239075328	0	0
243269632	0	0
247463936	0	0
251658240	0	0
255852544	0	0
260046848	0	0
264241152	0	0
268435456	0	0
276824064	0	0
285212672	0	0
293601280	0	0
301989888	0	0
310378496	0	0
318767104	0	0
327155712	0	0
335544320	0	0
343932928	0	0
352321536	0	0
360710144	0	0
369098752	0	0
377487360	0	0
385875968	0	0
394264576	0	0
402653184	0	0
411041792	0	0
419430400	0	0
427819008	0	0
436207616	0	0
444596224	0	0
452984832	0	0
461373440	0	0
469762048	0	0
478150656	0	0
486539264	0	0
494927872	0	0
503316480	0	0
511705088	0	0
520093696	0	0
528482304	0	0
536870912	0	0
553648128	0	0
570425344	0	0
587202560	0	0
603979776	0	0
620756992	0	0
637534208	0	0
654311424	0	0
671088640	0	0
687865856	0	0
704643072	0	0
721420288	0	0
738197504	0	0
754974720	0	0
771751936	0	0
788529152	0	0
805306368	0	0
822083584	0	0
838860800	0	0
855638016	0	0
872415232	0	0
889192448	0	0
905969664	0	0
922746880	0	0
939524096	0	0
956301312	0	0
973078528	0	0
989855744	0	0
1006632960	0	0
1023410176	0	0
1040187392	0	0
1056964608	0	0
1073741824	0	0
1107296256	0	0
1140850688	0	0
1174405120	0	0
1207959552	0	0
1241513984	0	0
1275068416	0	0
1308622848	0	0
1342177280	0	0
1375731712	0	0
1409286144	0	0
1442840576	0	0
1476395008	0	0
1509949440	0	0
1543503872	0	0
1577058304	0	0
1610612736	0	0
1644167168	0	0
1677721600	0	0
1711276032	0	0
1744830464	0	0
1778384896	0	0
1811939328	0	0
1845493760	0	0
1879048192	0	0
1912602624	0	0
1946157056	0	0
1979711488	0	0
2013265920	0	0
2046820352	0	0
2080374784	0	0
2113929216	0	0
2147483648	0	0
2214592512	0	0
2281701376	0	0
2348810240	0	0
2415919104	0	0
2483027968	0	0
2550136832	0	0
2617245696	0	0
2684354560	0	0
2751463424	0	0
2818572288	0	0
2885681152	0	0
2952790016	0	0
3019898880	0	0
3087007744	0	0
3154116608	0	0
3221225472	0	0
3288334336	0	0
3355443200	0	0
3422552064	0	0
3489660928	0	0
3556769792	0	0
3623878656	0	0
3690987520	0	0
3758096384	0	0
3825205248	0	0
3892314112	0	0
3959422976	0	0
4026531840	0	0
4093640704	0	0
4160749568	0	0
4227858432	0	0
~~~~~~~~~~Reuse Distance Profiler output end~~~~~~~~~~


DRAM Statistics
 CHANNEL 0
 RQ ROW_BUFFER_HIT:    1303539  ROW_BUFFER_MISS:   28816920
 DBUS AVG_CONGESTED_CYCLE:    3.93017
 WQ ROW_BUFFER_HIT:    2481525  ROW_BUFFER_MISS:   10796832  FULL:          0


CPU 0 Branch Prediction Accuracy: 93.1539% MPKI: 16.5259 Average ROB Occupancy at Mispredict: 38.2961
Branch type MPKI
BRANCH_DIRECT_JUMP: 4.2e-05
BRANCH_INDIRECT: 0.113314
BRANCH_CONDITIONAL: 15.8046
BRANCH_DIRECT_CALL: 2.66667e-05
BRANCH_INDIRECT_CALL: 0.117617
BRANCH_RETURN: 0.490351

