
*** ChampSim Multicore Out-of-Order Simulator ***

Warmup Instructions: 50000000
Simulation Instructions: 1500000000
Number of CPUs: 1
Off-chip DRAM Size: 4 GiB Channels: 1 Width: 64-bit Data Rate: 3200 MT/s

VirtualMemory physical capacity: 8588881920 num_ppages: 2096895
VirtualMemory page size: 4096 log2_page_size: 12

CPU 0 runs traces/482.sphinx3-1395B.champsimtrace.xz
CPU 0 Bimodal branch predictor
Basic BTB sets: 1024 ways: 8 indirect buffer size: 4096 RAS size: 64
Initializing LRU.
Initializing LRU.
Initializing LRU.
Initializing LRU.
Initializing rdLRU.
Initializing LRU.
Initializing LRU.
Heartbeat CPU 0 instructions: 2000000 cycles: 529370 heartbeat IPC: 3.77808 cumulative IPC: 3.77808 (Simulation time: 0 hr 0 min 48 sec) 
Heartbeat CPU 0 instructions: 4000003 cycles: 1035134 heartbeat IPC: 3.95442 cumulative IPC: 3.86424 (Simulation time: 0 hr 1 min 31 sec) 
Heartbeat CPU 0 instructions: 6000003 cycles: 1556402 heartbeat IPC: 3.8368 cumulative IPC: 3.85505 (Simulation time: 0 hr 2 min 16 sec) 
Heartbeat CPU 0 instructions: 8000000 cycles: 2083523 heartbeat IPC: 3.79419 cumulative IPC: 3.83965 (Simulation time: 0 hr 3 min 2 sec) 
Heartbeat CPU 0 instructions: 10000001 cycles: 2591735 heartbeat IPC: 3.93537 cumulative IPC: 3.85842 (Simulation time: 0 hr 3 min 50 sec) 
Heartbeat CPU 0 instructions: 12000000 cycles: 3113115 heartbeat IPC: 3.83597 cumulative IPC: 3.85466 (Simulation time: 0 hr 4 min 37 sec) 
Heartbeat CPU 0 instructions: 14000002 cycles: 3648744 heartbeat IPC: 3.73393 cumulative IPC: 3.83694 (Simulation time: 0 hr 5 min 30 sec) 
Heartbeat CPU 0 instructions: 16000000 cycles: 4181224 heartbeat IPC: 3.75601 cumulative IPC: 3.82663 (Simulation time: 0 hr 6 min 20 sec) 
Heartbeat CPU 0 instructions: 18000000 cycles: 4690456 heartbeat IPC: 3.92748 cumulative IPC: 3.83758 (Simulation time: 0 hr 7 min 7 sec) 
Heartbeat CPU 0 instructions: 20000003 cycles: 5211953 heartbeat IPC: 3.83512 cumulative IPC: 3.83733 (Simulation time: 0 hr 7 min 51 sec) 
Heartbeat CPU 0 instructions: 22000000 cycles: 5742529 heartbeat IPC: 3.76948 cumulative IPC: 3.83106 (Simulation time: 0 hr 8 min 43 sec) 
Heartbeat CPU 0 instructions: 24000004 cycles: 6243439 heartbeat IPC: 3.99274 cumulative IPC: 3.84404 (Simulation time: 0 hr 9 min 26 sec) 
Heartbeat CPU 0 instructions: 26000000 cycles: 6773272 heartbeat IPC: 3.77477 cumulative IPC: 3.83862 (Simulation time: 0 hr 10 min 16 sec) 
Heartbeat CPU 0 instructions: 28000000 cycles: 7280857 heartbeat IPC: 3.94023 cumulative IPC: 3.8457 (Simulation time: 0 hr 11 min 6 sec) 
Heartbeat CPU 0 instructions: 30000003 cycles: 7806679 heartbeat IPC: 3.80357 cumulative IPC: 3.84286 (Simulation time: 0 hr 11 min 56 sec) 
Heartbeat CPU 0 instructions: 32000002 cycles: 8319579 heartbeat IPC: 3.89939 cumulative IPC: 3.84635 (Simulation time: 0 hr 12 min 44 sec) 
Heartbeat CPU 0 instructions: 34000000 cycles: 8841395 heartbeat IPC: 3.83276 cumulative IPC: 3.84555 (Simulation time: 0 hr 13 min 27 sec) 
Heartbeat CPU 0 instructions: 36000000 cycles: 9370371 heartbeat IPC: 3.78089 cumulative IPC: 3.8419 (Simulation time: 0 hr 14 min 20 sec) 
Heartbeat CPU 0 instructions: 38000003 cycles: 9875725 heartbeat IPC: 3.95763 cumulative IPC: 3.84782 (Simulation time: 0 hr 15 min 5 sec) 
Heartbeat CPU 0 instructions: 40000001 cycles: 10408769 heartbeat IPC: 3.75203 cumulative IPC: 3.84291 (Simulation time: 0 hr 15 min 56 sec) 
Heartbeat CPU 0 instructions: 42000003 cycles: 10910137 heartbeat IPC: 3.98909 cumulative IPC: 3.84963 (Simulation time: 0 hr 16 min 44 sec) 
Heartbeat CPU 0 instructions: 44000003 cycles: 11439482 heartbeat IPC: 3.77825 cumulative IPC: 3.84633 (Simulation time: 0 hr 17 min 32 sec) 
Heartbeat CPU 0 instructions: 46000004 cycles: 11946079 heartbeat IPC: 3.94791 cumulative IPC: 3.85064 (Simulation time: 0 hr 18 min 14 sec) 
Heartbeat CPU 0 instructions: 48000001 cycles: 12472372 heartbeat IPC: 3.80016 cumulative IPC: 3.84851 (Simulation time: 0 hr 18 min 59 sec) 
Heartbeat CPU 0 instructions: 50000001 cycles: 12983882 heartbeat IPC: 3.90999 cumulative IPC: 3.85093 (Simulation time: 0 hr 19 min 44 sec) 

Warmup complete CPU 0 instructions: 50000001 cycles: 12983882 (Simulation time: 0 hr 19 min 44 sec) 

Heartbeat CPU 0 instructions: 52000001 cycles: 15292215 heartbeat IPC: 0.866426 cumulative IPC: 0.866426 (Simulation time: 0 hr 21 min 36 sec) 

Region of Interest Statistics
cpu0_DTLB TOTAL     ACCESS:     330121  HIT:     329319  MISS:        802
cpu0_DTLB LOAD      ACCESS:     312290  HIT:     311565  MISS:        725
cpu0_DTLB RFO       ACCESS:      17831  HIT:      17754  MISS:         77
cpu0_DTLB PREFETCH  ACCESS:          0  HIT:          0  MISS:          0
cpu0_DTLB WRITEBACK ACCESS:          0  HIT:          0  MISS:          0
cpu0_ITLB TOTAL     ACCESS:     187358  HIT:     187358  MISS:          0
cpu0_ITLB LOAD      ACCESS:     187358  HIT:     187358  MISS:          0
cpu0_ITLB RFO       ACCESS:          0  HIT:          0  MISS:          0
cpu0_ITLB PREFETCH  ACCESS:          0  HIT:          0  MISS:          0
cpu0_ITLB WRITEBACK ACCESS:          0  HIT:          0  MISS:          0
cpu0_L1I TOTAL     ACCESS:        289  HIT:        289  MISS:          0
cpu0_L1I LOAD      ACCESS:        289  HIT:        289  MISS:          0
cpu0_L1I RFO       ACCESS:          0  HIT:          0  MISS:          0
cpu0_L1I PREFETCH  ACCESS:          0  HIT:          0  MISS:          0
cpu0_L1I WRITEBACK ACCESS:          0  HIT:          0  MISS:          0
cpu0_STLB TOTAL     ACCESS:        802  HIT:        434  MISS:        368
cpu0_STLB LOAD      ACCESS:        725  HIT:        389  MISS:        336
cpu0_STLB RFO       ACCESS:         77  HIT:         45  MISS:         32
cpu0_STLB PREFETCH  ACCESS:          0  HIT:          0  MISS:          0
cpu0_STLB WRITEBACK ACCESS:          0  HIT:          0  MISS:          0
cpu0_L1D TOTAL     ACCESS:     194798  HIT:     166979  MISS:      27819
cpu0_L1D LOAD      ACCESS:     179492  HIT:     154972  MISS:      24520
cpu0_L1D RFO       ACCESS:      14942  HIT:      11654  MISS:       3288
cpu0_L1D PREFETCH  ACCESS:          0  HIT:          0  MISS:          0
cpu0_L1D WRITEBACK ACCESS:          0  HIT:          0  MISS:          0
cpu0_L2C TOTAL     ACCESS:      31190  HIT:       6045  MISS:      25145
cpu0_L2C LOAD      ACCESS:      24520  HIT:       2421  MISS:      22099
cpu0_L2C RFO       ACCESS:       3288  HIT:        243  MISS:       3045
cpu0_L2C PREFETCH  ACCESS:          0  HIT:          0  MISS:          0
cpu0_L2C WRITEBACK ACCESS:       3371  HIT:       3371  MISS:          0
LLC TOTAL     ACCESS:      29115  HIT:         49  MISS:      29066
LLC LOAD      ACCESS:      22099  HIT:         49  MISS:      22050
LLC RFO       ACCESS:       3045  HIT:          0  MISS:       3045
LLC PREFETCH  ACCESS:          0  HIT:          0  MISS:          0
LLC WRITEBACK ACCESS:       3970  HIT:          0  MISS:       3970
Heartbeat CPU 0 instructions: 54000000 cycles: 18053812 heartbeat IPC: 0.724218 cumulative IPC: 0.788965 (Simulation time: 0 hr 23 min 38 sec) 

Region of Interest Statistics
cpu0_DTLB TOTAL     ACCESS:     684665  HIT:     679360  MISS:       5305
cpu0_DTLB LOAD      ACCESS:     636419  HIT:     631393  MISS:       5026
cpu0_DTLB RFO       ACCESS:      48246  HIT:      47967  MISS:        279
cpu0_DTLB PREFETCH  ACCESS:          0  HIT:          0  MISS:          0
cpu0_DTLB WRITEBACK ACCESS:          0  HIT:          0  MISS:          0
cpu0_ITLB TOTAL     ACCESS:     356723  HIT:     356723  MISS:          0
cpu0_ITLB LOAD      ACCESS:     356723  HIT:     356723  MISS:          0
cpu0_ITLB RFO       ACCESS:          0  HIT:          0  MISS:          0
cpu0_ITLB PREFETCH  ACCESS:          0  HIT:          0  MISS:          0
cpu0_ITLB WRITEBACK ACCESS:          0  HIT:          0  MISS:          0
cpu0_L1I TOTAL     ACCESS:        773  HIT:        773  MISS:          0
cpu0_L1I LOAD      ACCESS:        773  HIT:        773  MISS:          0
cpu0_L1I RFO       ACCESS:          0  HIT:          0  MISS:          0
cpu0_L1I PREFETCH  ACCESS:          0  HIT:          0  MISS:          0
cpu0_L1I WRITEBACK ACCESS:          0  HIT:          0  MISS:          0
cpu0_STLB TOTAL     ACCESS:       5305  HIT:       3450  MISS:       1855
cpu0_STLB LOAD      ACCESS:       5026  HIT:       3246  MISS:       1780
cpu0_STLB RFO       ACCESS:        279  HIT:        204  MISS:         75
cpu0_STLB PREFETCH  ACCESS:          0  HIT:          0  MISS:          0
cpu0_STLB WRITEBACK ACCESS:          0  HIT:          0  MISS:          0
cpu0_L1D TOTAL     ACCESS:     441643  HIT:     379770  MISS:      61873
cpu0_L1D LOAD      ACCESS:     383011  HIT:     327854  MISS:      55157
cpu0_L1D RFO       ACCESS:      56865  HIT:      50181  MISS:       6684
cpu0_L1D PREFETCH  ACCESS:          0  HIT:          0  MISS:          0
cpu0_L1D WRITEBACK ACCESS:          0  HIT:          0  MISS:          0
cpu0_L2C TOTAL     ACCESS:      69340  HIT:      17673  MISS:      51667
cpu0_L2C LOAD      ACCESS:      55156  HIT:       9802  MISS:      45354
cpu0_L2C RFO       ACCESS:       6684  HIT:        386  MISS:       6298
cpu0_L2C PREFETCH  ACCESS:          0  HIT:          0  MISS:          0
cpu0_L2C WRITEBACK ACCESS:       7468  HIT:       7463  MISS:          5
LLC TOTAL     ACCESS:      56814  HIT:        175  MISS:      56639
LLC LOAD      ACCESS:      45354  HIT:        173  MISS:      45181
LLC RFO       ACCESS:       6298  HIT:          2  MISS:       6296
LLC PREFETCH  ACCESS:          0  HIT:          0  MISS:          0
LLC WRITEBACK ACCESS:       5152  HIT:          0  MISS:       5152
Heartbeat CPU 0 instructions: 56000000 cycles: 20458137 heartbeat IPC: 0.831834 cumulative IPC: 0.802755 (Simulation time: 0 hr 25 min 25 sec) 

Region of Interest Statistics
cpu0_DTLB TOTAL     ACCESS:    1011370  HIT:    1005347  MISS:       6023
cpu0_DTLB LOAD      ACCESS:     949916  HIT:     944193  MISS:       5723
cpu0_DTLB RFO       ACCESS:      61454  HIT:      61154  MISS:        300
cpu0_DTLB PREFETCH  ACCESS:          0  HIT:          0  MISS:          0
cpu0_DTLB WRITEBACK ACCESS:          0  HIT:          0  MISS:          0
cpu0_ITLB TOTAL     ACCESS:     546861  HIT:     546861  MISS:          0
cpu0_ITLB LOAD      ACCESS:     546861  HIT:     546861  MISS:          0
cpu0_ITLB RFO       ACCESS:          0  HIT:          0  MISS:          0
cpu0_ITLB PREFETCH  ACCESS:          0  HIT:          0  MISS:          0
cpu0_ITLB WRITEBACK ACCESS:          0  HIT:          0  MISS:          0
cpu0_L1I TOTAL     ACCESS:        854  HIT:        854  MISS:          0
cpu0_L1I LOAD      ACCESS:        854  HIT:        854  MISS:          0
cpu0_L1I RFO       ACCESS:          0  HIT:          0  MISS:          0
cpu0_L1I PREFETCH  ACCESS:          0  HIT:          0  MISS:          0
cpu0_L1I WRITEBACK ACCESS:          0  HIT:          0  MISS:          0
cpu0_STLB TOTAL     ACCESS:       6023  HIT:       3749  MISS:       2274
cpu0_STLB LOAD      ACCESS:       5723  HIT:       3525  MISS:       2198
cpu0_STLB RFO       ACCESS:        300  HIT:        224  MISS:         76
cpu0_STLB PREFETCH  ACCESS:          0  HIT:          0  MISS:          0
cpu0_STLB WRITEBACK ACCESS:          0  HIT:          0  MISS:          0
cpu0_L1D TOTAL     ACCESS:     640555  HIT:     552087  MISS:      88468
cpu0_L1D LOAD      ACCESS:     567067  HIT:     486266  MISS:      80801
cpu0_L1D RFO       ACCESS:      71314  HIT:      63688  MISS:       7626
cpu0_L1D PREFETCH  ACCESS:          0  HIT:          0  MISS:          0
cpu0_L1D WRITEBACK ACCESS:          0  HIT:          0  MISS:          0
cpu0_L2C TOTAL     ACCESS:      96896  HIT:      19462  MISS:      77434
cpu0_L2C LOAD      ACCESS:      80800  HIT:      10518  MISS:      70282
cpu0_L2C RFO       ACCESS:       7626  HIT:        493  MISS:       7133
cpu0_L2C PREFETCH  ACCESS:          0  HIT:          0  MISS:          0
cpu0_L2C WRITEBACK ACCESS:       8429  HIT:       8423  MISS:          6
LLC TOTAL     ACCESS:      85897  HIT:        203  MISS:      85694
LLC LOAD      ACCESS:      70282  HIT:        201  MISS:      70081
LLC RFO       ACCESS:       7133  HIT:          2  MISS:       7131
LLC PREFETCH  ACCESS:          0  HIT:          0  MISS:          0
LLC WRITEBACK ACCESS:       8469  HIT:          0  MISS:       8469
Heartbeat CPU 0 instructions: 58000002 cycles: 22540332 heartbeat IPC: 0.960526 cumulative IPC: 0.837131 (Simulation time: 0 hr 27 min 3 sec) 

Region of Interest Statistics
cpu0_DTLB TOTAL     ACCESS:    1398362  HIT:    1388585  MISS:       9777
cpu0_DTLB LOAD      ACCESS:    1254264  HIT:    1244927  MISS:       9337
cpu0_DTLB RFO       ACCESS:     144098  HIT:     143658  MISS:        440
cpu0_DTLB PREFETCH  ACCESS:          0  HIT:          0  MISS:          0
cpu0_DTLB WRITEBACK ACCESS:          0  HIT:          0  MISS:          0
cpu0_ITLB TOTAL     ACCESS:     693690  HIT:     693690  MISS:          0
cpu0_ITLB LOAD      ACCESS:     693690  HIT:     693690  MISS:          0
cpu0_ITLB RFO       ACCESS:          0  HIT:          0  MISS:          0
cpu0_ITLB PREFETCH  ACCESS:          0  HIT:          0  MISS:          0
cpu0_ITLB WRITEBACK ACCESS:          0  HIT:          0  MISS:          0
cpu0_L1I TOTAL     ACCESS:      25068  HIT:      25026  MISS:         42
cpu0_L1I LOAD      ACCESS:      25068  HIT:      25026  MISS:         42
cpu0_L1I RFO       ACCESS:          0  HIT:          0  MISS:          0
cpu0_L1I PREFETCH  ACCESS:          0  HIT:          0  MISS:          0
cpu0_L1I WRITEBACK ACCESS:          0  HIT:          0  MISS:          0
cpu0_STLB TOTAL     ACCESS:       9777  HIT:       6285  MISS:       3492
cpu0_STLB LOAD      ACCESS:       9337  HIT:       5949  MISS:       3388
cpu0_STLB RFO       ACCESS:        440  HIT:        336  MISS:        104
cpu0_STLB PREFETCH  ACCESS:          0  HIT:          0  MISS:          0
cpu0_STLB WRITEBACK ACCESS:          0  HIT:          0  MISS:          0
cpu0_L1D TOTAL     ACCESS:    1059814  HIT:     950846  MISS:     108968
cpu0_L1D LOAD      ACCESS:     812009  HIT:     712431  MISS:      99578
cpu0_L1D RFO       ACCESS:     244490  HIT:     235159  MISS:       9331
cpu0_L1D PREFETCH  ACCESS:          0  HIT:          0  MISS:          0
cpu0_L1D WRITEBACK ACCESS:          0  HIT:          0  MISS:          0
cpu0_L2C TOTAL     ACCESS:     119737  HIT:      28501  MISS:      91236
cpu0_L2C LOAD      ACCESS:      99619  HIT:      16877  MISS:      82742
cpu0_L2C RFO       ACCESS:       9331  HIT:        864  MISS:       8467
cpu0_L2C PREFETCH  ACCESS:          0  HIT:          0  MISS:          0
cpu0_L2C WRITEBACK ACCESS:      10728  HIT:      10719  MISS:          9
LLC TOTAL     ACCESS:     100035  HIT:        260  MISS:      99775
LLC LOAD      ACCESS:      82742  HIT:        258  MISS:      82484
LLC RFO       ACCESS:       8467  HIT:          2  MISS:       8465
LLC PREFETCH  ACCESS:          0  HIT:          0  MISS:          0
LLC WRITEBACK ACCESS:       8808  HIT:          0  MISS:       8808
Heartbeat CPU 0 instructions: 60000003 cycles: 24877061 heartbeat IPC: 0.855898 cumulative IPC: 0.840818 (Simulation time: 0 hr 28 min 37 sec) 

Region of Interest Statistics
cpu0_DTLB TOTAL     ACCESS:    1726860  HIT:    1716398  MISS:      10462
cpu0_DTLB LOAD      ACCESS:    1565573  HIT:    1555616  MISS:       9957
cpu0_DTLB RFO       ACCESS:     161287  HIT:     160782  MISS:        505
cpu0_DTLB PREFETCH  ACCESS:          0  HIT:          0  MISS:          0
cpu0_DTLB WRITEBACK ACCESS:          0  HIT:          0  MISS:          0
cpu0_ITLB TOTAL     ACCESS:     875598  HIT:     875598  MISS:          0
cpu0_ITLB LOAD      ACCESS:     875598  HIT:     875598  MISS:          0
cpu0_ITLB RFO       ACCESS:          0  HIT:          0  MISS:          0
cpu0_ITLB PREFETCH  ACCESS:          0  HIT:          0  MISS:          0
cpu0_ITLB WRITEBACK ACCESS:          0  HIT:          0  MISS:          0
cpu0_L1I TOTAL     ACCESS:      25171  HIT:      25123  MISS:         48
cpu0_L1I LOAD      ACCESS:      25171  HIT:      25123  MISS:         48
cpu0_L1I RFO       ACCESS:          0  HIT:          0  MISS:          0
cpu0_L1I PREFETCH  ACCESS:          0  HIT:          0  MISS:          0
cpu0_L1I WRITEBACK ACCESS:          0  HIT:          0  MISS:          0
cpu0_STLB TOTAL     ACCESS:      10462  HIT:       6627  MISS:       3835
cpu0_STLB LOAD      ACCESS:       9957  HIT:       6258  MISS:       3699
cpu0_STLB RFO       ACCESS:        505  HIT:        369  MISS:        136
cpu0_STLB PREFETCH  ACCESS:          0  HIT:          0  MISS:          0
cpu0_STLB WRITEBACK ACCESS:          0  HIT:          0  MISS:          0
cpu0_L1D TOTAL     ACCESS:    1253550  HIT:    1117214  MISS:     136336
cpu0_L1D LOAD      ACCESS:     990672  HIT:     866937  MISS:     123735
cpu0_L1D RFO       ACCESS:     259224  HIT:     246691  MISS:      12533
cpu0_L1D PREFETCH  ACCESS:          0  HIT:          0  MISS:          0
cpu0_L1D WRITEBACK ACCESS:          0  HIT:          0  MISS:          0
cpu0_L2C TOTAL     ACCESS:     150304  HIT:      34069  MISS:     116235
cpu0_L2C LOAD      ACCESS:     123782  HIT:      19047  MISS:     104735
cpu0_L2C RFO       ACCESS:      12533  HIT:       1061  MISS:      11472
cpu0_L2C PREFETCH  ACCESS:          0  HIT:          0  MISS:          0
cpu0_L2C WRITEBACK ACCESS:      13921  HIT:      13911  MISS:         10
LLC TOTAL     ACCESS:     129581  HIT:        298  MISS:     129283
LLC LOAD      ACCESS:     104735  HIT:        295  MISS:     104440
LLC RFO       ACCESS:      11472  HIT:          3  MISS:      11469
LLC PREFETCH  ACCESS:          0  HIT:          0  MISS:          0
LLC WRITEBACK ACCESS:      13356  HIT:          0  MISS:      13356
Heartbeat CPU 0 instructions: 62000000 cycles: 27570750 heartbeat IPC: 0.742475 cumulative IPC: 0.822658 (Simulation time: 0 hr 30 min 31 sec) 

Region of Interest Statistics
cpu0_DTLB TOTAL     ACCESS:    2079029  HIT:    2064561  MISS:      14468
cpu0_DTLB LOAD      ACCESS:    1888928  HIT:    1875168  MISS:      13760
cpu0_DTLB RFO       ACCESS:     190101  HIT:     189393  MISS:        708
cpu0_DTLB PREFETCH  ACCESS:          0  HIT:          0  MISS:          0
cpu0_DTLB WRITEBACK ACCESS:          0  HIT:          0  MISS:          0
cpu0_ITLB TOTAL     ACCESS:    1041096  HIT:    1041096  MISS:          0
cpu0_ITLB LOAD      ACCESS:    1041096  HIT:    1041096  MISS:          0
cpu0_ITLB RFO       ACCESS:          0  HIT:          0  MISS:          0
cpu0_ITLB PREFETCH  ACCESS:          0  HIT:          0  MISS:          0
cpu0_ITLB WRITEBACK ACCESS:          0  HIT:          0  MISS:          0
cpu0_L1I TOTAL     ACCESS:      26247  HIT:      26184  MISS:         63
cpu0_L1I LOAD      ACCESS:      26247  HIT:      26184  MISS:         63
cpu0_L1I RFO       ACCESS:          0  HIT:          0  MISS:          0
cpu0_L1I PREFETCH  ACCESS:          0  HIT:          0  MISS:          0
cpu0_L1I WRITEBACK ACCESS:          0  HIT:          0  MISS:          0
cpu0_STLB TOTAL     ACCESS:      14468  HIT:       9298  MISS:       5170
cpu0_STLB LOAD      ACCESS:      13760  HIT:       8775  MISS:       4985
cpu0_STLB RFO       ACCESS:        708  HIT:        523  MISS:        185
cpu0_STLB PREFETCH  ACCESS:          0  HIT:          0  MISS:          0
cpu0_STLB WRITEBACK ACCESS:          0  HIT:          0  MISS:          0
cpu0_L1D TOTAL     ACCESS:    1493674  HIT:    1324273  MISS:     169401
cpu0_L1D LOAD      ACCESS:    1191744  HIT:    1038437  MISS:     153307
cpu0_L1D RFO       ACCESS:     297016  HIT:     281011  MISS:      16005
cpu0_L1D PREFETCH  ACCESS:          0  HIT:          0  MISS:          0
cpu0_L1D WRITEBACK ACCESS:          0  HIT:          0  MISS:          0
cpu0_L2C TOTAL     ACCESS:     187625  HIT:      44624  MISS:     143001
cpu0_L2C LOAD      ACCESS:     153369  HIT:      25198  MISS:     128171
cpu0_L2C RFO       ACCESS:      16005  HIT:       1215  MISS:      14790
cpu0_L2C PREFETCH  ACCESS:          0  HIT:          0  MISS:          0
cpu0_L2C WRITEBACK ACCESS:      18162  HIT:      18148  MISS:         14
LLC TOTAL     ACCESS:     157488  HIT:        410  MISS:     157078
LLC LOAD      ACCESS:     128171  HIT:        407  MISS:     127764
LLC RFO       ACCESS:      14790  HIT:          3  MISS:      14787
LLC PREFETCH  ACCESS:          0  HIT:          0  MISS:          0
LLC WRITEBACK ACCESS:      14501  HIT:          0  MISS:      14501
Heartbeat CPU 0 instructions: 64000002 cycles: 29948377 heartbeat IPC: 0.841176 cumulative IPC: 0.825253 (Simulation time: 0 hr 32 min 15 sec) 

Region of Interest Statistics
cpu0_DTLB TOTAL     ACCESS:    2405901  HIT:    2390842  MISS:      15059
cpu0_DTLB LOAD      ACCESS:    2202973  HIT:    2188644  MISS:      14329
cpu0_DTLB RFO       ACCESS:     202928  HIT:     202198  MISS:        730
cpu0_DTLB PREFETCH  ACCESS:          0  HIT:          0  MISS:          0
cpu0_DTLB WRITEBACK ACCESS:          0  HIT:          0  MISS:          0
cpu0_ITLB TOTAL     ACCESS:    1231665  HIT:    1231665  MISS:          0
cpu0_ITLB LOAD      ACCESS:    1231665  HIT:    1231665  MISS:          0
cpu0_ITLB RFO       ACCESS:          0  HIT:          0  MISS:          0
cpu0_ITLB PREFETCH  ACCESS:          0  HIT:          0  MISS:          0
cpu0_ITLB WRITEBACK ACCESS:          0  HIT:          0  MISS:          0
cpu0_L1I TOTAL     ACCESS:      26329  HIT:      26266  MISS:         63
cpu0_L1I LOAD      ACCESS:      26329  HIT:      26266  MISS:         63
cpu0_L1I RFO       ACCESS:          0  HIT:          0  MISS:          0
cpu0_L1I PREFETCH  ACCESS:          0  HIT:          0  MISS:          0
cpu0_L1I WRITEBACK ACCESS:          0  HIT:          0  MISS:          0
cpu0_STLB TOTAL     ACCESS:      15059  HIT:       9499  MISS:       5560
cpu0_STLB LOAD      ACCESS:      14329  HIT:       8955  MISS:       5374
cpu0_STLB RFO       ACCESS:        730  HIT:        544  MISS:        186
cpu0_STLB PREFETCH  ACCESS:          0  HIT:          0  MISS:          0
cpu0_STLB WRITEBACK ACCESS:          0  HIT:          0  MISS:          0
cpu0_L1D TOTAL     ACCESS:    1691331  HIT:    1495642  MISS:     195689
cpu0_L1D LOAD      ACCESS:    1375367  HIT:    1196720  MISS:     178647
cpu0_L1D RFO       ACCESS:     310670  HIT:     293726  MISS:      16944
cpu0_L1D PREFETCH  ACCESS:          0  HIT:          0  MISS:          0
cpu0_L1D WRITEBACK ACCESS:          0  HIT:          0  MISS:          0
cpu0_L2C TOTAL     ACCESS:     214840  HIT:      46472  MISS:     168368
cpu0_L2C LOAD      ACCESS:     178709  HIT:      26003  MISS:     152706
cpu0_L2C RFO       ACCESS:      16944  HIT:       1325  MISS:      15619
cpu0_L2C PREFETCH  ACCESS:          0  HIT:          0  MISS:          0
cpu0_L2C WRITEBACK ACCESS:      19089  HIT:      19075  MISS:         14
LLC TOTAL     ACCESS:     186377  HIT:        425  MISS:     185952
LLC LOAD      ACCESS:     152705  HIT:        420  MISS:     152285
LLC RFO       ACCESS:      15619  HIT:          3  MISS:      15616
LLC PREFETCH  ACCESS:          0  HIT:          0  MISS:          0
LLC WRITEBACK ACCESS:      18024  HIT:          2  MISS:      18022
Heartbeat CPU 0 instructions: 66000002 cycles: 32710914 heartbeat IPC: 0.723972 cumulative IPC: 0.81107 (Simulation time: 0 hr 34 min 15 sec) 

Region of Interest Statistics
cpu0_DTLB TOTAL     ACCESS:    2761955  HIT:    2742046  MISS:      19909
cpu0_DTLB LOAD      ACCESS:    2529033  HIT:    2510116  MISS:      18917
cpu0_DTLB RFO       ACCESS:     232922  HIT:     231930  MISS:        992
cpu0_DTLB PREFETCH  ACCESS:          0  HIT:          0  MISS:          0
cpu0_DTLB WRITEBACK ACCESS:          0  HIT:          0  MISS:          0
cpu0_ITLB TOTAL     ACCESS:    1401658  HIT:    1401658  MISS:          0
cpu0_ITLB LOAD      ACCESS:    1401658  HIT:    1401658  MISS:          0
cpu0_ITLB RFO       ACCESS:          0  HIT:          0  MISS:          0
cpu0_ITLB PREFETCH  ACCESS:          0  HIT:          0  MISS:          0
cpu0_ITLB WRITEBACK ACCESS:          0  HIT:          0  MISS:          0
cpu0_L1I TOTAL     ACCESS:      28045  HIT:      27981  MISS:         64
cpu0_L1I LOAD      ACCESS:      28045  HIT:      27981  MISS:         64
cpu0_L1I RFO       ACCESS:          0  HIT:          0  MISS:          0
cpu0_L1I PREFETCH  ACCESS:          0  HIT:          0  MISS:          0
cpu0_L1I WRITEBACK ACCESS:          0  HIT:          0  MISS:          0
cpu0_STLB TOTAL     ACCESS:      19909  HIT:      12906  MISS:       7003
cpu0_STLB LOAD      ACCESS:      18917  HIT:      12146  MISS:       6771
cpu0_STLB RFO       ACCESS:        992  HIT:        760  MISS:        232
cpu0_STLB PREFETCH  ACCESS:          0  HIT:          0  MISS:          0
cpu0_STLB WRITEBACK ACCESS:          0  HIT:          0  MISS:          0
cpu0_L1D TOTAL     ACCESS:    1938704  HIT:    1708521  MISS:     230183
cpu0_L1D LOAD      ACCESS:    1579476  HIT:    1369833  MISS:     209643
cpu0_L1D RFO       ACCESS:     352568  HIT:     332149  MISS:      20419
cpu0_L1D PREFETCH  ACCESS:          0  HIT:          0  MISS:          0
cpu0_L1D WRITEBACK ACCESS:          0  HIT:          0  MISS:          0
cpu0_L2C TOTAL     ACCESS:     254028  HIT:      59497  MISS:     194531
cpu0_L2C LOAD      ACCESS:     209706  HIT:      34054  MISS:     175652
cpu0_L2C RFO       ACCESS:      20419  HIT:       1594  MISS:      18825
cpu0_L2C PREFETCH  ACCESS:          0  HIT:          0  MISS:          0
cpu0_L2C WRITEBACK ACCESS:      23782  HIT:      23763  MISS:         19
LLC TOTAL     ACCESS:     214759  HIT:        625  MISS:     214134
LLC LOAD      ACCESS:     175651  HIT:        615  MISS:     175036
LLC RFO       ACCESS:      18825  HIT:          5  MISS:      18820
LLC PREFETCH  ACCESS:          0  HIT:          0  MISS:          0
LLC WRITEBACK ACCESS:      20248  HIT:          5  MISS:      20243
Heartbeat CPU 0 instructions: 68000001 cycles: 35486342 heartbeat IPC: 0.720609 cumulative IPC: 0.799913 (Simulation time: 0 hr 36 min 5 sec) 

Region of Interest Statistics
cpu0_DTLB TOTAL     ACCESS:    3097144  HIT:    3074244  MISS:      22900
cpu0_DTLB LOAD      ACCESS:    2844398  HIT:    2822554  MISS:      21844
cpu0_DTLB RFO       ACCESS:     252746  HIT:     251690  MISS:       1056
cpu0_DTLB PREFETCH  ACCESS:          0  HIT:          0  MISS:          0
cpu0_DTLB WRITEBACK ACCESS:          0  HIT:          0  MISS:          0
cpu0_ITLB TOTAL     ACCESS:    1584862  HIT:    1584862  MISS:          0
cpu0_ITLB LOAD      ACCESS:    1584862  HIT:    1584862  MISS:          0
cpu0_ITLB RFO       ACCESS:          0  HIT:          0  MISS:          0
cpu0_ITLB PREFETCH  ACCESS:          0  HIT:          0  MISS:          0
cpu0_ITLB WRITEBACK ACCESS:          0  HIT:          0  MISS:          0
cpu0_L1I TOTAL     ACCESS:      28102  HIT:      28038  MISS:         64
cpu0_L1I LOAD      ACCESS:      28102  HIT:      28038  MISS:         64
cpu0_L1I RFO       ACCESS:          0  HIT:          0  MISS:          0
cpu0_L1I PREFETCH  ACCESS:          0  HIT:          0  MISS:          0
cpu0_L1I WRITEBACK ACCESS:          0  HIT:          0  MISS:          0
cpu0_STLB TOTAL     ACCESS:      22900  HIT:      14913  MISS:       7987
cpu0_STLB LOAD      ACCESS:      21844  HIT:      14093  MISS:       7751
cpu0_STLB RFO       ACCESS:       1056  HIT:        820  MISS:        236
cpu0_STLB PREFETCH  ACCESS:          0  HIT:          0  MISS:          0
cpu0_STLB WRITEBACK ACCESS:          0  HIT:          0  MISS:          0
cpu0_L1D TOTAL     ACCESS:    2163835  HIT:    1903088  MISS:     260747
cpu0_L1D LOAD      ACCESS:    1775128  HIT:    1535875  MISS:     239253
cpu0_L1D RFO       ACCESS:     381115  HIT:     359751  MISS:      21364
cpu0_L1D PREFETCH  ACCESS:          0  HIT:          0  MISS:          0
cpu0_L1D WRITEBACK ACCESS:          0  HIT:          0  MISS:          0
cpu0_L2C TOTAL     ACCESS:     285556  HIT:      63606  MISS:     221950
cpu0_L2C LOAD      ACCESS:     239316  HIT:      37190  MISS:     202126
cpu0_L2C RFO       ACCESS:      21364  HIT:       1600  MISS:      19764
cpu0_L2C PREFETCH  ACCESS:          0  HIT:          0  MISS:          0
cpu0_L2C WRITEBACK ACCESS:      24746  HIT:      24726  MISS:         20
LLC TOTAL     ACCESS:     244805  HIT:        674  MISS:     244131
LLC LOAD      ACCESS:     202125  HIT:        664  MISS:     201461
LLC RFO       ACCESS:      19764  HIT:          5  MISS:      19759
LLC PREFETCH  ACCESS:          0  HIT:          0  MISS:          0
LLC WRITEBACK ACCESS:      22876  HIT:          5  MISS:      22871
Heartbeat CPU 0 instructions: 70000003 cycles: 38006832 heartbeat IPC: 0.793497 cumulative IPC: 0.799266 (Simulation time: 0 hr 37 min 57 sec) 

Region of Interest Statistics
cpu0_DTLB TOTAL     ACCESS:    3444178  HIT:    3418903  MISS:      25275
cpu0_DTLB LOAD      ACCESS:    3168650  HIT:    3144635  MISS:      24015
cpu0_DTLB RFO       ACCESS:     275528  HIT:     274268  MISS:       1260
cpu0_DTLB PREFETCH  ACCESS:          0  HIT:          0  MISS:          0
cpu0_DTLB WRITEBACK ACCESS:          0  HIT:          0  MISS:          0
cpu0_ITLB TOTAL     ACCESS:    1759309  HIT:    1759309  MISS:          0
cpu0_ITLB LOAD      ACCESS:    1759309  HIT:    1759309  MISS:          0
cpu0_ITLB RFO       ACCESS:          0  HIT:          0  MISS:          0
cpu0_ITLB PREFETCH  ACCESS:          0  HIT:          0  MISS:          0
cpu0_ITLB WRITEBACK ACCESS:          0  HIT:          0  MISS:          0
cpu0_L1I TOTAL     ACCESS:      29024  HIT:      28960  MISS:         64
cpu0_L1I LOAD      ACCESS:      29024  HIT:      28960  MISS:         64
cpu0_L1I RFO       ACCESS:          0  HIT:          0  MISS:          0
cpu0_L1I PREFETCH  ACCESS:          0  HIT:          0  MISS:          0
cpu0_L1I WRITEBACK ACCESS:          0  HIT:          0  MISS:          0
cpu0_STLB TOTAL     ACCESS:      25275  HIT:      16426  MISS:       8849
cpu0_STLB LOAD      ACCESS:      24015  HIT:      15443  MISS:       8572
cpu0_STLB RFO       ACCESS:       1260  HIT:        983  MISS:        277
cpu0_STLB PREFETCH  ACCESS:          0  HIT:          0  MISS:          0
cpu0_STLB WRITEBACK ACCESS:          0  HIT:          0  MISS:          0
cpu0_L1D TOTAL     ACCESS:    2384386  HIT:    2093290  MISS:     291096
cpu0_L1D LOAD      ACCESS:    1968181  HIT:    1701984  MISS:     266197
cpu0_L1D RFO       ACCESS:     407786  HIT:     383038  MISS:      24748
cpu0_L1D PREFETCH  ACCESS:          0  HIT:          0  MISS:          0
cpu0_L1D WRITEBACK ACCESS:          0  HIT:          0  MISS:          0
cpu0_L2C TOTAL     ACCESS:     320403  HIT:      73411  MISS:     246992
cpu0_L2C LOAD      ACCESS:     266258  HIT:      42211  MISS:     224047
cpu0_L2C RFO       ACCESS:      24748  HIT:       1872  MISS:      22876
cpu0_L2C PREFETCH  ACCESS:          0  HIT:          0  MISS:          0
cpu0_L2C WRITEBACK ACCESS:      29246  HIT:      29221  MISS:         25
LLC TOTAL     ACCESS:     273807  HIT:        826  MISS:     272981
LLC LOAD      ACCESS:     224046  HIT:        812  MISS:     223234
LLC RFO       ACCESS:      22876  HIT:          7  MISS:      22869
LLC PREFETCH  ACCESS:          0  HIT:          0  MISS:          0
LLC WRITEBACK ACCESS:      26841  HIT:          7  MISS:      26834
Heartbeat CPU 0 instructions: 72000001 cycles: 40821197 heartbeat IPC: 0.710639 cumulative IPC: 0.790306 (Simulation time: 0 hr 39 min 49 sec) 

Region of Interest Statistics
cpu0_DTLB TOTAL     ACCESS:    3795131  HIT:    3765860  MISS:      29271
cpu0_DTLB LOAD      ACCESS:    3496188  HIT:    3468288  MISS:      27900
cpu0_DTLB RFO       ACCESS:     298943  HIT:     297572  MISS:       1371
cpu0_DTLB PREFETCH  ACCESS:          0  HIT:          0  MISS:          0
cpu0_DTLB WRITEBACK ACCESS:          0  HIT:          0  MISS:          0
cpu0_ITLB TOTAL     ACCESS:    1940756  HIT:    1940756  MISS:          0
cpu0_ITLB LOAD      ACCESS:    1940756  HIT:    1940756  MISS:          0
cpu0_ITLB RFO       ACCESS:          0  HIT:          0  MISS:          0
cpu0_ITLB PREFETCH  ACCESS:          0  HIT:          0  MISS:          0
cpu0_ITLB WRITEBACK ACCESS:          0  HIT:          0  MISS:          0
cpu0_L1I TOTAL     ACCESS:      29060  HIT:      28996  MISS:         64
cpu0_L1I LOAD      ACCESS:      29060  HIT:      28996  MISS:         64
cpu0_L1I RFO       ACCESS:          0  HIT:          0  MISS:          0
cpu0_L1I PREFETCH  ACCESS:          0  HIT:          0  MISS:          0
cpu0_L1I WRITEBACK ACCESS:          0  HIT:          0  MISS:          0
cpu0_STLB TOTAL     ACCESS:      29271  HIT:      19104  MISS:      10167
cpu0_STLB LOAD      ACCESS:      27900  HIT:      18020  MISS:       9880
cpu0_STLB RFO       ACCESS:       1371  HIT:       1084  MISS:        287
cpu0_STLB PREFETCH  ACCESS:          0  HIT:          0  MISS:          0
cpu0_STLB WRITEBACK ACCESS:          0  HIT:          0  MISS:          0
cpu0_L1D TOTAL     ACCESS:    2627383  HIT:    2304321  MISS:     323062
cpu0_L1D LOAD      ACCESS:    2174431  HIT:    1877334  MISS:     297097
cpu0_L1D RFO       ACCESS:     443303  HIT:     417499  MISS:      25804
cpu0_L1D PREFETCH  ACCESS:          0  HIT:          0  MISS:          0
cpu0_L1D WRITEBACK ACCESS:          0  HIT:          0  MISS:          0
cpu0_L2C TOTAL     ACCESS:     353476  HIT:      79802  MISS:     273674
cpu0_L2C LOAD      ACCESS:     297158  HIT:      47487  MISS:     249671
cpu0_L2C RFO       ACCESS:      25804  HIT:       1879  MISS:      23925
cpu0_L2C PREFETCH  ACCESS:          0  HIT:          0  MISS:          0
cpu0_L2C WRITEBACK ACCESS:      30353  HIT:      30323  MISS:         30
LLC TOTAL     ACCESS:     301389  HIT:        906  MISS:     300483
LLC LOAD      ACCESS:     249670  HIT:        892  MISS:     248778
LLC RFO       ACCESS:      23925  HIT:          7  MISS:      23918
LLC PREFETCH  ACCESS:          0  HIT:          0  MISS:          0
LLC WRITEBACK ACCESS:      27746  HIT:          7  MISS:      27739
Heartbeat CPU 0 instructions: 74000001 cycles: 43258810 heartbeat IPC: 0.820475 cumulative IPC: 0.792735 (Simulation time: 0 hr 41 min 32 sec) 

Region of Interest Statistics
cpu0_DTLB TOTAL     ACCESS:    4126799  HIT:    4096163  MISS:      30636
cpu0_DTLB LOAD      ACCESS:    3808617  HIT:    3779493  MISS:      29124
cpu0_DTLB RFO       ACCESS:     318182  HIT:     316670  MISS:       1512
cpu0_DTLB PREFETCH  ACCESS:          0  HIT:          0  MISS:          0
cpu0_DTLB WRITEBACK ACCESS:          0  HIT:          0  MISS:          0
cpu0_ITLB TOTAL     ACCESS:    2118490  HIT:    2118490  MISS:          0
cpu0_ITLB LOAD      ACCESS:    2118490  HIT:    2118490  MISS:          0
cpu0_ITLB RFO       ACCESS:          0  HIT:          0  MISS:          0
cpu0_ITLB PREFETCH  ACCESS:          0  HIT:          0  MISS:          0
cpu0_ITLB WRITEBACK ACCESS:          0  HIT:          0  MISS:          0
cpu0_L1I TOTAL     ACCESS:      30191  HIT:      30127  MISS:         64
cpu0_L1I LOAD      ACCESS:      30191  HIT:      30127  MISS:         64
cpu0_L1I RFO       ACCESS:          0  HIT:          0  MISS:          0
cpu0_L1I PREFETCH  ACCESS:          0  HIT:          0  MISS:          0
cpu0_L1I WRITEBACK ACCESS:          0  HIT:          0  MISS:          0
cpu0_STLB TOTAL     ACCESS:      30636  HIT:      19946  MISS:      10690
cpu0_STLB LOAD      ACCESS:      29124  HIT:      18759  MISS:      10365
cpu0_STLB RFO       ACCESS:       1512  HIT:       1187  MISS:        325
cpu0_STLB PREFETCH  ACCESS:          0  HIT:          0  MISS:          0
cpu0_STLB WRITEBACK ACCESS:          0  HIT:          0  MISS:          0
cpu0_L1D TOTAL     ACCESS:    2830518  HIT:    2478579  MISS:     351939
cpu0_L1D LOAD      ACCESS:    2357136  HIT:    2034423  MISS:     322713
cpu0_L1D RFO       ACCESS:     463213  HIT:     434163  MISS:      29050
cpu0_L1D PREFETCH  ACCESS:          0  HIT:          0  MISS:          0
cpu0_L1D WRITEBACK ACCESS:          0  HIT:          0  MISS:          0
cpu0_L2C TOTAL     ACCESS:     386597  HIT:      87187  MISS:     299410
cpu0_L2C LOAD      ACCESS:     322773  HIT:      50351  MISS:     272422
cpu0_L2C RFO       ACCESS:      29050  HIT:       2145  MISS:      26905
cpu0_L2C PREFETCH  ACCESS:          0  HIT:          0  MISS:          0
cpu0_L2C WRITEBACK ACCESS:      34598  HIT:      34568  MISS:         30
LLC TOTAL     ACCESS:     331206  HIT:       1013  MISS:     330193
LLC LOAD      ACCESS:     272421  HIT:        997  MISS:     271424
LLC RFO       ACCESS:      26905  HIT:          9  MISS:      26896
LLC PREFETCH  ACCESS:          0  HIT:          0  MISS:          0
LLC WRITEBACK ACCESS:      31827  HIT:          7  MISS:      31820
Heartbeat CPU 0 instructions: 76000003 cycles: 46109464 heartbeat IPC: 0.701594 cumulative IPC: 0.784892 (Simulation time: 0 hr 43 min 17 sec) 

Region of Interest Statistics
cpu0_DTLB TOTAL     ACCESS:    4475671  HIT:    4440880  MISS:      34791
cpu0_DTLB LOAD      ACCESS:    4134440  HIT:    4101312  MISS:      33128
cpu0_DTLB RFO       ACCESS:     341231  HIT:     339568  MISS:       1663
cpu0_DTLB PREFETCH  ACCESS:          0  HIT:          0  MISS:          0
cpu0_DTLB WRITEBACK ACCESS:          0  HIT:          0  MISS:          0
cpu0_ITLB TOTAL     ACCESS:    2285127  HIT:    2285127  MISS:          0
cpu0_ITLB LOAD      ACCESS:    2285127  HIT:    2285127  MISS:          0
cpu0_ITLB RFO       ACCESS:          0  HIT:          0  MISS:          0
cpu0_ITLB PREFETCH  ACCESS:          0  HIT:          0  MISS:          0
cpu0_ITLB WRITEBACK ACCESS:          0  HIT:          0  MISS:          0
cpu0_L1I TOTAL     ACCESS:      31110  HIT:      31046  MISS:         64
cpu0_L1I LOAD      ACCESS:      31110  HIT:      31046  MISS:         64
cpu0_L1I RFO       ACCESS:          0  HIT:          0  MISS:          0
cpu0_L1I PREFETCH  ACCESS:          0  HIT:          0  MISS:          0
cpu0_L1I WRITEBACK ACCESS:          0  HIT:          0  MISS:          0
cpu0_STLB TOTAL     ACCESS:      34791  HIT:      22712  MISS:      12079
cpu0_STLB LOAD      ACCESS:      33128  HIT:      21390  MISS:      11738
cpu0_STLB RFO       ACCESS:       1663  HIT:       1322  MISS:        341
cpu0_STLB PREFETCH  ACCESS:          0  HIT:          0  MISS:          0
cpu0_STLB WRITEBACK ACCESS:          0  HIT:          0  MISS:          0
cpu0_L1D TOTAL     ACCESS:    3074767  HIT:    2691241  MISS:     383526
cpu0_L1D LOAD      ACCESS:    2562777  HIT:    2209457  MISS:     353320
cpu0_L1D RFO       ACCESS:     500514  HIT:     470501  MISS:      30013
cpu0_L1D PREFETCH  ACCESS:          0  HIT:          0  MISS:          0
cpu0_L1D WRITEBACK ACCESS:          0  HIT:          0  MISS:          0
cpu0_L2C TOTAL     ACCESS:     419866  HIT:      93814  MISS:     326052
cpu0_L2C LOAD      ACCESS:     353380  HIT:      55268  MISS:     298112
cpu0_L2C RFO       ACCESS:      30013  HIT:       2168  MISS:      27845
cpu0_L2C PREFETCH  ACCESS:          0  HIT:          0  MISS:          0
cpu0_L2C WRITEBACK ACCESS:      36280  HIT:      36245  MISS:         35
LLC TOTAL     ACCESS:     358797  HIT:       1098  MISS:     357699
LLC LOAD      ACCESS:     298111  HIT:       1081  MISS:     297030
LLC RFO       ACCESS:      27845  HIT:         10  MISS:      27835
LLC PREFETCH  ACCESS:          0  HIT:          0  MISS:          0
LLC WRITEBACK ACCESS:      32781  HIT:          7  MISS:      32774
Heartbeat CPU 0 instructions: 78000001 cycles: 48465431 heartbeat IPC: 0.848907 cumulative IPC: 0.789143 (Simulation time: 0 hr 45 min 2 sec) 

Region of Interest Statistics
cpu0_DTLB TOTAL     ACCESS:    4807402  HIT:    4771763  MISS:      35639
cpu0_DTLB LOAD      ACCESS:    4447786  HIT:    4413905  MISS:      33881
cpu0_DTLB RFO       ACCESS:     359616  HIT:     357858  MISS:       1758
cpu0_DTLB PREFETCH  ACCESS:          0  HIT:          0  MISS:          0
cpu0_DTLB WRITEBACK ACCESS:          0  HIT:          0  MISS:          0
cpu0_ITLB TOTAL     ACCESS:    2476158  HIT:    2476158  MISS:          0
cpu0_ITLB LOAD      ACCESS:    2476158  HIT:    2476158  MISS:          0
cpu0_ITLB RFO       ACCESS:          0  HIT:          0  MISS:          0
cpu0_ITLB PREFETCH  ACCESS:          0  HIT:          0  MISS:          0
cpu0_ITLB WRITEBACK ACCESS:          0  HIT:          0  MISS:          0
cpu0_L1I TOTAL     ACCESS:      31597  HIT:      31533  MISS:         64
cpu0_L1I LOAD      ACCESS:      31597  HIT:      31533  MISS:         64
cpu0_L1I RFO       ACCESS:          0  HIT:          0  MISS:          0
cpu0_L1I PREFETCH  ACCESS:          0  HIT:          0  MISS:          0
cpu0_L1I WRITEBACK ACCESS:          0  HIT:          0  MISS:          0
cpu0_STLB TOTAL     ACCESS:      35639  HIT:      23144  MISS:      12495
cpu0_STLB LOAD      ACCESS:      33881  HIT:      21761  MISS:      12120
cpu0_STLB RFO       ACCESS:       1758  HIT:       1383  MISS:        375
cpu0_STLB PREFETCH  ACCESS:          0  HIT:          0  MISS:          0
cpu0_STLB WRITEBACK ACCESS:          0  HIT:          0  MISS:          0
cpu0_L1D TOTAL     ACCESS:    3270583  HIT:    2858506  MISS:     412077
cpu0_L1D LOAD      ACCESS:    2742903  HIT:    2364434  MISS:     378469
cpu0_L1D RFO       ACCESS:     515792  HIT:     482388  MISS:      33404
cpu0_L1D PREFETCH  ACCESS:          0  HIT:          0  MISS:          0
cpu0_L1D WRITEBACK ACCESS:          0  HIT:          0  MISS:          0
cpu0_L2C TOTAL     ACCESS:     451992  HIT:     100015  MISS:     351977
cpu0_L2C LOAD      ACCESS:     378529  HIT:      57622  MISS:     320907
cpu0_L2C RFO       ACCESS:      33404  HIT:       2431  MISS:      30973
cpu0_L2C PREFETCH  ACCESS:          0  HIT:          0  MISS:          0
cpu0_L2C WRITEBACK ACCESS:      39855  HIT:      39820  MISS:         35
LLC TOTAL     ACCESS:     388583  HIT:       1157  MISS:     387426
LLC LOAD      ACCESS:     320906  HIT:       1140  MISS:     319766
LLC RFO       ACCESS:      30973  HIT:         10  MISS:      30963
LLC PREFETCH  ACCESS:          0  HIT:          0  MISS:          0
LLC WRITEBACK ACCESS:      36642  HIT:          7  MISS:      36635
Heartbeat CPU 0 instructions: 80000002 cycles: 51450920 heartbeat IPC: 0.669907 cumulative IPC: 0.779889 (Simulation time: 0 hr 46 min 59 sec) 

Region of Interest Statistics
cpu0_DTLB TOTAL     ACCESS:    5165867  HIT:    5124779  MISS:      41088
cpu0_DTLB LOAD      ACCESS:    4773502  HIT:    4734447  MISS:      39055
cpu0_DTLB RFO       ACCESS:     392365  HIT:     390332  MISS:       2033
cpu0_DTLB PREFETCH  ACCESS:          0  HIT:          0  MISS:          0
cpu0_DTLB WRITEBACK ACCESS:          0  HIT:          0  MISS:          0
cpu0_ITLB TOTAL     ACCESS:    2643783  HIT:    2643783  MISS:          0
cpu0_ITLB LOAD      ACCESS:    2643783  HIT:    2643783  MISS:          0
cpu0_ITLB RFO       ACCESS:          0  HIT:          0  MISS:          0
cpu0_ITLB PREFETCH  ACCESS:          0  HIT:          0  MISS:          0
cpu0_ITLB WRITEBACK ACCESS:          0  HIT:          0  MISS:          0
cpu0_L1I TOTAL     ACCESS:      32560  HIT:      32496  MISS:         64
cpu0_L1I LOAD      ACCESS:      32560  HIT:      32496  MISS:         64
cpu0_L1I RFO       ACCESS:          0  HIT:          0  MISS:          0
cpu0_L1I PREFETCH  ACCESS:          0  HIT:          0  MISS:          0
cpu0_L1I WRITEBACK ACCESS:          0  HIT:          0  MISS:          0
cpu0_STLB TOTAL     ACCESS:      41088  HIT:      26848  MISS:      14240
cpu0_STLB LOAD      ACCESS:      39055  HIT:      25238  MISS:      13817
cpu0_STLB RFO       ACCESS:       2033  HIT:       1610  MISS:        423
cpu0_STLB PREFETCH  ACCESS:          0  HIT:          0  MISS:          0
cpu0_STLB WRITEBACK ACCESS:          0  HIT:          0  MISS:          0
cpu0_L1D TOTAL     ACCESS:    3527426  HIT:    3079103  MISS:     448323
cpu0_L1D LOAD      ACCESS:    2950702  HIT:    2539469  MISS:     411233
cpu0_L1D RFO       ACCESS:     563190  HIT:     526328  MISS:      36862
cpu0_L1D PREFETCH  ACCESS:          0  HIT:          0  MISS:          0
cpu0_L1D WRITEBACK ACCESS:          0  HIT:          0  MISS:          0
cpu0_L2C TOTAL     ACCESS:     492816  HIT:     113024  MISS:     379792
cpu0_L2C LOAD      ACCESS:     411293  HIT:      65819  MISS:     345474
cpu0_L2C RFO       ACCESS:      36862  HIT:       2655  MISS:      34207
cpu0_L2C PREFETCH  ACCESS:          0  HIT:          0  MISS:          0
cpu0_L2C WRITEBACK ACCESS:      44433  HIT:      44392  MISS:         41
LLC TOTAL     ACCESS:     417796  HIT:       1319  MISS:     416477
LLC LOAD      ACCESS:     345473  HIT:       1300  MISS:     344173
LLC RFO       ACCESS:      34207  HIT:         12  MISS:      34195
LLC PREFETCH  ACCESS:          0  HIT:          0  MISS:          0
LLC WRITEBACK ACCESS:      38046  HIT:          7  MISS:      38039
Heartbeat CPU 0 instructions: 82000000 cycles: 53814836 heartbeat IPC: 0.846053 cumulative IPC: 0.783719 (Simulation time: 0 hr 48 min 28 sec) 

Region of Interest Statistics
cpu0_DTLB TOTAL     ACCESS:    5492266  HIT:    5450627  MISS:      41639
cpu0_DTLB LOAD      ACCESS:    5087457  HIT:    5047871  MISS:      39586
cpu0_DTLB RFO       ACCESS:     404809  HIT:     402756  MISS:       2053
cpu0_DTLB PREFETCH  ACCESS:          0  HIT:          0  MISS:          0
cpu0_DTLB WRITEBACK ACCESS:          0  HIT:          0  MISS:          0
cpu0_ITLB TOTAL     ACCESS:    2834736  HIT:    2834736  MISS:          0
cpu0_ITLB LOAD      ACCESS:    2834736  HIT:    2834736  MISS:          0
cpu0_ITLB RFO       ACCESS:          0  HIT:          0  MISS:          0
cpu0_ITLB PREFETCH  ACCESS:          0  HIT:          0  MISS:          0
cpu0_ITLB WRITEBACK ACCESS:          0  HIT:          0  MISS:          0
cpu0_L1I TOTAL     ACCESS:      32641  HIT:      32577  MISS:         64
cpu0_L1I LOAD      ACCESS:      32641  HIT:      32577  MISS:         64
cpu0_L1I RFO       ACCESS:          0  HIT:          0  MISS:          0
cpu0_L1I PREFETCH  ACCESS:          0  HIT:          0  MISS:          0
cpu0_L1I WRITEBACK ACCESS:          0  HIT:          0  MISS:          0
cpu0_STLB TOTAL     ACCESS:      41639  HIT:      27004  MISS:      14635
cpu0_STLB LOAD      ACCESS:      39586  HIT:      25374  MISS:      14212
cpu0_STLB RFO       ACCESS:       2053  HIT:       1630  MISS:        423
cpu0_STLB PREFETCH  ACCESS:          0  HIT:          0  MISS:          0
cpu0_STLB WRITEBACK ACCESS:          0  HIT:          0  MISS:          0
cpu0_L1D TOTAL     ACCESS:    3723640  HIT:    3249145  MISS:     474495
cpu0_L1D LOAD      ACCESS:    3133418  HIT:    2696938  MISS:     436480
cpu0_L1D RFO       ACCESS:     576302  HIT:     538525  MISS:      37777
cpu0_L1D PREFETCH  ACCESS:          0  HIT:          0  MISS:          0
cpu0_L1D WRITEBACK ACCESS:          0  HIT:          0  MISS:          0
cpu0_L2C TOTAL     ACCESS:     519913  HIT:     114970  MISS:     404943
cpu0_L2C LOAD      ACCESS:     436540  HIT:      66726  MISS:     369814
cpu0_L2C RFO       ACCESS:      37777  HIT:       2762  MISS:      35015
cpu0_L2C PREFETCH  ACCESS:          0  HIT:          0  MISS:          0
cpu0_L2C WRITEBACK ACCESS:      45358  HIT:      45317  MISS:         41
LLC TOTAL     ACCESS:     446351  HIT:       1333  MISS:     445018
LLC LOAD      ACCESS:     369813  HIT:       1313  MISS:     368500
LLC RFO       ACCESS:      35015  HIT:         12  MISS:      35003
LLC PREFETCH  ACCESS:          0  HIT:          0  MISS:          0
LLC WRITEBACK ACCESS:      41450  HIT:          8  MISS:      41442
Heartbeat CPU 0 instructions: 84000002 cycles: 56549779 heartbeat IPC: 0.731277 cumulative IPC: 0.780427 (Simulation time: 0 hr 50 min 11 sec) 

Region of Interest Statistics
cpu0_DTLB TOTAL     ACCESS:    5847427  HIT:    5801339  MISS:      46088
cpu0_DTLB LOAD      ACCESS:    5414062  HIT:    5370248  MISS:      43814
cpu0_DTLB RFO       ACCESS:     433365  HIT:     431091  MISS:       2274
cpu0_DTLB PREFETCH  ACCESS:          0  HIT:          0  MISS:          0
cpu0_DTLB WRITEBACK ACCESS:          0  HIT:          0  MISS:          0
cpu0_ITLB TOTAL     ACCESS:    3001680  HIT:    3001680  MISS:          0
cpu0_ITLB LOAD      ACCESS:    3001680  HIT:    3001680  MISS:          0
cpu0_ITLB RFO       ACCESS:          0  HIT:          0  MISS:          0
cpu0_ITLB PREFETCH  ACCESS:          0  HIT:          0  MISS:          0
cpu0_ITLB WRITEBACK ACCESS:          0  HIT:          0  MISS:          0
cpu0_L1I TOTAL     ACCESS:      33653  HIT:      33589  MISS:         64
cpu0_L1I LOAD      ACCESS:      33653  HIT:      33589  MISS:         64
cpu0_L1I RFO       ACCESS:          0  HIT:          0  MISS:          0
cpu0_L1I PREFETCH  ACCESS:          0  HIT:          0  MISS:          0
cpu0_L1I WRITEBACK ACCESS:          0  HIT:          0  MISS:          0
cpu0_STLB TOTAL     ACCESS:      46088  HIT:      29996  MISS:      16092
cpu0_STLB LOAD      ACCESS:      43814  HIT:      28187  MISS:      15627
cpu0_STLB RFO       ACCESS:       2274  HIT:       1809  MISS:        465
cpu0_STLB PREFETCH  ACCESS:          0  HIT:          0  MISS:          0
cpu0_STLB WRITEBACK ACCESS:          0  HIT:          0  MISS:          0
cpu0_L1D TOTAL     ACCESS:    3965310  HIT:    3457518  MISS:     507792
cpu0_L1D LOAD      ACCESS:    3334845  HIT:    2868423  MISS:     466422
cpu0_L1D RFO       ACCESS:     615189  HIT:     574079  MISS:      41110
cpu0_L1D PREFETCH  ACCESS:          0  HIT:          0  MISS:          0
cpu0_L1D WRITEBACK ACCESS:          0  HIT:          0  MISS:          0
cpu0_L2C TOTAL     ACCESS:     557315  HIT:     126561  MISS:     430754
cpu0_L2C LOAD      ACCESS:     466482  HIT:      74057  MISS:     392425
cpu0_L2C RFO       ACCESS:      41110  HIT:       2904  MISS:      38206
cpu0_L2C PREFETCH  ACCESS:          0  HIT:          0  MISS:          0
cpu0_L2C WRITEBACK ACCESS:      49463  HIT:      49416  MISS:         47
LLC TOTAL     ACCESS:     474001  HIT:       1454  MISS:     472547
LLC LOAD      ACCESS:     392423  HIT:       1433  MISS:     390990
LLC RFO       ACCESS:      38206  HIT:         13  MISS:      38193
LLC PREFETCH  ACCESS:          0  HIT:          0  MISS:          0
LLC WRITEBACK ACCESS:      43296  HIT:          8  MISS:      43288
Heartbeat CPU 0 instructions: 86000000 cycles: 59008609 heartbeat IPC: 0.813394 cumulative IPC: 0.782188 (Simulation time: 0 hr 51 min 49 sec) 

Region of Interest Statistics
cpu0_DTLB TOTAL     ACCESS:    6190576  HIT:    6142933  MISS:      47643
cpu0_DTLB LOAD      ACCESS:    5740217  HIT:    5694906  MISS:      45311
cpu0_DTLB RFO       ACCESS:     450359  HIT:     448027  MISS:       2332
cpu0_DTLB PREFETCH  ACCESS:          0  HIT:          0  MISS:          0
cpu0_DTLB WRITEBACK ACCESS:          0  HIT:          0  MISS:          0
cpu0_ITLB TOTAL     ACCESS:    3177694  HIT:    3177694  MISS:          0
cpu0_ITLB LOAD      ACCESS:    3177694  HIT:    3177694  MISS:          0
cpu0_ITLB RFO       ACCESS:          0  HIT:          0  MISS:          0
cpu0_ITLB PREFETCH  ACCESS:          0  HIT:          0  MISS:          0
cpu0_ITLB WRITEBACK ACCESS:          0  HIT:          0  MISS:          0
cpu0_L1I TOTAL     ACCESS:      33700  HIT:      33636  MISS:         64
cpu0_L1I LOAD      ACCESS:      33700  HIT:      33636  MISS:         64
cpu0_L1I RFO       ACCESS:          0  HIT:          0  MISS:          0
cpu0_L1I PREFETCH  ACCESS:          0  HIT:          0  MISS:          0
cpu0_L1I WRITEBACK ACCESS:          0  HIT:          0  MISS:          0
cpu0_STLB TOTAL     ACCESS:      47643  HIT:      31173  MISS:      16470
cpu0_STLB LOAD      ACCESS:      45311  HIT:      29310  MISS:      16001
cpu0_STLB RFO       ACCESS:       2332  HIT:       1863  MISS:        469
cpu0_STLB PREFETCH  ACCESS:          0  HIT:          0  MISS:          0
cpu0_STLB WRITEBACK ACCESS:          0  HIT:          0  MISS:          0
cpu0_L1D TOTAL     ACCESS:    4182488  HIT:    3648137  MISS:     534351
cpu0_L1D LOAD      ACCESS:    3532082  HIT:    3040228  MISS:     491854
cpu0_L1D RFO       ACCESS:     634764  HIT:     592538  MISS:      42226
cpu0_L1D PREFETCH  ACCESS:          0  HIT:          0  MISS:          0
cpu0_L1D WRITEBACK ACCESS:          0  HIT:          0  MISS:          0
cpu0_L2C TOTAL     ACCESS:     585005  HIT:     129120  MISS:     455885
cpu0_L2C LOAD      ACCESS:     491914  HIT:      75476  MISS:     416438
cpu0_L2C RFO       ACCESS:      42226  HIT:       2907  MISS:      39319
cpu0_L2C PREFETCH  ACCESS:          0  HIT:          0  MISS:          0
cpu0_L2C WRITEBACK ACCESS:      50594  HIT:      50546  MISS:         48
LLC TOTAL     ACCESS:     501801  HIT:       1532  MISS:     500269
LLC LOAD      ACCESS:     416436  HIT:       1511  MISS:     414925
LLC RFO       ACCESS:      39319  HIT:         13  MISS:      39306
LLC PREFETCH  ACCESS:          0  HIT:          0  MISS:          0
LLC WRITEBACK ACCESS:      45966  HIT:          8  MISS:      45958
Heartbeat CPU 0 instructions: 88000001 cycles: 61302061 heartbeat IPC: 0.872048 cumulative IPC: 0.786453 (Simulation time: 0 hr 53 min 30 sec) 

Region of Interest Statistics
cpu0_DTLB TOTAL     ACCESS:    6519475  HIT:    6471056  MISS:      48419
cpu0_DTLB LOAD      ACCESS:    6051600  HIT:    6005592  MISS:      46008
cpu0_DTLB RFO       ACCESS:     467875  HIT:     465464  MISS:       2411
cpu0_DTLB PREFETCH  ACCESS:          0  HIT:          0  MISS:          0
cpu0_DTLB WRITEBACK ACCESS:          0  HIT:          0  MISS:          0
cpu0_ITLB TOTAL     ACCESS:    3341954  HIT:    3341954  MISS:          0
cpu0_ITLB LOAD      ACCESS:    3341954  HIT:    3341954  MISS:          0
cpu0_ITLB RFO       ACCESS:          0  HIT:          0  MISS:          0
cpu0_ITLB PREFETCH  ACCESS:          0  HIT:          0  MISS:          0
cpu0_ITLB WRITEBACK ACCESS:          0  HIT:          0  MISS:          0
cpu0_L1I TOTAL     ACCESS:      34274  HIT:      34210  MISS:         64
cpu0_L1I LOAD      ACCESS:      34274  HIT:      34210  MISS:         64
cpu0_L1I RFO       ACCESS:          0  HIT:          0  MISS:          0
cpu0_L1I PREFETCH  ACCESS:          0  HIT:          0  MISS:          0
cpu0_L1I WRITEBACK ACCESS:          0  HIT:          0  MISS:          0
cpu0_STLB TOTAL     ACCESS:      48419  HIT:      31940  MISS:      16479
cpu0_STLB LOAD      ACCESS:      46008  HIT:      29999  MISS:      16009
cpu0_STLB RFO       ACCESS:       2411  HIT:       1941  MISS:        470
cpu0_STLB PREFETCH  ACCESS:          0  HIT:          0  MISS:          0
cpu0_STLB WRITEBACK ACCESS:          0  HIT:          0  MISS:          0
cpu0_L1D TOTAL     ACCESS:    4377954  HIT:    3816495  MISS:     561459
cpu0_L1D LOAD      ACCESS:    3711343  HIT:    3195416  MISS:     515927
cpu0_L1D RFO       ACCESS:     650960  HIT:     605707  MISS:      45253
cpu0_L1D PREFETCH  ACCESS:          0  HIT:          0  MISS:          0
cpu0_L1D WRITEBACK ACCESS:          0  HIT:          0  MISS:          0
cpu0_L2C TOTAL     ACCESS:     615415  HIT:     134725  MISS:     480690
cpu0_L2C LOAD      ACCESS:     515987  HIT:      77689  MISS:     438298
cpu0_L2C RFO       ACCESS:      45253  HIT:       2991  MISS:      42262
cpu0_L2C PREFETCH  ACCESS:          0  HIT:          0  MISS:          0
cpu0_L2C WRITEBACK ACCESS:      53896  HIT:      53848  MISS:         48
LLC TOTAL     ACCESS:     530168  HIT:       1563  MISS:     528605
LLC LOAD      ACCESS:     438296  HIT:       1542  MISS:     436754
LLC RFO       ACCESS:      42262  HIT:         13  MISS:      42249
LLC PREFETCH  ACCESS:          0  HIT:          0  MISS:          0
LLC WRITEBACK ACCESS:      49528  HIT:          8  MISS:      49520
Heartbeat CPU 0 instructions: 90000001 cycles: 63483730 heartbeat IPC: 0.916729 cumulative IPC: 0.792082 (Simulation time: 0 hr 55 min 13 sec) 

Region of Interest Statistics
cpu0_DTLB TOTAL     ACCESS:    6864985  HIT:    6814991  MISS:      49994
cpu0_DTLB LOAD      ACCESS:    6375279  HIT:    6327805  MISS:      47474
cpu0_DTLB RFO       ACCESS:     489706  HIT:     487186  MISS:       2520
cpu0_DTLB PREFETCH  ACCESS:          0  HIT:          0  MISS:          0
cpu0_DTLB WRITEBACK ACCESS:          0  HIT:          0  MISS:          0
cpu0_ITLB TOTAL     ACCESS:    3495128  HIT:    3495128  MISS:          0
cpu0_ITLB LOAD      ACCESS:    3495128  HIT:    3495128  MISS:          0
cpu0_ITLB RFO       ACCESS:          0  HIT:          0  MISS:          0
cpu0_ITLB PREFETCH  ACCESS:          0  HIT:          0  MISS:          0
cpu0_ITLB WRITEBACK ACCESS:          0  HIT:          0  MISS:          0
cpu0_L1I TOTAL     ACCESS:      34579  HIT:      34515  MISS:         64
cpu0_L1I LOAD      ACCESS:      34579  HIT:      34515  MISS:         64
cpu0_L1I RFO       ACCESS:          0  HIT:          0  MISS:          0
cpu0_L1I PREFETCH  ACCESS:          0  HIT:          0  MISS:          0
cpu0_L1I WRITEBACK ACCESS:          0  HIT:          0  MISS:          0
cpu0_STLB TOTAL     ACCESS:      49994  HIT:      33492  MISS:      16502
cpu0_STLB LOAD      ACCESS:      47474  HIT:      31443  MISS:      16031
cpu0_STLB RFO       ACCESS:       2520  HIT:       2049  MISS:        471
cpu0_STLB PREFETCH  ACCESS:          0  HIT:          0  MISS:          0
cpu0_STLB WRITEBACK ACCESS:          0  HIT:          0  MISS:          0
cpu0_L1D TOTAL     ACCESS:    4590405  HIT:    4001953  MISS:     588452
cpu0_L1D LOAD      ACCESS:    3902124  HIT:    3362554  MISS:     539570
cpu0_L1D RFO       ACCESS:     672607  HIT:     624017  MISS:      48590
cpu0_L1D PREFETCH  ACCESS:          0  HIT:          0  MISS:          0
cpu0_L1D WRITEBACK ACCESS:          0  HIT:          0  MISS:          0
cpu0_L2C TOTAL     ACCESS:     645966  HIT:     141713  MISS:     504253
cpu0_L2C LOAD      ACCESS:     539630  HIT:      81022  MISS:     458608
cpu0_L2C RFO       ACCESS:      48590  HIT:       3080  MISS:      45510
cpu0_L2C PREFETCH  ACCESS:          0  HIT:          0  MISS:          0
cpu0_L2C WRITEBACK ACCESS:      57454  HIT:      57405  MISS:         49
LLC TOTAL     ACCESS:     554799  HIT:       1642  MISS:     553157
LLC LOAD      ACCESS:     458606  HIT:       1621  MISS:     456985
LLC RFO       ACCESS:      45510  HIT:         13  MISS:      45497
LLC PREFETCH  ACCESS:          0  HIT:          0  MISS:          0
LLC WRITEBACK ACCESS:      50597  HIT:          8  MISS:      50589
Heartbeat CPU 0 instructions: 92000000 cycles: 65894390 heartbeat IPC: 0.829648 cumulative IPC: 0.793793 (Simulation time: 0 hr 56 min 59 sec) 

Region of Interest Statistics
cpu0_DTLB TOTAL     ACCESS:    7199374  HIT:    7148435  MISS:      50939
cpu0_DTLB LOAD      ACCESS:    6694229  HIT:    6645834  MISS:      48395
cpu0_DTLB RFO       ACCESS:     505145  HIT:     502601  MISS:       2544
cpu0_DTLB PREFETCH  ACCESS:          0  HIT:          0  MISS:          0
cpu0_DTLB WRITEBACK ACCESS:          0  HIT:          0  MISS:          0
cpu0_ITLB TOTAL     ACCESS:    3670814  HIT:    3670814  MISS:          0
cpu0_ITLB LOAD      ACCESS:    3670814  HIT:    3670814  MISS:          0
cpu0_ITLB RFO       ACCESS:          0  HIT:          0  MISS:          0
cpu0_ITLB PREFETCH  ACCESS:          0  HIT:          0  MISS:          0
cpu0_ITLB WRITEBACK ACCESS:          0  HIT:          0  MISS:          0
cpu0_L1I TOTAL     ACCESS:      34626  HIT:      34562  MISS:         64
cpu0_L1I LOAD      ACCESS:      34626  HIT:      34562  MISS:         64
cpu0_L1I RFO       ACCESS:          0  HIT:          0  MISS:          0
cpu0_L1I PREFETCH  ACCESS:          0  HIT:          0  MISS:          0
cpu0_L1I WRITEBACK ACCESS:          0  HIT:          0  MISS:          0
cpu0_STLB TOTAL     ACCESS:      50939  HIT:      34432  MISS:      16507
cpu0_STLB LOAD      ACCESS:      48395  HIT:      32360  MISS:      16035
cpu0_STLB RFO       ACCESS:       2544  HIT:       2072  MISS:        472
cpu0_STLB PREFETCH  ACCESS:          0  HIT:          0  MISS:          0
cpu0_STLB WRITEBACK ACCESS:          0  HIT:          0  MISS:          0
cpu0_L1D TOTAL     ACCESS:    4798279  HIT:    4183815  MISS:     614464
cpu0_L1D LOAD      ACCESS:    4093827  HIT:    3529327  MISS:     564500
cpu0_L1D RFO       ACCESS:     688773  HIT:     639106  MISS:      49667
cpu0_L1D PREFETCH  ACCESS:          0  HIT:          0  MISS:          0
cpu0_L1D WRITEBACK ACCESS:          0  HIT:          0  MISS:          0
cpu0_L2C TOTAL     ACCESS:     672979  HIT:     143031  MISS:     529948
cpu0_L2C LOAD      ACCESS:     564560  HIT:      81339  MISS:     483221
cpu0_L2C RFO       ACCESS:      49667  HIT:       3080  MISS:      46587
cpu0_L2C PREFETCH  ACCESS:          0  HIT:          0  MISS:          0
cpu0_L2C WRITEBACK ACCESS:      58455  HIT:      58405  MISS:         50
LLC TOTAL     ACCESS:     583679  HIT:       1692  MISS:     581987
LLC LOAD      ACCESS:     483219  HIT:       1671  MISS:     481548
LLC RFO       ACCESS:      46587  HIT:         13  MISS:      46574
LLC PREFETCH  ACCESS:          0  HIT:          0  MISS:          0
LLC WRITEBACK ACCESS:      53783  HIT:          8  MISS:      53775
Heartbeat CPU 0 instructions: 94000001 cycles: 68155592 heartbeat IPC: 0.884486 cumulative IPC: 0.79751 (Simulation time: 0 hr 58 min 47 sec) 

Region of Interest Statistics
cpu0_DTLB TOTAL     ACCESS:    7536764  HIT:    7484825  MISS:      51939
cpu0_DTLB LOAD      ACCESS:    7013277  HIT:    6963977  MISS:      49300
cpu0_DTLB RFO       ACCESS:     523487  HIT:     520848  MISS:       2639
cpu0_DTLB PREFETCH  ACCESS:          0  HIT:          0  MISS:          0
cpu0_DTLB WRITEBACK ACCESS:          0  HIT:          0  MISS:          0
cpu0_ITLB TOTAL     ACCESS:    3838060  HIT:    3838060  MISS:          0
cpu0_ITLB LOAD      ACCESS:    3838060  HIT:    3838060  MISS:          0
cpu0_ITLB RFO       ACCESS:          0  HIT:          0  MISS:          0
cpu0_ITLB PREFETCH  ACCESS:          0  HIT:          0  MISS:          0
cpu0_ITLB WRITEBACK ACCESS:          0  HIT:          0  MISS:          0
cpu0_L1I TOTAL     ACCESS:      35012  HIT:      34948  MISS:         64
cpu0_L1I LOAD      ACCESS:      35012  HIT:      34948  MISS:         64
cpu0_L1I RFO       ACCESS:          0  HIT:          0  MISS:          0
cpu0_L1I PREFETCH  ACCESS:          0  HIT:          0  MISS:          0
cpu0_L1I WRITEBACK ACCESS:          0  HIT:          0  MISS:          0
cpu0_STLB TOTAL     ACCESS:      51939  HIT:      35424  MISS:      16515
cpu0_STLB LOAD      ACCESS:      49300  HIT:      33257  MISS:      16043
cpu0_STLB RFO       ACCESS:       2639  HIT:       2167  MISS:        472
cpu0_STLB PREFETCH  ACCESS:          0  HIT:          0  MISS:          0
cpu0_STLB WRITEBACK ACCESS:          0  HIT:          0  MISS:          0
cpu0_L1D TOTAL     ACCESS:    5000525  HIT:    4359061  MISS:     641464
cpu0_L1D LOAD      ACCESS:    4278461  HIT:    3690045  MISS:     588416
cpu0_L1D RFO       ACCESS:     706377  HIT:     653634  MISS:      52743
cpu0_L1D PREFETCH  ACCESS:          0  HIT:          0  MISS:          0
cpu0_L1D WRITEBACK ACCESS:          0  HIT:          0  MISS:          0
cpu0_L2C TOTAL     ACCESS:     703351  HIT:     149475  MISS:     553876
cpu0_L2C LOAD      ACCESS:     588476  HIT:      84318  MISS:     504158
cpu0_L2C RFO       ACCESS:      52743  HIT:       3167  MISS:      49576
cpu0_L2C PREFETCH  ACCESS:          0  HIT:          0  MISS:          0
cpu0_L2C WRITEBACK ACCESS:      61827  HIT:      61777  MISS:         50
LLC TOTAL     ACCESS:     611058  HIT:       1726  MISS:     609332
LLC LOAD      ACCESS:     504156  HIT:       1705  MISS:     502451
LLC RFO       ACCESS:      49576  HIT:         13  MISS:      49563
LLC PREFETCH  ACCESS:          0  HIT:          0  MISS:          0
LLC WRITEBACK ACCESS:      57234  HIT:          8  MISS:      57226
Heartbeat CPU 0 instructions: 96000002 cycles: 70418145 heartbeat IPC: 0.883958 cumulative IPC: 0.800916 (Simulation time: 1 hr 0 min 19 sec) 

Region of Interest Statistics
cpu0_DTLB TOTAL     ACCESS:    7880721  HIT:    7827286  MISS:      53435
cpu0_DTLB LOAD      ACCESS:    7335114  HIT:    7284419  MISS:      50695
cpu0_DTLB RFO       ACCESS:     545607  HIT:     542867  MISS:       2740
cpu0_DTLB PREFETCH  ACCESS:          0  HIT:          0  MISS:          0
cpu0_DTLB WRITEBACK ACCESS:          0  HIT:          0  MISS:          0
cpu0_ITLB TOTAL     ACCESS:    3991562  HIT:    3991562  MISS:          0
cpu0_ITLB LOAD      ACCESS:    3991562  HIT:    3991562  MISS:          0
cpu0_ITLB RFO       ACCESS:          0  HIT:          0  MISS:          0
cpu0_ITLB PREFETCH  ACCESS:          0  HIT:          0  MISS:          0
cpu0_ITLB WRITEBACK ACCESS:          0  HIT:          0  MISS:          0
cpu0_L1I TOTAL     ACCESS:      35315  HIT:      35251  MISS:         64
cpu0_L1I LOAD      ACCESS:      35315  HIT:      35251  MISS:         64
cpu0_L1I RFO       ACCESS:          0  HIT:          0  MISS:          0
cpu0_L1I PREFETCH  ACCESS:          0  HIT:          0  MISS:          0
cpu0_L1I WRITEBACK ACCESS:          0  HIT:          0  MISS:          0
cpu0_STLB TOTAL     ACCESS:      53435  HIT:      36908  MISS:      16527
cpu0_STLB LOAD      ACCESS:      50695  HIT:      34641  MISS:      16054
cpu0_STLB RFO       ACCESS:       2740  HIT:       2267  MISS:        473
cpu0_STLB PREFETCH  ACCESS:          0  HIT:          0  MISS:          0
cpu0_STLB WRITEBACK ACCESS:          0  HIT:          0  MISS:          0
cpu0_L1D TOTAL     ACCESS:    5214151  HIT:    4545526  MISS:     668625
cpu0_L1D LOAD      ACCESS:    4470329  HIT:    3858096  MISS:     612233
cpu0_L1D RFO       ACCESS:     728123  HIT:     672045  MISS:      56078
cpu0_L1D PREFETCH  ACCESS:          0  HIT:          0  MISS:          0
cpu0_L1D WRITEBACK ACCESS:          0  HIT:          0  MISS:          0
cpu0_L2C TOTAL     ACCESS:     734060  HIT:     155553  MISS:     578507
cpu0_L2C LOAD      ACCESS:     612293  HIT:      86792  MISS:     525501
cpu0_L2C RFO       ACCESS:      56078  HIT:       3219  MISS:      52859
cpu0_L2C PREFETCH  ACCESS:          0  HIT:          0  MISS:          0
cpu0_L2C WRITEBACK ACCESS:      65375  HIT:      65324  MISS:         51
LLC TOTAL     ACCESS:     636772  HIT:       1800  MISS:     634972
LLC LOAD      ACCESS:     525499  HIT:       1779  MISS:     523720
LLC RFO       ACCESS:      52859  HIT:         13  MISS:      52846
LLC PREFETCH  ACCESS:          0  HIT:          0  MISS:          0
LLC WRITEBACK ACCESS:      58318  HIT:          8  MISS:      58310
Heartbeat CPU 0 instructions: 98000002 cycles: 72735978 heartbeat IPC: 0.862875 cumulative IPC: 0.803319 (Simulation time: 1 hr 2 min 0 sec) 

Region of Interest Statistics
cpu0_DTLB TOTAL     ACCESS:    8207896  HIT:    8154000  MISS:      53896
cpu0_DTLB LOAD      ACCESS:    7649892  HIT:    7598753  MISS:      51139
cpu0_DTLB RFO       ACCESS:     558004  HIT:     555247  MISS:       2757
cpu0_DTLB PREFETCH  ACCESS:          0  HIT:          0  MISS:          0
cpu0_DTLB WRITEBACK ACCESS:          0  HIT:          0  MISS:          0
cpu0_ITLB TOTAL     ACCESS:    4177268  HIT:    4177268  MISS:          0
cpu0_ITLB LOAD      ACCESS:    4177268  HIT:    4177268  MISS:          0
cpu0_ITLB RFO       ACCESS:          0  HIT:          0  MISS:          0
cpu0_ITLB PREFETCH  ACCESS:          0  HIT:          0  MISS:          0
cpu0_ITLB WRITEBACK ACCESS:          0  HIT:          0  MISS:          0
cpu0_L1I TOTAL     ACCESS:      35397  HIT:      35333  MISS:         64
cpu0_L1I LOAD      ACCESS:      35397  HIT:      35333  MISS:         64
cpu0_L1I RFO       ACCESS:          0  HIT:          0  MISS:          0
cpu0_L1I PREFETCH  ACCESS:          0  HIT:          0  MISS:          0
cpu0_L1I WRITEBACK ACCESS:          0  HIT:          0  MISS:          0
cpu0_STLB TOTAL     ACCESS:      53896  HIT:      37366  MISS:      16530
cpu0_STLB LOAD      ACCESS:      51139  HIT:      35082  MISS:      16057
cpu0_STLB RFO       ACCESS:       2757  HIT:       2284  MISS:        473
cpu0_STLB PREFETCH  ACCESS:          0  HIT:          0  MISS:          0
cpu0_STLB WRITEBACK ACCESS:          0  HIT:          0  MISS:          0
cpu0_L1D TOTAL     ACCESS:    5409901  HIT:    4715560  MISS:     694341
cpu0_L1D LOAD      ACCESS:    4653461  HIT:    4016384  MISS:     637077
cpu0_L1D RFO       ACCESS:     740738  HIT:     683791  MISS:      56947
cpu0_L1D PREFETCH  ACCESS:          0  HIT:          0  MISS:          0
cpu0_L1D WRITEBACK ACCESS:          0  HIT:          0  MISS:          0
cpu0_L2C TOTAL     ACCESS:     760582  HIT:     157186  MISS:     603396
cpu0_L2C LOAD      ACCESS:     637137  HIT:      87583  MISS:     549554
cpu0_L2C RFO       ACCESS:      56947  HIT:       3254  MISS:      53693
cpu0_L2C PREFETCH  ACCESS:          0  HIT:          0  MISS:          0
cpu0_L2C WRITEBACK ACCESS:      66181  HIT:      66130  MISS:         51
LLC TOTAL     ACCESS:     664840  HIT:       1802  MISS:     663038
LLC LOAD      ACCESS:     549552  HIT:       1781  MISS:     547771
LLC RFO       ACCESS:      53693  HIT:         13  MISS:      53680
LLC PREFETCH  ACCESS:          0  HIT:          0  MISS:          0
LLC WRITEBACK ACCESS:      61497  HIT:          8  MISS:      61489
Heartbeat CPU 0 instructions: 100000003 cycles: 75008970 heartbeat IPC: 0.879898 cumulative IPC: 0.806125 (Simulation time: 1 hr 3 min 42 sec) 

Region of Interest Statistics
cpu0_DTLB TOTAL     ACCESS:    8553114  HIT:    8497778  MISS:      55336
cpu0_DTLB LOAD      ACCESS:    7974312  HIT:    7921829  MISS:      52483
cpu0_DTLB RFO       ACCESS:     578802  HIT:     575949  MISS:       2853
cpu0_DTLB PREFETCH  ACCESS:          0  HIT:          0  MISS:          0
cpu0_DTLB WRITEBACK ACCESS:          0  HIT:          0  MISS:          0
cpu0_ITLB TOTAL     ACCESS:    4334115  HIT:    4334115  MISS:          0
cpu0_ITLB LOAD      ACCESS:    4334115  HIT:    4334115  MISS:          0
cpu0_ITLB RFO       ACCESS:          0  HIT:          0  MISS:          0
cpu0_ITLB PREFETCH  ACCESS:          0  HIT:          0  MISS:          0
cpu0_ITLB WRITEBACK ACCESS:          0  HIT:          0  MISS:          0
cpu0_L1I TOTAL     ACCESS:      35753  HIT:      35689  MISS:         64
cpu0_L1I LOAD      ACCESS:      35753  HIT:      35689  MISS:         64
cpu0_L1I RFO       ACCESS:          0  HIT:          0  MISS:          0
cpu0_L1I PREFETCH  ACCESS:          0  HIT:          0  MISS:          0
cpu0_L1I WRITEBACK ACCESS:          0  HIT:          0  MISS:          0
cpu0_STLB TOTAL     ACCESS:      55336  HIT:      38795  MISS:      16541
cpu0_STLB LOAD      ACCESS:      52483  HIT:      36416  MISS:      16067
cpu0_STLB RFO       ACCESS:       2853  HIT:       2379  MISS:        474
cpu0_STLB PREFETCH  ACCESS:          0  HIT:          0  MISS:          0
cpu0_STLB WRITEBACK ACCESS:          0  HIT:          0  MISS:          0
cpu0_L1D TOTAL     ACCESS:    5620967  HIT:    4899753  MISS:     721214
cpu0_L1D LOAD      ACCESS:    4844161  HIT:    4183500  MISS:     660661
cpu0_L1D RFO       ACCESS:     761093  HIT:     700866  MISS:      60227
cpu0_L1D PREFETCH  ACCESS:          0  HIT:          0  MISS:          0
cpu0_L1D WRITEBACK ACCESS:          0  HIT:          0  MISS:          0
cpu0_L2C TOTAL     ACCESS:     790969  HIT:     163983  MISS:     626986
cpu0_L2C LOAD      ACCESS:     660721  HIT:      90779  MISS:     569942
cpu0_L2C RFO       ACCESS:      60227  HIT:       3337  MISS:      56890
cpu0_L2C PREFETCH  ACCESS:          0  HIT:          0  MISS:          0
cpu0_L2C WRITEBACK ACCESS:      69695  HIT:      69643  MISS:         52
LLC TOTAL     ACCESS:     691742  HIT:       1875  MISS:     689867
LLC LOAD      ACCESS:     569940  HIT:       1854  MISS:     568086
LLC RFO       ACCESS:      56890  HIT:         13  MISS:      56877
LLC PREFETCH  ACCESS:          0  HIT:          0  MISS:          0
LLC WRITEBACK ACCESS:      64810  HIT:          8  MISS:      64802
Heartbeat CPU 0 instructions: 102000002 cycles: 77011171 heartbeat IPC: 0.9989 cumulative IPC: 0.812154 (Simulation time: 1 hr 5 min 20 sec) 

Region of Interest Statistics
cpu0_DTLB TOTAL     ACCESS:    8913931  HIT:    8857347  MISS:      56584
cpu0_DTLB LOAD      ACCESS:    8287578  HIT:    8233906  MISS:      53672
cpu0_DTLB RFO       ACCESS:     626353  HIT:     623441  MISS:       2912
cpu0_DTLB PREFETCH  ACCESS:          0  HIT:          0  MISS:          0
cpu0_DTLB WRITEBACK ACCESS:          0  HIT:          0  MISS:          0
cpu0_ITLB TOTAL     ACCESS:    4493518  HIT:    4493518  MISS:          0
cpu0_ITLB LOAD      ACCESS:    4493518  HIT:    4493518  MISS:          0
cpu0_ITLB RFO       ACCESS:          0  HIT:          0  MISS:          0
cpu0_ITLB PREFETCH  ACCESS:          0  HIT:          0  MISS:          0
cpu0_ITLB WRITEBACK ACCESS:          0  HIT:          0  MISS:          0
cpu0_L1I TOTAL     ACCESS:      47786  HIT:      47702  MISS:         84
cpu0_L1I LOAD      ACCESS:      47786  HIT:      47702  MISS:         84
cpu0_L1I RFO       ACCESS:          0  HIT:          0  MISS:          0
cpu0_L1I PREFETCH  ACCESS:          0  HIT:          0  MISS:          0
cpu0_L1I WRITEBACK ACCESS:          0  HIT:          0  MISS:          0
cpu0_STLB TOTAL     ACCESS:      56584  HIT:      39982  MISS:      16602
cpu0_STLB LOAD      ACCESS:      53672  HIT:      37557  MISS:      16115
cpu0_STLB RFO       ACCESS:       2912  HIT:       2425  MISS:        487
cpu0_STLB PREFETCH  ACCESS:          0  HIT:          0  MISS:          0
cpu0_STLB WRITEBACK ACCESS:          0  HIT:          0  MISS:          0
cpu0_L1D TOTAL     ACCESS:    5922882  HIT:    5180891  MISS:     741991
cpu0_L1D LOAD      ACCESS:    5058111  HIT:    4378476  MISS:     679635
cpu0_L1D RFO       ACCESS:     849000  HIT:     786983  MISS:      62017
cpu0_L1D PREFETCH  ACCESS:          0  HIT:          0  MISS:          0
cpu0_L1D WRITEBACK ACCESS:          0  HIT:          0  MISS:          0
cpu0_L2C TOTAL     ACCESS:     813550  HIT:     167328  MISS:     646222
cpu0_L2C LOAD      ACCESS:     679715  HIT:      92164  MISS:     587551
cpu0_L2C RFO       ACCESS:      62017  HIT:       3507  MISS:      58510
cpu0_L2C PREFETCH  ACCESS:          0  HIT:          0  MISS:          0
cpu0_L2C WRITEBACK ACCESS:      71479  HIT:      71426  MISS:         53
LLC TOTAL     ACCESS:     711612  HIT:       1927  MISS:     709685
LLC LOAD      ACCESS:     587549  HIT:       1906  MISS:     585643
LLC RFO       ACCESS:      58510  HIT:         13  MISS:      58497
LLC PREFETCH  ACCESS:          0  HIT:          0  MISS:          0
LLC WRITEBACK ACCESS:      65445  HIT:          8  MISS:      65437
Heartbeat CPU 0 instructions: 104000000 cycles: 79045912 heartbeat IPC: 0.982925 cumulative IPC: 0.817414 (Simulation time: 1 hr 6 min 56 sec) 

Region of Interest Statistics
cpu0_DTLB TOTAL     ACCESS:    9257148  HIT:    9199927  MISS:      57221
cpu0_DTLB LOAD      ACCESS:    8590460  HIT:    8536220  MISS:      54240
cpu0_DTLB RFO       ACCESS:     666688  HIT:     663707  MISS:       2981
cpu0_DTLB PREFETCH  ACCESS:          0  HIT:          0  MISS:          0
cpu0_DTLB WRITEBACK ACCESS:          0  HIT:          0  MISS:          0
cpu0_ITLB TOTAL     ACCESS:    4658335  HIT:    4658335  MISS:          0
cpu0_ITLB LOAD      ACCESS:    4658335  HIT:    4658335  MISS:          0
cpu0_ITLB RFO       ACCESS:          0  HIT:          0  MISS:          0
cpu0_ITLB PREFETCH  ACCESS:          0  HIT:          0  MISS:          0
cpu0_ITLB WRITEBACK ACCESS:          0  HIT:          0  MISS:          0
cpu0_L1I TOTAL     ACCESS:      57991  HIT:      57887  MISS:        104
cpu0_L1I LOAD      ACCESS:      57991  HIT:      57887  MISS:        104
cpu0_L1I RFO       ACCESS:          0  HIT:          0  MISS:          0
cpu0_L1I PREFETCH  ACCESS:          0  HIT:          0  MISS:          0
cpu0_L1I WRITEBACK ACCESS:          0  HIT:          0  MISS:          0
cpu0_STLB TOTAL     ACCESS:      57221  HIT:      40597  MISS:      16624
cpu0_STLB LOAD      ACCESS:      54240  HIT:      38104  MISS:      16136
cpu0_STLB RFO       ACCESS:       2981  HIT:       2493  MISS:        488
cpu0_STLB PREFETCH  ACCESS:          0  HIT:          0  MISS:          0
cpu0_STLB WRITEBACK ACCESS:          0  HIT:          0  MISS:          0
cpu0_L1D TOTAL     ACCESS:    6191807  HIT:    5427633  MISS:     764174
cpu0_L1D LOAD      ACCESS:    5254732  HIT:    4556086  MISS:     698646
cpu0_L1D RFO       ACCESS:     921283  HIT:     856102  MISS:      65181
cpu0_L1D PREFETCH  ACCESS:          0  HIT:          0  MISS:          0
cpu0_L1D WRITEBACK ACCESS:          0  HIT:          0  MISS:          0
cpu0_L2C TOTAL     ACCESS:     839305  HIT:     173965  MISS:     665340
cpu0_L2C LOAD      ACCESS:     698746  HIT:      94890  MISS:     603856
cpu0_L2C RFO       ACCESS:      65181  HIT:       3860  MISS:      61321
cpu0_L2C PREFETCH  ACCESS:          0  HIT:          0  MISS:          0
cpu0_L2C WRITEBACK ACCESS:      75031  HIT:      74976  MISS:         55
LLC TOTAL     ACCESS:     734719  HIT:       1975  MISS:     732744
LLC LOAD      ACCESS:     603854  HIT:       1954  MISS:     601900
LLC RFO       ACCESS:      61321  HIT:         13  MISS:      61308
LLC PREFETCH  ACCESS:          0  HIT:          0  MISS:          0
LLC WRITEBACK ACCESS:      69436  HIT:          8  MISS:      69428
Heartbeat CPU 0 instructions: 106000004 cycles: 81797193 heartbeat IPC: 0.726936 cumulative IPC: 0.813796 (Simulation time: 1 hr 8 min 46 sec) 

Region of Interest Statistics
cpu0_DTLB TOTAL     ACCESS:    9607152  HIT:    9546231  MISS:      60921
cpu0_DTLB LOAD      ACCESS:    8917445  HIT:    8859646  MISS:      57799
cpu0_DTLB RFO       ACCESS:     689707  HIT:     686585  MISS:       3122
cpu0_DTLB PREFETCH  ACCESS:          0  HIT:          0  MISS:          0
cpu0_DTLB WRITEBACK ACCESS:          0  HIT:          0  MISS:          0
cpu0_ITLB TOTAL     ACCESS:    4837820  HIT:    4837820  MISS:          0
cpu0_ITLB LOAD      ACCESS:    4837820  HIT:    4837820  MISS:          0
cpu0_ITLB RFO       ACCESS:          0  HIT:          0  MISS:          0
cpu0_ITLB PREFETCH  ACCESS:          0  HIT:          0  MISS:          0
cpu0_ITLB WRITEBACK ACCESS:          0  HIT:          0  MISS:          0
cpu0_L1I TOTAL     ACCESS:      58586  HIT:      58473  MISS:        113
cpu0_L1I LOAD      ACCESS:      58586  HIT:      58473  MISS:        113
cpu0_L1I RFO       ACCESS:          0  HIT:          0  MISS:          0
cpu0_L1I PREFETCH  ACCESS:          0  HIT:          0  MISS:          0
cpu0_L1I WRITEBACK ACCESS:          0  HIT:          0  MISS:          0
cpu0_STLB TOTAL     ACCESS:      60921  HIT:      43198  MISS:      17723
cpu0_STLB LOAD      ACCESS:      57799  HIT:      40579  MISS:      17220
cpu0_STLB RFO       ACCESS:       3122  HIT:       2619  MISS:        503
cpu0_STLB PREFETCH  ACCESS:          0  HIT:          0  MISS:          0
cpu0_STLB WRITEBACK ACCESS:          0  HIT:          0  MISS:          0
cpu0_L1D TOTAL     ACCESS:    6433372  HIT:    5638043  MISS:     795329
cpu0_L1D LOAD      ACCESS:    5460701  HIT:    4732012  MISS:     728689
cpu0_L1D RFO       ACCESS:     955848  HIT:     889571  MISS:      66277
cpu0_L1D PREFETCH  ACCESS:          0  HIT:          0  MISS:          0
cpu0_L1D WRITEBACK ACCESS:          0  HIT:          0  MISS:          0
cpu0_L2C TOTAL     ACCESS:     872096  HIT:     180099  MISS:     691997
cpu0_L2C LOAD      ACCESS:     728798  HIT:      99380  MISS:     629418
cpu0_L2C RFO       ACCESS:      66277  HIT:       3874  MISS:      62403
cpu0_L2C PREFETCH  ACCESS:          0  HIT:          0  MISS:          0
[...]
cpu0_DTLB LOAD      ACCESS:  239543771  HIT:  237658971  MISS:    1884800
cpu0_DTLB RFO       ACCESS:   18501917  HIT:   18397086  MISS:     104831
cpu0_DTLB PREFETCH  ACCESS:          0  HIT:          0  MISS:          0
cpu0_DTLB WRITEBACK ACCESS:          0  HIT:          0  MISS:          0
cpu0_ITLB TOTAL     ACCESS:  131088536  HIT:  131088500  MISS:         36
cpu0_ITLB LOAD      ACCESS:  131088536  HIT:  131088500  MISS:         36
cpu0_ITLB RFO       ACCESS:          0  HIT:          0  MISS:          0
cpu0_ITLB PREFETCH  ACCESS:          0  HIT:          0  MISS:          0
cpu0_ITLB WRITEBACK ACCESS:          0  HIT:          0  MISS:          0
cpu0_L1I TOTAL     ACCESS:    1447895  HIT:    1444914  MISS:       2981
cpu0_L1I LOAD      ACCESS:    1447895  HIT:    1444914  MISS:       2981
cpu0_L1I RFO       ACCESS:          0  HIT:          0  MISS:          0
cpu0_L1I PREFETCH  ACCESS:          0  HIT:          0  MISS:          0
cpu0_L1I WRITEBACK ACCESS:          0  HIT:          0  MISS:          0
cpu0_STLB TOTAL     ACCESS:    1989667  HIT:    1383700  MISS:     605967
cpu0_STLB LOAD      ACCESS:    1884836  HIT:    1294835  MISS:     590001
cpu0_STLB RFO       ACCESS:     104831  HIT:      88865  MISS:      15966
cpu0_STLB PREFETCH  ACCESS:          0  HIT:          0  MISS:          0
cpu0_STLB WRITEBACK ACCESS:          0  HIT:          0  MISS:          0
cpu0_L1D TOTAL     ACCESS:  173451192  HIT:  150864886  MISS:   22586306
cpu0_L1D LOAD      ACCESS:  147060553  HIT:  126236652  MISS:   20823901
cpu0_L1D RFO       ACCESS:   25812935  HIT:   24061139  MISS:    1751796
cpu0_L1D PREFETCH  ACCESS:          0  HIT:          0  MISS:          0
cpu0_L1D WRITEBACK ACCESS:          0  HIT:          0  MISS:          0
cpu0_L2C TOTAL     ACCESS:   24845938  HIT:    5693889  MISS:   19152049
cpu0_L2C LOAD      ACCESS:   20826812  HIT:    3305996  MISS:   17520816
cpu0_L2C RFO       ACCESS:    1751743  HIT:     126343  MISS:    1625400
cpu0_L2C PREFETCH  ACCESS:          0  HIT:          0  MISS:          0
cpu0_L2C WRITEBACK ACCESS:    2256774  HIT:    2253891  MISS:       2883
LLC TOTAL     ACCESS:   21154575  HIT:      67002  MISS:   21087573
LLC LOAD      ACCESS:   17520791  HIT:      65798  MISS:   17454993
LLC RFO       ACCESS:    1625400  HIT:        373  MISS:    1625027
LLC PREFETCH  ACCESS:          0  HIT:          0  MISS:          0
LLC WRITEBACK ACCESS:    2005434  HIT:        831  MISS:    2004603
Heartbeat CPU 0 instructions: 1550000002 cycles: 1957545922 heartbeat IPC: 0.759176 cumulative IPC: 0.771382 (Simulation time: 15 hr 34 min 44 sec) 

Region of Interest Statistics
cpu0_DTLB TOTAL     ACCESS:  258374840  HIT:  256383966  MISS:    1990874
cpu0_DTLB LOAD      ACCESS:  239857355  HIT:  237971334  MISS:    1886021
cpu0_DTLB RFO       ACCESS:   18517485  HIT:   18412632  MISS:     104853
cpu0_DTLB PREFETCH  ACCESS:          0  HIT:          0  MISS:          0
cpu0_DTLB WRITEBACK ACCESS:          0  HIT:          0  MISS:          0
cpu0_ITLB TOTAL     ACCESS:  131275515  HIT:  131275479  MISS:         36
cpu0_ITLB LOAD      ACCESS:  131275515  HIT:  131275479  MISS:         36
cpu0_ITLB RFO       ACCESS:          0  HIT:          0  MISS:          0
cpu0_ITLB PREFETCH  ACCESS:          0  HIT:          0  MISS:          0
cpu0_ITLB WRITEBACK ACCESS:          0  HIT:          0  MISS:          0
cpu0_L1I TOTAL     ACCESS:    1447944  HIT:    1444961  MISS:       2983
cpu0_L1I LOAD      ACCESS:    1447944  HIT:    1444961  MISS:       2983
cpu0_L1I RFO       ACCESS:          0  HIT:          0  MISS:          0
cpu0_L1I PREFETCH  ACCESS:          0  HIT:          0  MISS:          0
cpu0_L1I WRITEBACK ACCESS:          0  HIT:          0  MISS:          0
cpu0_STLB TOTAL     ACCESS:    1990910  HIT:    1384327  MISS:     606583
cpu0_STLB LOAD      ACCESS:    1886057  HIT:    1295442  MISS:     590615
cpu0_STLB RFO       ACCESS:     104853  HIT:      88885  MISS:      15968
cpu0_STLB PREFETCH  ACCESS:          0  HIT:          0  MISS:          0
cpu0_STLB WRITEBACK ACCESS:          0  HIT:          0  MISS:          0
cpu0_L1D TOTAL     ACCESS:  173659582  HIT:  151044619  MISS:   22614963
cpu0_L1D LOAD      ACCESS:  147248501  HIT:  126396788  MISS:   20851713
cpu0_L1D RFO       ACCESS:   25832779  HIT:   24080147  MISS:    1752632
cpu0_L1D PREFETCH  ACCESS:          0  HIT:          0  MISS:          0
cpu0_L1D WRITEBACK ACCESS:          0  HIT:          0  MISS:          0
cpu0_L2C TOTAL     ACCESS:   24875459  HIT:    5696204  MISS:   19179255
cpu0_L2C LOAD      ACCESS:   20854626  HIT:    3307444  MISS:   17547182
cpu0_L2C RFO       ACCESS:    1752579  HIT:     126344  MISS:    1626235
cpu0_L2C PREFETCH  ACCESS:          0  HIT:          0  MISS:          0
cpu0_L2C WRITEBACK ACCESS:    2257636  HIT:    2254752  MISS:       2884
LLC TOTAL     ACCESS:   21185066  HIT:      67045  MISS:   21118021
LLC LOAD      ACCESS:   17547157  HIT:      65841  MISS:   17481316
LLC RFO       ACCESS:    1626235  HIT:        373  MISS:    1625862
LLC PREFETCH  ACCESS:          0  HIT:          0  MISS:          0
LLC WRITEBACK ACCESS:    2008720  HIT:        831  MISS:    2007889
Finished CPU 0 instructions: 1500000001 cycles: 1944562040 cumulative IPC: 0.771382 (Simulation time: 15 hr 34 min 44 sec) 

ChampSim completed all CPUs

Region of Interest Statistics

CPU 0 cumulative IPC: 0.771382 instructions: 1500000001 cycles: 1944562040
cpu0_DTLB TOTAL     ACCESS:  258374840  HIT:  256383966  MISS:    1990874
cpu0_DTLB LOAD      ACCESS:  239857355  HIT:  237971334  MISS:    1886021
cpu0_DTLB RFO       ACCESS:   18517485  HIT:   18412632  MISS:     104853
cpu0_DTLB PREFETCH  ACCESS:          0  HIT:          0  MISS:          0
cpu0_DTLB WRITEBACK ACCESS:          0  HIT:          0  MISS:          0
cpu0_DTLB TRANSLATION ACCESS:          0  HIT:          0  MISS:          0
cpu0_DTLB PREFETCH  REQUESTED:          0  ISSUED:          0  USEFUL:          0  USELESS:          0
cpu0_DTLB AVERAGE MISS LATENCY: 11.9726 cycles
cpu0_ITLB TOTAL     ACCESS:  131275515  HIT:  131275479  MISS:         36
cpu0_ITLB LOAD      ACCESS:  131275515  HIT:  131275479  MISS:         36
cpu0_ITLB RFO       ACCESS:          0  HIT:          0  MISS:          0
cpu0_ITLB PREFETCH  ACCESS:          0  HIT:          0  MISS:          0
cpu0_ITLB WRITEBACK ACCESS:          0  HIT:          0  MISS:          0
cpu0_ITLB TRANSLATION ACCESS:          0  HIT:          0  MISS:          0
cpu0_ITLB PREFETCH  REQUESTED:          0  ISSUED:          0  USEFUL:          0  USELESS:          0
cpu0_ITLB AVERAGE MISS LATENCY: 135.806 cycles
cpu0_L1I TOTAL     ACCESS:    1447944  HIT:    1444961  MISS:       2983
cpu0_L1I LOAD      ACCESS:    1447944  HIT:    1444961  MISS:       2983
cpu0_L1I RFO       ACCESS:          0  HIT:          0  MISS:          0
cpu0_L1I PREFETCH  ACCESS:          0  HIT:          0  MISS:          0
cpu0_L1I WRITEBACK ACCESS:          0  HIT:          0  MISS:          0
cpu0_L1I TRANSLATION ACCESS:          0  HIT:          0  MISS:          0
cpu0_L1I PREFETCH  REQUESTED:          0  ISSUED:          0  USEFUL:          0  USELESS:          0
cpu0_L1I AVERAGE MISS LATENCY: 243.263 cycles
cpu0_STLB TOTAL     ACCESS:    1990910  HIT:    1384327  MISS:     606583
cpu0_STLB LOAD      ACCESS:    1886057  HIT:    1295442  MISS:     590615
cpu0_STLB RFO       ACCESS:     104853  HIT:      88885  MISS:      15968
cpu0_STLB PREFETCH  ACCESS:          0  HIT:          0  MISS:          0
cpu0_STLB WRITEBACK ACCESS:          0  HIT:          0  MISS:          0
cpu0_STLB TRANSLATION ACCESS:          0  HIT:          0  MISS:          0
cpu0_STLB PREFETCH  REQUESTED:          0  ISSUED:          0  USEFUL:          0  USELESS:          0
cpu0_STLB AVERAGE MISS LATENCY: 9.63507 cycles
cpu0_L1D TOTAL     ACCESS:  173659582  HIT:  151044619  MISS:   22614963
cpu0_L1D LOAD      ACCESS:  147248501  HIT:  126396788  MISS:   20851713
cpu0_L1D RFO       ACCESS:   25832779  HIT:   24080147  MISS:    1752632
cpu0_L1D PREFETCH  ACCESS:          0  HIT:          0  MISS:          0
cpu0_L1D WRITEBACK ACCESS:          0  HIT:          0  MISS:          0
cpu0_L1D TRANSLATION ACCESS:     578302  HIT:     567684  MISS:      10618
cpu0_L1D PREFETCH  REQUESTED:          0  ISSUED:          0  USEFUL:          0  USELESS:          0
cpu0_L1D AVERAGE MISS LATENCY: 233.269 cycles
cpu0_L2C TOTAL     ACCESS:   24875459  HIT:    5696204  MISS:   19179255
cpu0_L2C LOAD      ACCESS:   20854626  HIT:    3307444  MISS:   17547182
cpu0_L2C RFO       ACCESS:    1752579  HIT:     126344  MISS:    1626235
cpu0_L2C PREFETCH  ACCESS:          0  HIT:          0  MISS:          0
cpu0_L2C WRITEBACK ACCESS:    2257636  HIT:    2254752  MISS:       2884
cpu0_L2C TRANSLATION ACCESS:      10618  HIT:       7664  MISS:       2954
cpu0_L2C PREFETCH  REQUESTED:          0  ISSUED:          0  USEFUL:          0  USELESS:          0
cpu0_L2C AVERAGE MISS LATENCY: 262.09 cycles
LLC TOTAL     ACCESS:   21185066  HIT:      67045  MISS:   21118021
LLC LOAD      ACCESS:   17547157  HIT:      65841  MISS:   17481316
LLC RFO       ACCESS:    1626235  HIT:        373  MISS:    1625862
LLC PREFETCH  ACCESS:          0  HIT:          0  MISS:          0
LLC WRITEBACK ACCESS:    2008720  HIT:        831  MISS:    2007889
LLC TRANSLATION ACCESS:       2954  HIT:          0  MISS:       2954
LLC PREFETCH  REQUESTED:          0  ISSUED:          0  USEFUL:          0  USELESS:          0
LLC AVERAGE MISS LATENCY: 218.959 cycles
~~~~~~~~~~Reuse Distance Profiler output~~~~~~~~~~
0	0	0
1	0	0
2	0	0
3	0	0
4	0	0
5	0	0
6	0	0
7	0	0
8	0	0
9	0	0
10	0	0
11	0	0
12	0	0
13	0	0
14	0	0
15	0	0
16	0	0
17	0	0
18	0	0
19	0	0
20	0	0
21	0	0
22	0	0
23	0	0
24	0	0
25	0	0
26	0	0
27	0	0
28	0	0
29	0	0
30	0	0
31	0	0
32	0	0
33	0	0
34	0	0
35	0	0
36	0	0
37	0	0
38	0	0
39	0	0
40	0	0
41	0	0
42	0	0
43	0	0
44	0	0
45	0	0
46	0	0
47	0	0
48	0	0
49	0	0
50	0	0
51	0	0
52	0	0
53	0	0
54	0	0
55	0	0
56	0	0
57	0	0
58	0	0
59	0	0
60	0	0
61	0	0
62	0	0
63	0	0
64	0	0
66	0	0
68	0	0
70	0	0
72	0	0
74	0	0
76	0	0
78	0	0
80	0	0
82	0	0
84	0	0
86	0	0
88	0	0
90	0	0
92	0	0
94	0	0
96	0	0
98	0	0
100	0	0
102	0	0
104	0	0
106	0	0
108	0	0
110	0	0
112	0	0
114	0	0
116	0	0
118	0	0
120	0	0
122	0	0
124	0	0
126	0	0
128	0	0
132	0	0
136	0	0
140	0	0
144	0	0
148	0	0
152	0	0
156	0	0
160	0	0
164	0	0
168	0	0
172	0	0
176	0	0
180	0	0
184	0	0
188	0	0
192	0	0
196	0	0
200	0	0
204	0	0
208	0	0
212	0	0
216	0	0
220	0	0
224	0	0
228	0	0
232	0	0
236	0	0
240	0	0
244	0	0
248	0	0
252	0	0
256	0	0
264	0	0
272	0	0
280	0	0
288	0	0
296	0	0
304	0	0
312	0	0
320	0	0
328	0	0
336	0	0
344	0	0
352	0	0
360	0	0
368	0	0
376	0	0
384	0	0
392	0	0
400	0	0
408	0	0
416	0	0
424	0	0
432	0	0
440	0	0
448	0	0
456	0	0
464	0	0
472	0	0
480	0	0
488	0	0
496	0	0
504	0	0
512	0	0
528	0	0
544	0	0
560	0	0
576	0	0
592	0	0
608	0	0
624	0	0
640	0	0
656	0	0
672	0	0
688	0	0
704	0	0
720	0	0
736	0	0
752	0	0
768	0	0
784	0	0
800	0	0
816	0	0
832	0	0
848	0	0
864	0	0
880	0	0
896	0	0
912	0	0
928	0	0
944	0	0
960	0	0
976	0	0
992	0	0
1008	0	0
1024	0	0
1056	0	0
1088	0	0
1120	0	0
1152	0	0
1184	0	0
1216	0	0
1248	0	0
1280	0	0
1312	0	0
1344	0	0
1376	0	0
1408	0	0
1440	0	0
1472	0	0
1504	0	0
1536	0	0
1568	0	0
1600	0	0
1632	0	0
1664	0	0
1696	0	0
1728	0	0
1760	0	0
1792	0	0
1824	0	0
1856	0	0
1888	0	0
1920	0	0
1952	0	0
1984	0	0
2016	0	0
2048	0	0
2112	0	0
2176	0	0
2240	0	0
2304	0	0
2368	0	0
2432	0	0
2496	0	0
2560	0	0
2624	0	0
2688	0	0
2752	0	0
2816	0	0
2880	0	0
2944	0	0
3008	0	0
3072	0	0
3136	0	0
3200	0	0
3264	0	0
3328	0	0
3392	0	0
3456	0	0
3520	0	0
3584	0	0
3648	0	0
3712	0	0
3776	0	0
3840	0	0
3904	0	0
3968	0	0
4032	0	0
4096	0	0
4224	0	0
4352	0	0
4480	0	0
4608	0	0
4736	0	0
4864	0	0
4992	0	0
5120	0	0
5248	0	0
5376	0	0
5504	0	0
5632	0	0
5760	0	0
5888	0	0
6016	0	0
6144	0	0
6272	0	0
6400	0	0
6528	0	0
6656	0	0
6784	0	0
6912	0	0
7040	0	0
7168	0	0
7296	0	0
7424	0	0
7552	0	0
7680	0	0
7808	0	0
7936	0	0
8064	0	0
8192	0	0
8448	0	0
8704	0	0
8960	0	0
9216	0	0
9472	0	0
9728	0	0
9984	0	0
10240	0	0
10496	0	0
10752	0	0
11008	0	0
11264	0	0
11520	0	0
11776	0	0
12032	0	0
12288	0	0
12544	0	0
12800	0	0
13056	0	0
13312	0	0
13568	0	0
13824	0	0
14080	0	0
14336	0	0
14592	0	0
14848	0	0
15104	0	0
15360	0	0
15616	0	0
15872	0	0
16128	0	0
16384	0	0
16896	0	0
17408	0	0
17920	0	0
18432	0	0
18944	0	0
19456	0	0
19968	0	0
20480	0	0
20992	0	0
21504	0	0
22016	0	0
22528	0	0
23040	0	0
23552	0	0
24064	0	0
24576	0	0
25088	0	0
25600	0	0
26112	0	0
26624	0	0
27136	0	0
27648	0	0
28160	0	0
28672	0	0
29184	0	0
29696	0	0
30208	0	0
30720	0	0
31232	0	0
31744	0	0
32256	0	0
32768	0	0
33792	0	0
34816	0	0
35840	0	0
36864	0	0
37888	0	0
38912	0	0
39936	0	0
40960	0	0
41984	0	0
43008	0	0
44032	0	0
45056	0	0
46080	0	0
47104	0	0
48128	0	0
49152	0	0
50176	0	0
51200	0	0
52224	0	0
53248	0	0
54272	0	0
55296	0	0
56320	0	0
57344	0	0
58368	0	0
59392	0	0
60416	0	0
61440	0	0
62464	0	0
63488	0	0
64512	0	0
65536	0	0
67584	0	0
69632	0	0
71680	0	0
73728	0	0
75776	0	0
77824	0	0
79872	0	0
81920	0	0
83968	0	0
86016	0	0
88064	0	0
90112	0	0
92160	0	0
94208	0	0
96256	0	0
98304	0	0
100352	0	0
102400	0	0
104448	0	0
106496	0	0
108544	0	0
110592	0	0
112640	0	0
114688	0	0
116736	0	0
118784	0	0
120832	0	0
122880	0	0
124928	0	0
126976	0	0
129024	0	0
131072	0	0
135168	0	0
139264	0	0
143360	0	0
147456	0	0
151552	0	0
155648	0	0
159744	0	0
163840	0	0
167936	0	0
172032	0	0
176128	0	0
180224	0	0
184320	0	0
188416	0	0
192512	0	0
196608	0	0
200704	0	0
204800	0	0
208896	0	0
212992	0	0
217088	0	0
221184	0	0
225280	0	0
229376	0	0
233472	0	0
237568	0	0
241664	0	0
245760	0	0
249856	0	0
253952	0	0
258048	0	0
262144	0	0
270336	0	0
278528	0	0
286720	0	0
294912	0	0
303104	0	0
311296	0	0
319488	0	0
327680	0	0
335872	0	0
344064	0	0
352256	0	0
360448	0	0
368640	0	0
376832	0	0
385024	0	0
393216	0	0
401408	0	0
409600	0	0
417792	0	0
425984	0	0
434176	0	0
442368	0	0
450560	0	0
458752	0	0
466944	0	0
475136	0	0
483328	0	0
491520	0	0
499712	0	0
507904	0	0
516096	0	0
524288	0	0
540672	0	0
557056	0	0
573440	0	0
589824	0	0
606208	0	0
622592	0	0
638976	0	0
655360	0	0
671744	0	0
688128	0	0
704512	0	0
720896	0	0
737280	0	0
753664	0	0
770048	0	0
786432	0	0
802816	0	0
819200	0	0
835584	0	0
851968	0	0
868352	0	0
884736	0	0
901120	0	0
917504	0	0
933888	0	0
950272	0	0
966656	0	0
983040	0	0
999424	0	0
1015808	0	0
1032192	0	0
1048576	0	0
1081344	0	0
1114112	0	0
1146880	0	0
1179648	0	0
1212416	0	0
1245184	0	0
1277952	0	0
1310720	0	0
1343488	0	0
1376256	0	0
1409024	0	0
1441792	0	0
1474560	0	0
1507328	0	0
1540096	0	0
1572864	0	0
1605632	0	0
1638400	0	0
1671168	0	0
1703936	0	0
1736704	0	0
1769472	0	0
1802240	0	0
1835008	0	0
1867776	0	0
1900544	0	0
1933312	0	0
1966080	0	0
1998848	0	0
2031616	0	0
2064384	0	0
2097152	0	0
2162688	0	0
2228224	0	0
2293760	0	0
2359296	0	0
2424832	0	0
2490368	0	0
2555904	0	0
2621440	0	0
2686976	0	0
2752512	0	0
2818048	0	0
2883584	0	0
2949120	0	0
3014656	0	0
3080192	0	0
3145728	0	0
3211264	0	0
3276800	0	0
3342336	0	0
3407872	0	0
3473408	0	0
3538944	0	0
3604480	0	0
3670016	0	0
3735552	0	0
3801088	0	0
3866624	0	0
3932160	0	0
3997696	0	0
4063232	0	0
4128768	0	0
4194304	0	0
4325376	0	0
4456448	0	0
4587520	0	0
4718592	0	0
4849664	0	0
4980736	0	0
5111808	0	0
5242880	0	0
5373952	0	0
5505024	0	0
5636096	0	0
5767168	0	0
5898240	0	0
6029312	0	0
6160384	0	0
6291456	0	0
6422528	0	0
6553600	0	0
6684672	0	0
6815744	0	0
6946816	0	0
7077888	0	0
7208960	0	0
7340032	0	0
7471104	0	0
7602176	0	0
7733248	0	0
7864320	0	0
7995392	0	0
8126464	0	0
8257536	0	0
8388608	0	0
8650752	0	0
8912896	0	0
9175040	0	0
9437184	0	0
9699328	0	0
9961472	0	0
10223616	0	0
10485760	0	0
10747904	0	0
11010048	0	0
11272192	0	0
11534336	0	0
11796480	0	0
12058624	0	0
12320768	0	0
12582912	0	0
12845056	0	0
13107200	0	0
13369344	0	0
13631488	0	0
13893632	0	0
14155776	0	0
14417920	0	0
14680064	0	0
14942208	0	0
15204352	0	0
15466496	0	0
15728640	0	0
15990784	0	0
16252928	0	0
16515072	0	0
16777216	0	0
17301504	0	0
17825792	0	0
18350080	0	0
18874368	0	0
19398656	0	0
19922944	0	0
20447232	0	0
20971520	0	0
21495808	0	0
22020096	0	0
22544384	0	0
23068672	0	0
23592960	0	0
24117248	0	0
24641536	0	0
25165824	0	0
25690112	0	0
26214400	0	0
26738688	0	0
27262976	0	0
27787264	0	0
28311552	0	0
28835840	0	0
29360128	0	0
29884416	0	0
30408704	0	0
30932992	0	0
31457280	0	0
31981568	0	0
32505856	0	0
33030144	0	0
33554432	0	0
34603008	0	0
35651584	0	0
36700160	0	0
37748736	0	0
38797312	0	0
39845888	0	0
40894464	0	0
41943040	0	0
42991616	0	0
44040192	0	0
45088768	0	0
46137344	0	0
47185920	0	0
48234496	0	0
49283072	0	0
50331648	0	0
51380224	0	0
52428800	0	0
53477376	0	0
54525952	0	0
55574528	0	0
56623104	0	0
57671680	0	0
58720256	0	0
59768832	0	0
60817408	0	0
61865984	0	0
62914560	0	0
63963136	0	0
65011712	0	0
66060288	0	0
67108864	0	0
69206016	0	0
71303168	0	0
73400320	0	0
75497472	0	0
77594624	0	0
79691776	0	0
81788928	0	0
83886080	0	0
85983232	0	0
88080384	0	0
90177536	0	0
92274688	0	0
94371840	0	0
96468992	0	0
98566144	0	0
100663296	0	0
102760448	0	0
104857600	0	0
106954752	0	0
109051904	0	0
111149056	0	0
113246208	0	0
115343360	0	0
117440512	0	0
119537664	0	0
121634816	0	0
123731968	0	0
125829120	0	0
127926272	0	0
130023424	0	0
132120576	0	0
134217728	0	0
138412032	0	0
142606336	0	0
146800640	0	0
150994944	0	0
155189248	0	0
159383552	0	0
163577856	0	0
167772160	0	0
171966464	0	0
176160768	0	0
180355072	0	0
184549376	0	0
188743680	0	0
192937984	0	0
197132288	0	0
201326592	0	0
205520896	0	0
209715200	0	0
213909504	0	0
218103808	0	0
222298112	0	0
226492416	0	0
230686720	0	0
234881024	0	0
239075328	0	0
243269632	0	0
247463936	0	0
251658240	0	0
255852544	0	0
260046848	0	0
264241152	0	0
268435456	0	0
276824064	0	0
285212672	0	0
293601280	0	0
301989888	0	0
310378496	0	0
318767104	0	0
327155712	0	0
335544320	0	0
343932928	0	0
352321536	0	0
360710144	0	0
369098752	0	0
377487360	0	0
385875968	0	0
394264576	0	0
402653184	0	0
411041792	0	0
419430400	0	0
427819008	0	0
436207616	0	0
444596224	0	0
452984832	0	0
461373440	0	0
469762048	0	0
478150656	0	0
486539264	0	0
494927872	0	0
503316480	0	0
511705088	0	0
520093696	0	0
528482304	0	0
536870912	0	0
553648128	0	0
570425344	0	0
587202560	0	0
603979776	0	0
620756992	0	0
637534208	0	0
654311424	0	0
671088640	0	0
687865856	0	0
704643072	0	0
721420288	0	0
738197504	0	0
754974720	0	0
771751936	0	0
788529152	0	0
805306368	0	0
822083584	0	0
838860800	0	0
855638016	0	0
872415232	0	0
889192448	0	0
905969664	0	0
922746880	0	0
939524096	0	0
956301312	0	0
973078528	0	0
989855744	0	0
1006632960	0	0
1023410176	0	0
1040187392	0	0
1056964608	0	0
1073741824	0	0
1107296256	0	0
1140850688	0	0
1174405120	0	0
1207959552	0	0
1241513984	0	0
1275068416	0	0
1308622848	0	0
1342177280	0	0
1375731712	0	0
1409286144	0	0
1442840576	0	0
1476395008	0	0
1509949440	0	0
1543503872	0	0
1577058304	0	0
1610612736	0	0
1644167168	0	0
1677721600	0	0
1711276032	0	0
1744830464	0	0
1778384896	0	0
1811939328	0	0
1845493760	0	0
1879048192	0	0
1912602624	0	0
1946157056	0	0
1979711488	0	0
2013265920	0	0
2046820352	0	0
2080374784	0	0
2113929216	0	0
2147483648	0	0
2214592512	0	0
2281701376	0	0
2348810240	0	0
2415919104	0	0
2483027968	0	0
2550136832	0	0
2617245696	0	0
2684354560	0	0
2751463424	0	0
2818572288	0	0
2885681152	0	0
2952790016	0	0
3019898880	0	0
3087007744	0	0
3154116608	0	0
3221225472	0	0
3288334336	0	0
3355443200	0	0
3422552064	0	0
3489660928	0	0
3556769792	0	0
3623878656	0	0
3690987520	0	0
3758096384	0	0
3825205248	0	0
3892314112	0	0
3959422976	0	0
4026531840	0	0
4093640704	0	0
4160749568	0	0
4227858432	0	0
~~~~~~~~~~Reuse Distance Profiler output end~~~~~~~~~~


DRAM Statistics
 CHANNEL 0
 RQ ROW_BUFFER_HIT:    1410968  ROW_BUFFER_MISS:   17694994
 DBUS AVG_CONGESTED_CYCLE:    3.91192
 WQ ROW_BUFFER_HIT:     212496  ROW_BUFFER_MISS:    1796352  FULL:          0


CPU 0 Branch Prediction Accuracy: 92.7964% MPKI: 6.51672 Average ROB Occupancy at Mispredict: 207.515
Branch type MPKI
BRANCH_DIRECT_JUMP: 4.93333e-05
BRANCH_INDIRECT: 0.000106667
BRANCH_CONDITIONAL: 6.51637
BRANCH_DIRECT_CALL: 7.26667e-05
BRANCH_INDIRECT_CALL: 5.53333e-05
BRANCH_RETURN: 7.06667e-05

