
*** ChampSim Multicore Out-of-Order Simulator ***

Warmup Instructions: 50000000
Simulation Instructions: 1500000000
Number of CPUs: 1
Off-chip DRAM Size: 4 GiB Channels: 1 Width: 64-bit Data Rate: 3200 MT/s

VirtualMemory physical capacity: 8588881920 num_ppages: 2096895
VirtualMemory page size: 4096 log2_page_size: 12

CPU 0 runs traces/605.mcf_s-782B.champsimtrace.xz
CPU 0 Bimodal branch predictor
Basic BTB sets: 1024 ways: 8 indirect buffer size: 4096 RAS size: 64
Initializing LRU.
Initializing LRU.
Initializing LRU.
Initializing LRU.
Initializing rdLRU.
Initializing LRU.
Initializing LRU.
Heartbeat CPU 0 instructions: 2000003 cycles: 687078 heartbeat IPC: 2.91088 cumulative IPC: 2.91088 (Simulation time: 0 hr 1 min 8 sec) 
Heartbeat CPU 0 instructions: 4000002 cycles: 1365578 heartbeat IPC: 2.94768 cumulative IPC: 2.92916 (Simulation time: 0 hr 2 min 21 sec) 
Heartbeat CPU 0 instructions: 6000000 cycles: 2044191 heartbeat IPC: 2.94718 cumulative IPC: 2.93515 (Simulation time: 0 hr 3 min 38 sec) 
Heartbeat CPU 0 instructions: 8000003 cycles: 2730379 heartbeat IPC: 2.91466 cumulative IPC: 2.93 (Simulation time: 0 hr 4 min 47 sec) 
Heartbeat CPU 0 instructions: 10000000 cycles: 3422736 heartbeat IPC: 2.88868 cumulative IPC: 2.92164 (Simulation time: 0 hr 5 min 50 sec) 
Heartbeat CPU 0 instructions: 12000002 cycles: 4105172 heartbeat IPC: 2.93068 cumulative IPC: 2.92314 (Simulation time: 0 hr 6 min 56 sec) 
Heartbeat CPU 0 instructions: 14000003 cycles: 4794596 heartbeat IPC: 2.90097 cumulative IPC: 2.91995 (Simulation time: 0 hr 7 min 56 sec) 
Heartbeat CPU 0 instructions: 16000003 cycles: 5477772 heartbeat IPC: 2.9275 cumulative IPC: 2.9209 (Simulation time: 0 hr 8 min 55 sec) 
Heartbeat CPU 0 instructions: 18000000 cycles: 6170752 heartbeat IPC: 2.88608 cumulative IPC: 2.91699 (Simulation time: 0 hr 9 min 55 sec) 
Heartbeat CPU 0 instructions: 20000004 cycles: 6865170 heartbeat IPC: 2.88012 cumulative IPC: 2.91326 (Simulation time: 0 hr 10 min 54 sec) 
Heartbeat CPU 0 instructions: 22000002 cycles: 7565793 heartbeat IPC: 2.8546 cumulative IPC: 2.90782 (Simulation time: 0 hr 11 min 56 sec) 
Heartbeat CPU 0 instructions: 24000001 cycles: 8259181 heartbeat IPC: 2.88439 cumulative IPC: 2.90586 (Simulation time: 0 hr 12 min 57 sec) 
Heartbeat CPU 0 instructions: 26000001 cycles: 8954234 heartbeat IPC: 2.87748 cumulative IPC: 2.90365 (Simulation time: 0 hr 14 min 0 sec) 
Heartbeat CPU 0 instructions: 28000000 cycles: 9661060 heartbeat IPC: 2.82955 cumulative IPC: 2.89823 (Simulation time: 0 hr 15 min 4 sec) 
Heartbeat CPU 0 instructions: 30000001 cycles: 10375075 heartbeat IPC: 2.80106 cumulative IPC: 2.89155 (Simulation time: 0 hr 16 min 5 sec) 
Heartbeat CPU 0 instructions: 32000003 cycles: 11061377 heartbeat IPC: 2.91417 cumulative IPC: 2.89295 (Simulation time: 0 hr 17 min 2 sec) 
Heartbeat CPU 0 instructions: 34000002 cycles: 11740974 heartbeat IPC: 2.94292 cumulative IPC: 2.89584 (Simulation time: 0 hr 17 min 59 sec) 
Heartbeat CPU 0 instructions: 36000001 cycles: 12445455 heartbeat IPC: 2.83897 cumulative IPC: 2.89262 (Simulation time: 0 hr 19 min 1 sec) 
Heartbeat CPU 0 instructions: 38000001 cycles: 13140637 heartbeat IPC: 2.87694 cumulative IPC: 2.89179 (Simulation time: 0 hr 19 min 59 sec) 
Heartbeat CPU 0 instructions: 40000000 cycles: 13836442 heartbeat IPC: 2.87437 cumulative IPC: 2.89092 (Simulation time: 0 hr 20 min 58 sec) 
Heartbeat CPU 0 instructions: 42000000 cycles: 14526217 heartbeat IPC: 2.8995 cumulative IPC: 2.89132 (Simulation time: 0 hr 21 min 56 sec) 
Heartbeat CPU 0 instructions: 44000000 cycles: 15220398 heartbeat IPC: 2.88109 cumulative IPC: 2.89086 (Simulation time: 0 hr 22 min 55 sec) 
Heartbeat CPU 0 instructions: 46000002 cycles: 15922123 heartbeat IPC: 2.85012 cumulative IPC: 2.88906 (Simulation time: 0 hr 23 min 58 sec) 
Heartbeat CPU 0 instructions: 48000003 cycles: 16623750 heartbeat IPC: 2.85052 cumulative IPC: 2.88744 (Simulation time: 0 hr 24 min 59 sec) 
Heartbeat CPU 0 instructions: 50000001 cycles: 17324497 heartbeat IPC: 2.85409 cumulative IPC: 2.88609 (Simulation time: 0 hr 25 min 56 sec) 

Warmup complete CPU 0 instructions: 50000001 cycles: 17324497 (Simulation time: 0 hr 25 min 56 sec) 

Heartbeat CPU 0 instructions: 52000000 cycles: 29239369 heartbeat IPC: 0.167857 cumulative IPC: 0.167857 (Simulation time: 0 hr 29 min 17 sec) 

Region of Interest Statistics
cpu0_DTLB TOTAL     ACCESS:     417102  HIT:     253106  MISS:     163996
cpu0_DTLB LOAD      ACCESS:     393050  HIT:     229573  MISS:     163477
cpu0_DTLB RFO       ACCESS:      24052  HIT:      23533  MISS:        519
cpu0_DTLB PREFETCH  ACCESS:          0  HIT:          0  MISS:          0
cpu0_DTLB WRITEBACK ACCESS:          0  HIT:          0  MISS:          0
cpu0_ITLB TOTAL     ACCESS:     182225  HIT:     182225  MISS:          0
cpu0_ITLB LOAD      ACCESS:     182225  HIT:     182225  MISS:          0
cpu0_ITLB RFO       ACCESS:          0  HIT:          0  MISS:          0
cpu0_ITLB PREFETCH  ACCESS:          0  HIT:          0  MISS:          0
cpu0_ITLB WRITEBACK ACCESS:          0  HIT:          0  MISS:          0
cpu0_L1I TOTAL     ACCESS:       3558  HIT:       3558  MISS:          0
cpu0_L1I LOAD      ACCESS:       3558  HIT:       3558  MISS:          0
cpu0_L1I RFO       ACCESS:          0  HIT:          0  MISS:          0
cpu0_L1I PREFETCH  ACCESS:          0  HIT:          0  MISS:          0
cpu0_L1I WRITEBACK ACCESS:          0  HIT:          0  MISS:          0
cpu0_STLB TOTAL     ACCESS:     163996  HIT:     161714  MISS:       2282
cpu0_STLB LOAD      ACCESS:     163477  HIT:     161230  MISS:       2247
cpu0_STLB RFO       ACCESS:        519  HIT:        484  MISS:         35
cpu0_STLB PREFETCH  ACCESS:          0  HIT:          0  MISS:          0
cpu0_STLB WRITEBACK ACCESS:          0  HIT:          0  MISS:          0
cpu0_L1D TOTAL     ACCESS:     451708  HIT:     164860  MISS:     286848
cpu0_L1D LOAD      ACCESS:     405523  HIT:     119609  MISS:     285914
cpu0_L1D RFO       ACCESS:      43916  HIT:      43224  MISS:        692
cpu0_L1D PREFETCH  ACCESS:          0  HIT:          0  MISS:          0
cpu0_L1D WRITEBACK ACCESS:          0  HIT:          0  MISS:          0
cpu0_L2C TOTAL     ACCESS:     291376  HIT:      39690  MISS:     251686
cpu0_L2C LOAD      ACCESS:     285914  HIT:      34981  MISS:     250933
cpu0_L2C RFO       ACCESS:        692  HIT:         34  MISS:        658
cpu0_L2C PREFETCH  ACCESS:          0  HIT:          0  MISS:          0
cpu0_L2C WRITEBACK ACCESS:       4528  HIT:       4528  MISS:          0
LLC TOTAL     ACCESS:     255804  HIT:      77217  MISS:     178587
LLC LOAD      ACCESS:     250933  HIT:      72706  MISS:     178227
LLC RFO       ACCESS:        658  HIT:        387  MISS:        271
LLC PREFETCH  ACCESS:          0  HIT:          0  MISS:          0
LLC WRITEBACK ACCESS:       4118  HIT:       4065  MISS:         53
Heartbeat CPU 0 instructions: 54000004 cycles: 41634470 heartbeat IPC: 0.161354 cumulative IPC: 0.164542 (Simulation time: 0 hr 32 min 37 sec) 

Region of Interest Statistics
cpu0_DTLB TOTAL     ACCESS:     828871  HIT:     492350  MISS:     336521
cpu0_DTLB LOAD      ACCESS:     783973  HIT:     448535  MISS:     335438
cpu0_DTLB RFO       ACCESS:      44898  HIT:      43815  MISS:       1083
cpu0_DTLB PREFETCH  ACCESS:          0  HIT:          0  MISS:          0
cpu0_DTLB WRITEBACK ACCESS:          0  HIT:          0  MISS:          0
cpu0_ITLB TOTAL     ACCESS:     360018  HIT:     360018  MISS:          0
cpu0_ITLB LOAD      ACCESS:     360018  HIT:     360018  MISS:          0
cpu0_ITLB RFO       ACCESS:          0  HIT:          0  MISS:          0
cpu0_ITLB PREFETCH  ACCESS:          0  HIT:          0  MISS:          0
cpu0_ITLB WRITEBACK ACCESS:          0  HIT:          0  MISS:          0
cpu0_L1I TOTAL     ACCESS:       7036  HIT:       7036  MISS:          0
cpu0_L1I LOAD      ACCESS:       7036  HIT:       7036  MISS:          0
cpu0_L1I RFO       ACCESS:          0  HIT:          0  MISS:          0
cpu0_L1I PREFETCH  ACCESS:          0  HIT:          0  MISS:          0
cpu0_L1I WRITEBACK ACCESS:          0  HIT:          0  MISS:          0
cpu0_STLB TOTAL     ACCESS:     336521  HIT:     331797  MISS:       4724
cpu0_STLB LOAD      ACCESS:     335438  HIT:     330773  MISS:       4665
cpu0_STLB RFO       ACCESS:       1083  HIT:       1024  MISS:         59
cpu0_STLB PREFETCH  ACCESS:          0  HIT:          0  MISS:          0
cpu0_STLB WRITEBACK ACCESS:          0  HIT:          0  MISS:          0
cpu0_L1D TOTAL     ACCESS:     892492  HIT:     305520  MISS:     586972
cpu0_L1D LOAD      ACCESS:     805568  HIT:     220386  MISS:     585182
cpu0_L1D RFO       ACCESS:      82240  HIT:      80917  MISS:       1323
cpu0_L1D PREFETCH  ACCESS:          0  HIT:          0  MISS:          0
cpu0_L1D WRITEBACK ACCESS:          0  HIT:          0  MISS:          0
cpu0_L2C TOTAL     ACCESS:     595394  HIT:      80932  MISS:     514462
cpu0_L2C LOAD      ACCESS:     585182  HIT:      72157  MISS:     513025
cpu0_L2C RFO       ACCESS:       1323  HIT:         82  MISS:       1241
cpu0_L2C PREFETCH  ACCESS:          0  HIT:          0  MISS:          0
cpu0_L2C WRITEBACK ACCESS:       8422  HIT:       8422  MISS:          0
LLC TOTAL     ACCESS:     522062  HIT:     155300  MISS:     366762
LLC LOAD      ACCESS:     513025  HIT:     147019  MISS:     366006
LLC RFO       ACCESS:       1241  HIT:        700  MISS:        541
LLC PREFETCH  ACCESS:          0  HIT:          0  MISS:          0
LLC WRITEBACK ACCESS:       7600  HIT:       7473  MISS:        127
Heartbeat CPU 0 instructions: 56000002 cycles: 55106894 heartbeat IPC: 0.148451 cumulative IPC: 0.158804 (Simulation time: 0 hr 36 min 14 sec) 

Region of Interest Statistics
cpu0_DTLB TOTAL     ACCESS:    1236004  HIT:     716424  MISS:     519580
cpu0_DTLB LOAD      ACCESS:    1176176  HIT:     658663  MISS:     517513
cpu0_DTLB RFO       ACCESS:      59828  HIT:      57761  MISS:       2067
cpu0_DTLB PREFETCH  ACCESS:          0  HIT:          0  MISS:          0
cpu0_DTLB WRITEBACK ACCESS:          0  HIT:          0  MISS:          0
cpu0_ITLB TOTAL     ACCESS:     533939  HIT:     533939  MISS:          0
cpu0_ITLB LOAD      ACCESS:     533939  HIT:     533939  MISS:          0
cpu0_ITLB RFO       ACCESS:          0  HIT:          0  MISS:          0
cpu0_ITLB PREFETCH  ACCESS:          0  HIT:          0  MISS:          0
cpu0_ITLB WRITEBACK ACCESS:          0  HIT:          0  MISS:          0
cpu0_L1I TOTAL     ACCESS:       9640  HIT:       9640  MISS:          0
cpu0_L1I LOAD      ACCESS:       9640  HIT:       9640  MISS:          0
cpu0_L1I RFO       ACCESS:          0  HIT:          0  MISS:          0
cpu0_L1I PREFETCH  ACCESS:          0  HIT:          0  MISS:          0
cpu0_L1I WRITEBACK ACCESS:          0  HIT:          0  MISS:          0
cpu0_STLB TOTAL     ACCESS:     519580  HIT:     512306  MISS:       7274
cpu0_STLB LOAD      ACCESS:     517513  HIT:     510327  MISS:       7186
cpu0_STLB RFO       ACCESS:       2067  HIT:       1979  MISS:         88
cpu0_STLB PREFETCH  ACCESS:          0  HIT:          0  MISS:          0
cpu0_STLB WRITEBACK ACCESS:          0  HIT:          0  MISS:          0
cpu0_L1D TOTAL     ACCESS:    1318303  HIT:     410323  MISS:     907980
cpu0_L1D LOAD      ACCESS:    1203947  HIT:     298378  MISS:     905569
cpu0_L1D RFO       ACCESS:     107156  HIT:     105418  MISS:       1738
cpu0_L1D PREFETCH  ACCESS:          0  HIT:          0  MISS:          0
cpu0_L1D WRITEBACK ACCESS:          0  HIT:          0  MISS:          0
cpu0_L2C TOTAL     ACCESS:     920521  HIT:     124573  MISS:     795948
cpu0_L2C LOAD      ACCESS:     905568  HIT:     111553  MISS:     794015
cpu0_L2C RFO       ACCESS:       1738  HIT:         95  MISS:       1643
cpu0_L2C PREFETCH  ACCESS:          0  HIT:          0  MISS:          0
cpu0_L2C WRITEBACK ACCESS:      12542  HIT:      12542  MISS:          0
LLC TOTAL     ACCESS:     807419  HIT:     238412  MISS:     569007
LLC LOAD      ACCESS:     794015  HIT:     226110  MISS:     567905
LLC RFO       ACCESS:       1643  HIT:        862  MISS:        781
LLC PREFETCH  ACCESS:          0  HIT:          0  MISS:          0
LLC WRITEBACK ACCESS:      11471  HIT:      11302  MISS:        169
Heartbeat CPU 0 instructions: 58000000 cycles: 67508700 heartbeat IPC: 0.161267 cumulative IPC: 0.159413 (Simulation time: 0 hr 39 min 29 sec) 

Region of Interest Statistics
cpu0_DTLB TOTAL     ACCESS:    1646938  HIT:     957149  MISS:     689789
cpu0_DTLB LOAD      ACCESS:    1566308  HIT:     879211  MISS:     687097
cpu0_DTLB RFO       ACCESS:      80630  HIT:      77938  MISS:       2692
cpu0_DTLB PREFETCH  ACCESS:          0  HIT:          0  MISS:          0
cpu0_DTLB WRITEBACK ACCESS:          0  HIT:          0  MISS:          0
cpu0_ITLB TOTAL     ACCESS:     712001  HIT:     712001  MISS:          0
cpu0_ITLB LOAD      ACCESS:     712001  HIT:     712001  MISS:          0
cpu0_ITLB RFO       ACCESS:          0  HIT:          0  MISS:          0
cpu0_ITLB PREFETCH  ACCESS:          0  HIT:          0  MISS:          0
cpu0_ITLB WRITEBACK ACCESS:          0  HIT:          0  MISS:          0
cpu0_L1I TOTAL     ACCESS:      13369  HIT:      13369  MISS:          0
cpu0_L1I LOAD      ACCESS:      13369  HIT:      13369  MISS:          0
cpu0_L1I RFO       ACCESS:          0  HIT:          0  MISS:          0
cpu0_L1I PREFETCH  ACCESS:          0  HIT:          0  MISS:          0
cpu0_L1I WRITEBACK ACCESS:          0  HIT:          0  MISS:          0
cpu0_STLB TOTAL     ACCESS:     689789  HIT:     680203  MISS:       9586
cpu0_STLB LOAD      ACCESS:     687097  HIT:     677625  MISS:       9472
cpu0_STLB RFO       ACCESS:       2692  HIT:       2578  MISS:        114
cpu0_STLB PREFETCH  ACCESS:          0  HIT:          0  MISS:          0
cpu0_STLB WRITEBACK ACCESS:          0  HIT:          0  MISS:          0
cpu0_L1D TOTAL     ACCESS:    1759305  HIT:     554981  MISS:    1204324
cpu0_L1D LOAD      ACCESS:    1603786  HIT:     402718  MISS:    1201068
cpu0_L1D RFO       ACCESS:     146037  HIT:     143687  MISS:       2350
cpu0_L1D PREFETCH  ACCESS:          0  HIT:          0  MISS:          0
cpu0_L1D WRITEBACK ACCESS:          0  HIT:          0  MISS:          0
cpu0_L2C TOTAL     ACCESS:    1220580  HIT:     165282  MISS:    1055298
cpu0_L2C LOAD      ACCESS:    1201067  HIT:     148381  MISS:    1052686
cpu0_L2C RFO       ACCESS:       2350  HIT:        129  MISS:       2221
cpu0_L2C PREFETCH  ACCESS:          0  HIT:          0  MISS:          0
cpu0_L2C WRITEBACK ACCESS:      16257  HIT:      16257  MISS:          0
LLC TOTAL     ACCESS:    1070276  HIT:     316136  MISS:     754140
LLC LOAD      ACCESS:    1052686  HIT:     299981  MISS:     752705
LLC RFO       ACCESS:       2221  HIT:       1223  MISS:        998
LLC PREFETCH  ACCESS:          0  HIT:          0  MISS:          0
LLC WRITEBACK ACCESS:      14978  HIT:      14751  MISS:        227
Heartbeat CPU 0 instructions: 60000000 cycles: 79370208 heartbeat IPC: 0.168613 cumulative IPC: 0.161171 (Simulation time: 0 hr 42 min 36 sec) 

Region of Interest Statistics
cpu0_DTLB TOTAL     ACCESS:    2062534  HIT:    1208189  MISS:     854345
cpu0_DTLB LOAD      ACCESS:    1957118  HIT:    1105999  MISS:     851119
cpu0_DTLB RFO       ACCESS:     105416  HIT:     102190  MISS:       3226
cpu0_DTLB PREFETCH  ACCESS:          0  HIT:          0  MISS:          0
cpu0_DTLB WRITEBACK ACCESS:          0  HIT:          0  MISS:          0
cpu0_ITLB TOTAL     ACCESS:     891817  HIT:     891817  MISS:          0
cpu0_ITLB LOAD      ACCESS:     891817  HIT:     891817  MISS:          0
cpu0_ITLB RFO       ACCESS:          0  HIT:          0  MISS:          0
cpu0_ITLB PREFETCH  ACCESS:          0  HIT:          0  MISS:          0
cpu0_ITLB WRITEBACK ACCESS:          0  HIT:          0  MISS:          0
cpu0_L1I TOTAL     ACCESS:      17448  HIT:      17448  MISS:          0
cpu0_L1I LOAD      ACCESS:      17448  HIT:      17448  MISS:          0
cpu0_L1I RFO       ACCESS:          0  HIT:          0  MISS:          0
cpu0_L1I PREFETCH  ACCESS:          0  HIT:          0  MISS:          0
cpu0_L1I WRITEBACK ACCESS:          0  HIT:          0  MISS:          0
cpu0_STLB TOTAL     ACCESS:     854345  HIT:     842537  MISS:      11808
cpu0_STLB LOAD      ACCESS:     851119  HIT:     839452  MISS:      11667
cpu0_STLB RFO       ACCESS:       3226  HIT:       3085  MISS:        141
cpu0_STLB PREFETCH  ACCESS:          0  HIT:          0  MISS:          0
cpu0_STLB WRITEBACK ACCESS:          0  HIT:          0  MISS:          0
cpu0_L1D TOTAL     ACCESS:    2210105  HIT:     720183  MISS:    1489922
cpu0_L1D LOAD      ACCESS:    2006099  HIT:     520442  MISS:    1485657
cpu0_L1D RFO       ACCESS:     192319  HIT:     189199  MISS:       3120
cpu0_L1D PREFETCH  ACCESS:          0  HIT:          0  MISS:          0
cpu0_L1D WRITEBACK ACCESS:          0  HIT:          0  MISS:          0
cpu0_L2C TOTAL     ACCESS:    1510451  HIT:     204365  MISS:    1306086
cpu0_L2C LOAD      ACCESS:    1485656  HIT:     182981  MISS:    1302675
cpu0_L2C RFO       ACCESS:       3120  HIT:        199  MISS:       2921
cpu0_L2C PREFETCH  ACCESS:          0  HIT:          0  MISS:          0
cpu0_L2C WRITEBACK ACCESS:      20530  HIT:      20530  MISS:          0
LLC TOTAL     ACCESS:    1324846  HIT:     392981  MISS:     931865
LLC LOAD      ACCESS:    1302675  HIT:     372589  MISS:     930086
LLC RFO       ACCESS:       2921  HIT:       1718  MISS:       1203
LLC PREFETCH  ACCESS:          0  HIT:          0  MISS:          0
LLC WRITEBACK ACCESS:      18760  HIT:      18448  MISS:        312
Heartbeat CPU 0 instructions: 62000003 cycles: 91385741 heartbeat IPC: 0.166451 cumulative IPC: 0.162028 (Simulation time: 0 hr 45 min 41 sec) 

Region of Interest Statistics
cpu0_DTLB TOTAL     ACCESS:    2475828  HIT:    1456066  MISS:    1019762
cpu0_DTLB LOAD      ACCESS:    2346765  HIT:    1330756  MISS:    1016009
cpu0_DTLB RFO       ACCESS:     129063  HIT:     125310  MISS:       3753
cpu0_DTLB PREFETCH  ACCESS:          0  HIT:          0  MISS:          0
cpu0_DTLB WRITEBACK ACCESS:          0  HIT:          0  MISS:          0
cpu0_ITLB TOTAL     ACCESS:    1070811  HIT:    1070811  MISS:          0
cpu0_ITLB LOAD      ACCESS:    1070811  HIT:    1070811  MISS:          0
cpu0_ITLB RFO       ACCESS:          0  HIT:          0  MISS:          0
cpu0_ITLB PREFETCH  ACCESS:          0  HIT:          0  MISS:          0
cpu0_ITLB WRITEBACK ACCESS:          0  HIT:          0  MISS:          0
cpu0_L1I TOTAL     ACCESS:      22126  HIT:      22126  MISS:          0
cpu0_L1I LOAD      ACCESS:      22126  HIT:      22126  MISS:          0
cpu0_L1I RFO       ACCESS:          0  HIT:          0  MISS:          0
cpu0_L1I PREFETCH  ACCESS:          0  HIT:          0  MISS:          0
cpu0_L1I WRITEBACK ACCESS:          0  HIT:          0  MISS:          0
cpu0_STLB TOTAL     ACCESS:    1019762  HIT:    1005758  MISS:      14004
cpu0_STLB LOAD      ACCESS:    1016009  HIT:    1002177  MISS:      13832
cpu0_STLB RFO       ACCESS:       3753  HIT:       3581  MISS:        172
cpu0_STLB PREFETCH  ACCESS:          0  HIT:          0  MISS:          0
cpu0_STLB WRITEBACK ACCESS:          0  HIT:          0  MISS:          0
cpu0_L1D TOTAL     ACCESS:    2658166  HIT:     880592  MISS:    1777574
cpu0_L1D LOAD      ACCESS:    2406672  HIT:     634302  MISS:    1772370
cpu0_L1D RFO       ACCESS:     237638  HIT:     233779  MISS:       3859
cpu0_L1D PREFETCH  ACCESS:          0  HIT:          0  MISS:          0
cpu0_L1D WRITEBACK ACCESS:          0  HIT:          0  MISS:          0
cpu0_L2C TOTAL     ACCESS:    1801957  HIT:     242633  MISS:    1559324
cpu0_L2C LOAD      ACCESS:    1772369  HIT:     217206  MISS:    1555163
cpu0_L2C RFO       ACCESS:       3859  HIT:        268  MISS:       3591
cpu0_L2C PREFETCH  ACCESS:          0  HIT:          0  MISS:          0
cpu0_L2C WRITEBACK ACCESS:      24384  HIT:      24384  MISS:          0
LLC TOTAL     ACCESS:    1581582  HIT:     470276  MISS:    1111306
LLC LOAD      ACCESS:    1555163  HIT:     445985  MISS:    1109178
LLC RFO       ACCESS:       3591  HIT:       2144  MISS:       1447
LLC PREFETCH  ACCESS:          0  HIT:          0  MISS:          0
LLC WRITEBACK ACCESS:      22258  HIT:      21888  MISS:        370
Heartbeat CPU 0 instructions: 64000001 cycles: 103756810 heartbeat IPC: 0.161667 cumulative IPC: 0.161976 (Simulation time: 0 hr 48 min 54 sec) 

Region of Interest Statistics
cpu0_DTLB TOTAL     ACCESS:    2888452  HIT:    1698563  MISS:    1189889
cpu0_DTLB LOAD      ACCESS:    2736764  HIT:    1551351  MISS:    1185413
cpu0_DTLB RFO       ACCESS:     151688  HIT:     147212  MISS:       4476
cpu0_DTLB PREFETCH  ACCESS:          0  HIT:          0  MISS:          0
cpu0_DTLB WRITEBACK ACCESS:          0  HIT:          0  MISS:          0
cpu0_ITLB TOTAL     ACCESS:    1246287  HIT:    1246287  MISS:          0
cpu0_ITLB LOAD      ACCESS:    1246287  HIT:    1246287  MISS:          0
cpu0_ITLB RFO       ACCESS:          0  HIT:          0  MISS:          0
cpu0_ITLB PREFETCH  ACCESS:          0  HIT:          0  MISS:          0
cpu0_ITLB WRITEBACK ACCESS:          0  HIT:          0  MISS:          0
cpu0_L1I TOTAL     ACCESS:      26990  HIT:      26990  MISS:          0
cpu0_L1I LOAD      ACCESS:      26990  HIT:      26990  MISS:          0
cpu0_L1I RFO       ACCESS:          0  HIT:          0  MISS:          0
cpu0_L1I PREFETCH  ACCESS:          0  HIT:          0  MISS:          0
cpu0_L1I WRITEBACK ACCESS:          0  HIT:          0  MISS:          0
cpu0_STLB TOTAL     ACCESS:    1189890  HIT:    1173645  MISS:      16245
cpu0_STLB LOAD      ACCESS:    1185414  HIT:    1169371  MISS:      16043
cpu0_STLB RFO       ACCESS:       4476  HIT:       4274  MISS:        202
cpu0_STLB PREFETCH  ACCESS:          0  HIT:          0  MISS:          0
cpu0_STLB WRITEBACK ACCESS:          0  HIT:          0  MISS:          0
cpu0_L1D TOTAL     ACCESS:    3103016  HIT:    1030702  MISS:    2072314
cpu0_L1D LOAD      ACCESS:    2806384  HIT:     740177  MISS:    2066207
cpu0_L1D RFO       ACCESS:     280540  HIT:     275985  MISS:       4555
cpu0_L1D PREFETCH  ACCESS:          0  HIT:          0  MISS:          0
cpu0_L1D WRITEBACK ACCESS:          0  HIT:          0  MISS:          0
cpu0_L2C TOTAL     ACCESS:    2100913  HIT:     282535  MISS:    1818378
cpu0_L2C LOAD      ACCESS:    2066206  HIT:     252710  MISS:    1813496
cpu0_L2C RFO       ACCESS:       4555  HIT:        295  MISS:       4260
cpu0_L2C PREFETCH  ACCESS:          0  HIT:          0  MISS:          0
cpu0_L2C WRITEBACK ACCESS:      28600  HIT:      28600  MISS:          0
LLC TOTAL     ACCESS:    1844449  HIT:     548649  MISS:    1295800
LLC LOAD      ACCESS:    1813496  HIT:     520162  MISS:    1293334
LLC RFO       ACCESS:       4260  HIT:       2577  MISS:       1683
LLC PREFETCH  ACCESS:          0  HIT:          0  MISS:          0
LLC WRITEBACK ACCESS:      26071  HIT:      25633  MISS:        438
Heartbeat CPU 0 instructions: 66000000 cycles: 116477815 heartbeat IPC: 0.15722 cumulative IPC: 0.161366 (Simulation time: 0 hr 52 min 14 sec) 

Region of Interest Statistics
cpu0_DTLB TOTAL     ACCESS:    3299416  HIT:    1935309  MISS:    1364107
cpu0_DTLB LOAD      ACCESS:    3127804  HIT:    1768934  MISS:    1358870
cpu0_DTLB RFO       ACCESS:     171612  HIT:     166375  MISS:       5237
cpu0_DTLB PREFETCH  ACCESS:          0  HIT:          0  MISS:          0
cpu0_DTLB WRITEBACK ACCESS:          0  HIT:          0  MISS:          0
cpu0_ITLB TOTAL     ACCESS:    1420872  HIT:    1420872  MISS:          0
cpu0_ITLB LOAD      ACCESS:    1420872  HIT:    1420872  MISS:          0
cpu0_ITLB RFO       ACCESS:          0  HIT:          0  MISS:          0
cpu0_ITLB PREFETCH  ACCESS:          0  HIT:          0  MISS:          0
cpu0_ITLB WRITEBACK ACCESS:          0  HIT:          0  MISS:          0
cpu0_L1I TOTAL     ACCESS:      31998  HIT:      31998  MISS:          0
cpu0_L1I LOAD      ACCESS:      31998  HIT:      31998  MISS:          0
cpu0_L1I RFO       ACCESS:          0  HIT:          0  MISS:          0
cpu0_L1I PREFETCH  ACCESS:          0  HIT:          0  MISS:          0
cpu0_L1I WRITEBACK ACCESS:          0  HIT:          0  MISS:          0
cpu0_STLB TOTAL     ACCESS:    1364107  HIT:    1345562  MISS:      18545
cpu0_STLB LOAD      ACCESS:    1358870  HIT:    1340550  MISS:      18320
cpu0_STLB RFO       ACCESS:       5237  HIT:       5012  MISS:        225
cpu0_STLB PREFETCH  ACCESS:          0  HIT:          0  MISS:          0
cpu0_STLB WRITEBACK ACCESS:          0  HIT:          0  MISS:          0
cpu0_L1D TOTAL     ACCESS:    3541540  HIT:    1166746  MISS:    2374794
cpu0_L1D LOAD      ACCESS:    3206184  HIT:     838310  MISS:    2367874
cpu0_L1D RFO       ACCESS:     316977  HIT:     311829  MISS:       5148
cpu0_L1D PREFETCH  ACCESS:          0  HIT:          0  MISS:          0
cpu0_L1D WRITEBACK ACCESS:          0  HIT:          0  MISS:          0
cpu0_L2C TOTAL     ACCESS:    2407461  HIT:     323394  MISS:    2084067
cpu0_L2C LOAD      ACCESS:    2367873  HIT:     289325  MISS:    2078548
cpu0_L2C RFO       ACCESS:       5148  HIT:        323  MISS:       4825
cpu0_L2C PREFETCH  ACCESS:          0  HIT:          0  MISS:          0
cpu0_L2C WRITEBACK ACCESS:      32668  HIT:      32668  MISS:          0
LLC TOTAL     ACCESS:    2113792  HIT:     627473  MISS:    1486319
LLC LOAD      ACCESS:    2078548  HIT:     595083  MISS:    1483465
LLC RFO       ACCESS:       4825  HIT:       2859  MISS:       1966
LLC PREFETCH  ACCESS:          0  HIT:          0  MISS:          0
LLC WRITEBACK ACCESS:      29725  HIT:      29222  MISS:        503
Heartbeat CPU 0 instructions: 68000002 cycles: 128541104 heartbeat IPC: 0.165792 cumulative IPC: 0.161846 (Simulation time: 0 hr 55 min 23 sec) 

Region of Interest Statistics
cpu0_DTLB TOTAL     ACCESS:    3710918  HIT:    2179289  MISS:    1531629
cpu0_DTLB LOAD      ACCESS:    3515503  HIT:    1989673  MISS:    1525830
cpu0_DTLB RFO       ACCESS:     195415  HIT:     189616  MISS:       5799
cpu0_DTLB PREFETCH  ACCESS:          0  HIT:          0  MISS:          0
cpu0_DTLB WRITEBACK ACCESS:          0  HIT:          0  MISS:          0
cpu0_ITLB TOTAL     ACCESS:    1600123  HIT:    1600123  MISS:          0
cpu0_ITLB LOAD      ACCESS:    1600123  HIT:    1600123  MISS:          0
cpu0_ITLB RFO       ACCESS:          0  HIT:          0  MISS:          0
cpu0_ITLB PREFETCH  ACCESS:          0  HIT:          0  MISS:          0
cpu0_ITLB WRITEBACK ACCESS:          0  HIT:          0  MISS:          0
cpu0_L1I TOTAL     ACCESS:      36515  HIT:      36515  MISS:          0
cpu0_L1I LOAD      ACCESS:      36515  HIT:      36515  MISS:          0
cpu0_L1I RFO       ACCESS:          0  HIT:          0  MISS:          0
cpu0_L1I PREFETCH  ACCESS:          0  HIT:          0  MISS:          0
cpu0_L1I WRITEBACK ACCESS:          0  HIT:          0  MISS:          0
cpu0_STLB TOTAL     ACCESS:    1531629  HIT:    1510825  MISS:      20804
cpu0_STLB LOAD      ACCESS:    1525830  HIT:    1505285  MISS:      20545
cpu0_STLB RFO       ACCESS:       5799  HIT:       5540  MISS:        259
cpu0_STLB PREFETCH  ACCESS:          0  HIT:          0  MISS:          0
cpu0_STLB WRITEBACK ACCESS:          0  HIT:          0  MISS:          0
cpu0_L1D TOTAL     ACCESS:    3989319  HIT:    1325116  MISS:    2664203
cpu0_L1D LOAD      ACCESS:    3605667  HIT:     949399  MISS:    2656268
cpu0_L1D RFO       ACCESS:     363025  HIT:     357103  MISS:       5922
cpu0_L1D PREFETCH  ACCESS:          0  HIT:          0  MISS:          0
cpu0_L1D WRITEBACK ACCESS:          0  HIT:          0  MISS:          0
cpu0_L2C TOTAL     ACCESS:    2701002  HIT:     362903  MISS:    2338099
cpu0_L2C LOAD      ACCESS:    2656266  HIT:     324481  MISS:    2331785
cpu0_L2C RFO       ACCESS:       5922  HIT:        398  MISS:       5524
cpu0_L2C PREFETCH  ACCESS:          0  HIT:          0  MISS:          0
cpu0_L2C WRITEBACK ACCESS:      36801  HIT:      36801  MISS:          0
LLC TOTAL     ACCESS:    2371397  HIT:     704715  MISS:    1666682
LLC LOAD      ACCESS:    2331785  HIT:     668314  MISS:    1663471
LLC RFO       ACCESS:       5524  HIT:       3300  MISS:       2224
LLC PREFETCH  ACCESS:          0  HIT:          0  MISS:          0
LLC WRITEBACK ACCESS:      33298  HIT:      32727  MISS:        571
Heartbeat CPU 0 instructions: 70000001 cycles: 140651782 heartbeat IPC: 0.165143 cumulative IPC: 0.16217 (Simulation time: 0 hr 58 min 37 sec) 

Region of Interest Statistics
cpu0_DTLB TOTAL     ACCESS:    4126975  HIT:    2427947  MISS:    1699028
cpu0_DTLB LOAD      ACCESS:    3907061  HIT:    2214909  MISS:    1692152
cpu0_DTLB RFO       ACCESS:     219914  HIT:     213038  MISS:       6876
cpu0_DTLB PREFETCH  ACCESS:          0  HIT:          0  MISS:          0
cpu0_DTLB WRITEBACK ACCESS:          0  HIT:          0  MISS:          0
cpu0_ITLB TOTAL     ACCESS:    1778611  HIT:    1778611  MISS:          0
cpu0_ITLB LOAD      ACCESS:    1778611  HIT:    1778611  MISS:          0
cpu0_ITLB RFO       ACCESS:          0  HIT:          0  MISS:          0
cpu0_ITLB PREFETCH  ACCESS:          0  HIT:          0  MISS:          0
cpu0_ITLB WRITEBACK ACCESS:          0  HIT:          0  MISS:          0
cpu0_L1I TOTAL     ACCESS:      41389  HIT:      41389  MISS:          0
cpu0_L1I LOAD      ACCESS:      41389  HIT:      41389  MISS:          0
cpu0_L1I RFO       ACCESS:          0  HIT:          0  MISS:          0
cpu0_L1I PREFETCH  ACCESS:          0  HIT:          0  MISS:          0
cpu0_L1I WRITEBACK ACCESS:          0  HIT:          0  MISS:          0
cpu0_STLB TOTAL     ACCESS:    1699028  HIT:    1675865  MISS:      23163
cpu0_STLB LOAD      ACCESS:    1692152  HIT:    1669277  MISS:      22875
cpu0_STLB RFO       ACCESS:       6876  HIT:       6588  MISS:        288
cpu0_STLB PREFETCH  ACCESS:          0  HIT:          0  MISS:          0
cpu0_STLB WRITEBACK ACCESS:          0  HIT:          0  MISS:          0
cpu0_L1D TOTAL     ACCESS:    4441824  HIT:    1488123  MISS:    2953701
cpu0_L1D LOAD      ACCESS:    4010201  HIT:    1065489  MISS:    2944712
cpu0_L1D RFO       ACCESS:     408649  HIT:     401928  MISS:       6721
cpu0_L1D PREFETCH  ACCESS:          0  HIT:          0  MISS:          0
cpu0_L1D WRITEBACK ACCESS:          0  HIT:          0  MISS:          0
cpu0_L2C TOTAL     ACCESS:    2995491  HIT:     403535  MISS:    2591956
cpu0_L2C LOAD      ACCESS:    2944710  HIT:     359890  MISS:    2584820
cpu0_L2C RFO       ACCESS:       6721  HIT:        468  MISS:       6253
cpu0_L2C PREFETCH  ACCESS:          0  HIT:          0  MISS:          0
cpu0_L2C WRITEBACK ACCESS:      41792  HIT:      41792  MISS:          0
LLC TOTAL     ACCESS:    2629679  HIT:     783662  MISS:    1846017
LLC LOAD      ACCESS:    2584820  HIT:     742390  MISS:    1842430
LLC RFO       ACCESS:       6253  HIT:       3793  MISS:       2460
LLC PREFETCH  ACCESS:          0  HIT:          0  MISS:          0
LLC WRITEBACK ACCESS:      37723  HIT:      37053  MISS:        670
Heartbeat CPU 0 instructions: 72000001 cycles: 152705144 heartbeat IPC: 0.165929 cumulative IPC: 0.162505 (Simulation time: 1 hr 2 min 1 sec) 

Region of Interest Statistics
cpu0_DTLB TOTAL     ACCESS:    4541388  HIT:    2675113  MISS:    1866275
cpu0_DTLB LOAD      ACCESS:    4298212  HIT:    2439451  MISS:    1858761
cpu0_DTLB RFO       ACCESS:     243176  HIT:     235662  MISS:       7514
cpu0_DTLB PREFETCH  ACCESS:          0  HIT:          0  MISS:          0
cpu0_DTLB WRITEBACK ACCESS:          0  HIT:          0  MISS:          0
cpu0_ITLB TOTAL     ACCESS:    1955446  HIT:    1955446  MISS:          0
cpu0_ITLB LOAD      ACCESS:    1955446  HIT:    1955446  MISS:          0
cpu0_ITLB RFO       ACCESS:          0  HIT:          0  MISS:          0
cpu0_ITLB PREFETCH  ACCESS:          0  HIT:          0  MISS:          0
cpu0_ITLB WRITEBACK ACCESS:          0  HIT:          0  MISS:          0
cpu0_L1I TOTAL     ACCESS:      45922  HIT:      45922  MISS:          0
cpu0_L1I LOAD      ACCESS:      45922  HIT:      45922  MISS:          0
cpu0_L1I RFO       ACCESS:          0  HIT:          0  MISS:          0
cpu0_L1I PREFETCH  ACCESS:          0  HIT:          0  MISS:          0
cpu0_L1I WRITEBACK ACCESS:          0  HIT:          0  MISS:          0
cpu0_STLB TOTAL     ACCESS:    1866275  HIT:    1840786  MISS:      25489
cpu0_STLB LOAD      ACCESS:    1858761  HIT:    1833586  MISS:      25175
cpu0_STLB RFO       ACCESS:       7514  HIT:       7200  MISS:        314
cpu0_STLB PREFETCH  ACCESS:          0  HIT:          0  MISS:          0
cpu0_STLB WRITEBACK ACCESS:          0  HIT:          0  MISS:          0
cpu0_L1D TOTAL     ACCESS:    4888971  HIT:    1644624  MISS:    3244347
cpu0_L1D LOAD      ACCESS:    4411408  HIT:    1177001  MISS:    3234407
cpu0_L1D RFO       ACCESS:     452269  HIT:     444806  MISS:       7463
cpu0_L1D PREFETCH  ACCESS:          0  HIT:          0  MISS:          0
cpu0_L1D WRITEBACK ACCESS:          0  HIT:          0  MISS:          0
cpu0_L2C TOTAL     ACCESS:    3290220  HIT:     444389  MISS:    2845831
cpu0_L2C LOAD      ACCESS:    3234405  HIT:     396466  MISS:    2837939
cpu0_L2C RFO       ACCESS:       7463  HIT:        532  MISS:       6931
cpu0_L2C PREFETCH  ACCESS:          0  HIT:          0  MISS:          0
cpu0_L2C WRITEBACK ACCESS:      45875  HIT:      45875  MISS:          0
LLC TOTAL     ACCESS:    2887147  HIT:     860328  MISS:    2026819
LLC LOAD      ACCESS:    2837939  HIT:     815095  MISS:    2022844
LLC RFO       ACCESS:       6931  HIT:       4189  MISS:       2742
LLC PREFETCH  ACCESS:          0  HIT:          0  MISS:          0
LLC WRITEBACK ACCESS:      41316  HIT:      40569  MISS:        747
Heartbeat CPU 0 instructions: 74000000 cycles: 164806130 heartbeat IPC: 0.165276 cumulative IPC: 0.162732 (Simulation time: 1 hr 5 min 12 sec) 

Region of Interest Statistics
cpu0_DTLB TOTAL     ACCESS:    4953961  HIT:    2922263  MISS:    2031698
cpu0_DTLB LOAD      ACCESS:    4685622  HIT:    2662023  MISS:    2023599
cpu0_DTLB RFO       ACCESS:     268339  HIT:     260240  MISS:       8099
cpu0_DTLB PREFETCH  ACCESS:          0  HIT:          0  MISS:          0
cpu0_DTLB WRITEBACK ACCESS:          0  HIT:          0  MISS:          0
cpu0_ITLB TOTAL     ACCESS:    2133917  HIT:    2133917  MISS:          0
cpu0_ITLB LOAD      ACCESS:    2133917  HIT:    2133917  MISS:          0
cpu0_ITLB RFO       ACCESS:          0  HIT:          0  MISS:          0
cpu0_ITLB PREFETCH  ACCESS:          0  HIT:          0  MISS:          0
cpu0_ITLB WRITEBACK ACCESS:          0  HIT:          0  MISS:          0
cpu0_L1I TOTAL     ACCESS:      49786  HIT:      49786  MISS:          0
cpu0_L1I LOAD      ACCESS:      49786  HIT:      49786  MISS:          0
cpu0_L1I RFO       ACCESS:          0  HIT:          0  MISS:          0
cpu0_L1I PREFETCH  ACCESS:          0  HIT:          0  MISS:          0
cpu0_L1I WRITEBACK ACCESS:          0  HIT:          0  MISS:          0
cpu0_STLB TOTAL     ACCESS:    2031698  HIT:    2003800  MISS:      27898
cpu0_STLB LOAD      ACCESS:    2023599  HIT:    1996049  MISS:      27550
cpu0_STLB RFO       ACCESS:       8099  HIT:       7751  MISS:        348
cpu0_STLB PREFETCH  ACCESS:          0  HIT:          0  MISS:          0
cpu0_STLB WRITEBACK ACCESS:          0  HIT:          0  MISS:          0
cpu0_L1D TOTAL     ACCESS:    5339120  HIT:    1807422  MISS:    3531698
cpu0_L1D LOAD      ACCESS:    4811019  HIT:    1290301  MISS:    3520718
cpu0_L1D RFO       ACCESS:     500408  HIT:     492111  MISS:       8297
cpu0_L1D PREFETCH  ACCESS:          0  HIT:          0  MISS:          0
cpu0_L1D WRITEBACK ACCESS:          0  HIT:          0  MISS:          0
cpu0_L2C TOTAL     ACCESS:    3582005  HIT:     484260  MISS:    3097745
cpu0_L2C LOAD      ACCESS:    3520716  HIT:     431669  MISS:    3089047
cpu0_L2C RFO       ACCESS:       8297  HIT:        621  MISS:       7676
cpu0_L2C PREFETCH  ACCESS:          0  HIT:          0  MISS:          0
cpu0_L2C WRITEBACK ACCESS:      50309  HIT:      50309  MISS:          0
LLC TOTAL     ACCESS:    3142961  HIT:     937286  MISS:    2205675
LLC LOAD      ACCESS:    3089047  HIT:     887748  MISS:    2201299
LLC RFO       ACCESS:       7676  HIT:       4661  MISS:       3015
LLC PREFETCH  ACCESS:          0  HIT:          0  MISS:          0
LLC WRITEBACK ACCESS:      45216  HIT:      44367  MISS:        849
Heartbeat CPU 0 instructions: 76000001 cycles: 177249691 heartbeat IPC: 0.160726 cumulative IPC: 0.162576 (Simulation time: 1 hr 8 min 33 sec) 

Region of Interest Statistics
cpu0_DTLB TOTAL     ACCESS:    5369356  HIT:    3167993  MISS:    2201363
cpu0_DTLB LOAD      ACCESS:    5078344  HIT:    2885801  MISS:    2192543
cpu0_DTLB RFO       ACCESS:     291012  HIT:     282192  MISS:       8820
cpu0_DTLB PREFETCH  ACCESS:          0  HIT:          0  MISS:          0
cpu0_DTLB WRITEBACK ACCESS:          0  HIT:          0  MISS:          0
cpu0_ITLB TOTAL     ACCESS:    2308970  HIT:    2308970  MISS:          0
cpu0_ITLB LOAD      ACCESS:    2308970  HIT:    2308970  MISS:          0
cpu0_ITLB RFO       ACCESS:          0  HIT:          0  MISS:          0
cpu0_ITLB PREFETCH  ACCESS:          0  HIT:          0  MISS:          0
cpu0_ITLB WRITEBACK ACCESS:          0  HIT:          0  MISS:          0
cpu0_L1I TOTAL     ACCESS:      55695  HIT:      55695  MISS:          0
cpu0_L1I LOAD      ACCESS:      55695  HIT:      55695  MISS:          0
cpu0_L1I RFO       ACCESS:          0  HIT:          0  MISS:          0
cpu0_L1I PREFETCH  ACCESS:          0  HIT:          0  MISS:          0
cpu0_L1I WRITEBACK ACCESS:          0  HIT:          0  MISS:          0
cpu0_STLB TOTAL     ACCESS:    2201363  HIT:    2171243  MISS:      30120
cpu0_STLB LOAD      ACCESS:    2192543  HIT:    2162808  MISS:      29735
cpu0_STLB RFO       ACCESS:       8820  HIT:       8435  MISS:        385
cpu0_STLB PREFETCH  ACCESS:          0  HIT:          0  MISS:          0
cpu0_STLB WRITEBACK ACCESS:          0  HIT:          0  MISS:          0
cpu0_L1D TOTAL     ACCESS:    5785700  HIT:    1959031  MISS:    3826669
cpu0_L1D LOAD      ACCESS:    5214362  HIT:    1399622  MISS:    3814740
cpu0_L1D RFO       ACCESS:     541437  HIT:     532397  MISS:       9040
cpu0_L1D PREFETCH  ACCESS:          0  HIT:          0  MISS:          0
cpu0_L1D WRITEBACK ACCESS:          0  HIT:          0  MISS:          0
cpu0_L2C TOTAL     ACCESS:    3881662  HIT:     525596  MISS:    3356066
cpu0_L2C LOAD      ACCESS:    3814738  HIT:     468129  MISS:    3346609
cpu0_L2C RFO       ACCESS:       9040  HIT:        680  MISS:       8360
cpu0_L2C PREFETCH  ACCESS:          0  HIT:          0  MISS:          0
cpu0_L2C WRITEBACK ACCESS:      54995  HIT:      54995  MISS:          0
LLC TOTAL     ACCESS:    3405300  HIT:    1015344  MISS:    2389956
LLC LOAD      ACCESS:    3346609  HIT:     961480  MISS:    2385129
LLC RFO       ACCESS:       8360  HIT:       5031  MISS:       3329
LLC PREFETCH  ACCESS:          0  HIT:          0  MISS:          0
LLC WRITEBACK ACCESS:      49234  HIT:      48287  MISS:        947
Heartbeat CPU 0 instructions: 78000001 cycles: 189699442 heartbeat IPC: 0.160646 cumulative IPC: 0.162437 (Simulation time: 1 hr 11 min 50 sec) 

Region of Interest Statistics
cpu0_DTLB TOTAL     ACCESS:    5785192  HIT:    3413898  MISS:    2371294
cpu0_DTLB LOAD      ACCESS:    5471994  HIT:    3110272  MISS:    2361722
cpu0_DTLB RFO       ACCESS:     313198  HIT:     303626  MISS:       9572
cpu0_DTLB PREFETCH  ACCESS:          0  HIT:          0  MISS:          0
cpu0_DTLB WRITEBACK ACCESS:          0  HIT:          0  MISS:          0
cpu0_ITLB TOTAL     ACCESS:    2485163  HIT:    2485163  MISS:          0
cpu0_ITLB LOAD      ACCESS:    2485163  HIT:    2485163  MISS:          0
cpu0_ITLB RFO       ACCESS:          0  HIT:          0  MISS:          0
cpu0_ITLB PREFETCH  ACCESS:          0  HIT:          0  MISS:          0
cpu0_ITLB WRITEBACK ACCESS:          0  HIT:          0  MISS:          0
cpu0_L1I TOTAL     ACCESS:      62575  HIT:      62575  MISS:          0
cpu0_L1I LOAD      ACCESS:      62575  HIT:      62575  MISS:          0
cpu0_L1I RFO       ACCESS:          0  HIT:          0  MISS:          0
cpu0_L1I PREFETCH  ACCESS:          0  HIT:          0  MISS:          0
cpu0_L1I WRITEBACK ACCESS:          0  HIT:          0  MISS:          0
cpu0_STLB TOTAL     ACCESS:    2371294  HIT:    2338966  MISS:      32328
cpu0_STLB LOAD      ACCESS:    2361722  HIT:    2329820  MISS:      31902
cpu0_STLB RFO       ACCESS:       9572  HIT:       9146  MISS:        426
cpu0_STLB PREFETCH  ACCESS:          0  HIT:          0  MISS:          0
cpu0_STLB WRITEBACK ACCESS:          0  HIT:          0  MISS:          0
cpu0_L1D TOTAL     ACCESS:    6232451  HIT:    2108941  MISS:    4123510
cpu0_L1D LOAD      ACCESS:    5620617  HIT:    1509962  MISS:    4110655
cpu0_L1D RFO       ACCESS:     579728  HIT:     569965  MISS:       9763
cpu0_L1D PREFETCH  ACCESS:          0  HIT:          0  MISS:          0
cpu0_L1D WRITEBACK ACCESS:          0  HIT:          0  MISS:          0
cpu0_L2C TOTAL     ACCESS:    4183594  HIT:     567241  MISS:    3616353
cpu0_L2C LOAD      ACCESS:    4110653  HIT:     504476  MISS:    3606177
cpu0_L2C RFO       ACCESS:       9763  HIT:        752  MISS:       9011
cpu0_L2C PREFETCH  ACCESS:          0  HIT:          0  MISS:          0
cpu0_L2C WRITEBACK ACCESS:      60086  HIT:      60086  MISS:          0
LLC TOTAL     ACCESS:    3670223  HIT:    1095742  MISS:    2574481
LLC LOAD      ACCESS:    3606177  HIT:    1036962  MISS:    2569215
LLC RFO       ACCESS:       9011  HIT:       5419  MISS:       3592
LLC PREFETCH  ACCESS:          0  HIT:          0  MISS:          0
LLC WRITEBACK ACCESS:      53870  HIT:      52786  MISS:       1084
Heartbeat CPU 0 instructions: 80000002 cycles: 202285558 heartbeat IPC: 0.158905 cumulative IPC: 0.162196 (Simulation time: 1 hr 15 min 2 sec) 

Region of Interest Statistics
cpu0_DTLB TOTAL     ACCESS:    6203606  HIT:    3661449  MISS:    2542157
cpu0_DTLB LOAD      ACCESS:    5868313  HIT:    3337011  MISS:    2531302
cpu0_DTLB RFO       ACCESS:     335293  HIT:     324438  MISS:      10855
cpu0_DTLB PREFETCH  ACCESS:          0  HIT:          0  MISS:          0
cpu0_DTLB WRITEBACK ACCESS:          0  HIT:          0  MISS:          0
cpu0_ITLB TOTAL     ACCESS:    2660969  HIT:    2660969  MISS:          0
cpu0_ITLB LOAD      ACCESS:    2660969  HIT:    2660969  MISS:          0
cpu0_ITLB RFO       ACCESS:          0  HIT:          0  MISS:          0
cpu0_ITLB PREFETCH  ACCESS:          0  HIT:          0  MISS:          0
cpu0_ITLB WRITEBACK ACCESS:          0  HIT:          0  MISS:          0
cpu0_L1I TOTAL     ACCESS:      69807  HIT:      69807  MISS:          0
cpu0_L1I LOAD      ACCESS:      69807  HIT:      69807  MISS:          0
cpu0_L1I RFO       ACCESS:          0  HIT:          0  MISS:          0
cpu0_L1I PREFETCH  ACCESS:          0  HIT:          0  MISS:          0
cpu0_L1I WRITEBACK ACCESS:          0  HIT:          0  MISS:          0
cpu0_STLB TOTAL     ACCESS:    2542157  HIT:    2507686  MISS:      34471
cpu0_STLB LOAD      ACCESS:    2531302  HIT:    2497301  MISS:      34001
cpu0_STLB RFO       ACCESS:      10855  HIT:      10385  MISS:        470
cpu0_STLB PREFETCH  ACCESS:          0  HIT:          0  MISS:          0
cpu0_STLB WRITEBACK ACCESS:          0  HIT:          0  MISS:          0
cpu0_L1D TOTAL     ACCESS:    6682660  HIT:    2260835  MISS:    4421825
cpu0_L1D LOAD      ACCESS:    6031321  HIT:    1623217  MISS:    4408104
cpu0_L1D RFO       ACCESS:     617098  HIT:     606665  MISS:      10433
cpu0_L1D PREFETCH  ACCESS:          0  HIT:          0  MISS:          0
cpu0_L1D WRITEBACK ACCESS:          0  HIT:          0  MISS:          0
cpu0_L2C TOTAL     ACCESS:    4487645  HIT:     609938  MISS:    3877707
cpu0_L2C LOAD      ACCESS:    4408101  HIT:     541230  MISS:    3866871
cpu0_L2C RFO       ACCESS:      10433  HIT:        832  MISS:       9601
cpu0_L2C PREFETCH  ACCESS:          0  HIT:          0  MISS:          0
cpu0_L2C WRITEBACK ACCESS:      65823  HIT:      65823  MISS:          0
LLC TOTAL     ACCESS:    3936518  HIT:    1177401  MISS:    2759117
LLC LOAD      ACCESS:    3866871  HIT:    1113401  MISS:    2753470
LLC RFO       ACCESS:       9601  HIT:       5780  MISS:       3821
LLC PREFETCH  ACCESS:          0  HIT:          0  MISS:          0
LLC WRITEBACK ACCESS:      58811  HIT:      57620  MISS:       1191
Heartbeat CPU 0 instructions: 82000004 cycles: 214789951 heartbeat IPC: 0.159944 cumulative IPC: 0.162054 (Simulation time: 1 hr 18 min 22 sec) 

Region of Interest Statistics
cpu0_DTLB TOTAL     ACCESS:    6618019  HIT:    3902827  MISS:    2715192
cpu0_DTLB LOAD      ACCESS:    6262133  HIT:    3558787  MISS:    2703346
cpu0_DTLB RFO       ACCESS:     355886  HIT:     344040  MISS:      11846
cpu0_DTLB PREFETCH  ACCESS:          0  HIT:          0  MISS:          0
cpu0_DTLB WRITEBACK ACCESS:          0  HIT:          0  MISS:          0
cpu0_ITLB TOTAL     ACCESS:    2836410  HIT:    2836410  MISS:          0
cpu0_ITLB LOAD      ACCESS:    2836410  HIT:    2836410  MISS:          0
cpu0_ITLB RFO       ACCESS:          0  HIT:          0  MISS:          0
cpu0_ITLB PREFETCH  ACCESS:          0  HIT:          0  MISS:          0
cpu0_ITLB WRITEBACK ACCESS:          0  HIT:          0  MISS:          0
cpu0_L1I TOTAL     ACCESS:      76912  HIT:      76912  MISS:          0
cpu0_L1I LOAD      ACCESS:      76912  HIT:      76912  MISS:          0
cpu0_L1I RFO       ACCESS:          0  HIT:          0  MISS:          0
cpu0_L1I PREFETCH  ACCESS:          0  HIT:          0  MISS:          0
cpu0_L1I WRITEBACK ACCESS:          0  HIT:          0  MISS:          0
cpu0_STLB TOTAL     ACCESS:    2715192  HIT:    2678669  MISS:      36523
cpu0_STLB LOAD      ACCESS:    2703346  HIT:    2667320  MISS:      36026
cpu0_STLB RFO       ACCESS:      11846  HIT:      11349  MISS:        497
cpu0_STLB PREFETCH  ACCESS:          0  HIT:          0  MISS:          0
cpu0_STLB WRITEBACK ACCESS:          0  HIT:          0  MISS:          0
cpu0_L1D TOTAL     ACCESS:    7126812  HIT:    2403930  MISS:    4722882
cpu0_L1D LOAD      ACCESS:    6438067  HIT:    1729690  MISS:    4708377
cpu0_L1D RFO       ACCESS:     652461  HIT:     641430  MISS:      11031
cpu0_L1D PREFETCH  ACCESS:          0  HIT:          0  MISS:          0
cpu0_L1D WRITEBACK ACCESS:          0  HIT:          0  MISS:          0
cpu0_L2C TOTAL     ACCESS:    4793768  HIT:     653053  MISS:    4140715
cpu0_L2C LOAD      ACCESS:    4708374  HIT:     579116  MISS:    4129258
cpu0_L2C RFO       ACCESS:      11031  HIT:        891  MISS:      10140
cpu0_L2C PREFETCH  ACCESS:          0  HIT:          0  MISS:          0
cpu0_L2C WRITEBACK ACCESS:      70889  HIT:      70889  MISS:          0
LLC TOTAL     ACCESS:    4204058  HIT:    1259206  MISS:    2944852
LLC LOAD      ACCESS:    4129258  HIT:    1190471  MISS:    2938787
LLC RFO       ACCESS:      10140  HIT:       6072  MISS:       4068
LLC PREFETCH  ACCESS:          0  HIT:          0  MISS:          0
LLC WRITEBACK ACCESS:      63343  HIT:      62027  MISS:       1316
Heartbeat CPU 0 instructions: 84000001 cycles: 228007001 heartbeat IPC: 0.151319 cumulative IPC: 0.16138 (Simulation time: 1 hr 21 min 53 sec) 

Region of Interest Statistics
cpu0_DTLB TOTAL     ACCESS:    7028284  HIT:    4132171  MISS:    2896113
cpu0_DTLB LOAD      ACCESS:    6655534  HIT:    3771974  MISS:    2883560
cpu0_DTLB RFO       ACCESS:     372750  HIT:     360197  MISS:      12553
cpu0_DTLB PREFETCH  ACCESS:          0  HIT:          0  MISS:          0
cpu0_DTLB WRITEBACK ACCESS:          0  HIT:          0  MISS:          0
cpu0_ITLB TOTAL     ACCESS:    3005633  HIT:    3005633  MISS:          0
cpu0_ITLB LOAD      ACCESS:    3005633  HIT:    3005633  MISS:          0
cpu0_ITLB RFO       ACCESS:          0  HIT:          0  MISS:          0
cpu0_ITLB PREFETCH  ACCESS:          0  HIT:          0  MISS:          0
cpu0_ITLB WRITEBACK ACCESS:          0  HIT:          0  MISS:          0
cpu0_L1I TOTAL     ACCESS:      84115  HIT:      84115  MISS:          0
cpu0_L1I LOAD      ACCESS:      84115  HIT:      84115  MISS:          0
cpu0_L1I RFO       ACCESS:          0  HIT:          0  MISS:          0
cpu0_L1I PREFETCH  ACCESS:          0  HIT:          0  MISS:          0
cpu0_L1I WRITEBACK ACCESS:          0  HIT:          0  MISS:          0
cpu0_STLB TOTAL     ACCESS:    2896113  HIT:    2857409  MISS:      38704
cpu0_STLB LOAD      ACCESS:    2883560  HIT:    2845378  MISS:      38182
cpu0_STLB RFO       ACCESS:      12553  HIT:      12031  MISS:        522
cpu0_STLB PREFETCH  ACCESS:          0  HIT:          0  MISS:          0
cpu0_STLB WRITEBACK ACCESS:          0  HIT:          0  MISS:          0
cpu0_L1D TOTAL     ACCESS:    7559221  HIT:    2520419  MISS:    5038802
cpu0_L1D LOAD      ACCESS:    6840129  HIT:    1816488  MISS:    5023641
cpu0_L1D RFO       ACCESS:     680634  HIT:     669122  MISS:      11512
cpu0_L1D PREFETCH  ACCESS:          0  HIT:          0  MISS:          0
cpu0_L1D WRITEBACK ACCESS:          0  HIT:          0  MISS:          0
cpu0_L2C TOTAL     ACCESS:    5114300  HIT:     696893  MISS:    4417407
cpu0_L2C LOAD      ACCESS:    5023638  HIT:     618204  MISS:    4405434
cpu0_L2C RFO       ACCESS:      11512  HIT:        928  MISS:      10584
cpu0_L2C PREFETCH  ACCESS:          0  HIT:          0  MISS:          0
cpu0_L2C WRITEBACK ACCESS:      75501  HIT:      75501  MISS:          0
LLC TOTAL     ACCESS:    4484819  HIT:    1342248  MISS:    3142571
LLC LOAD      ACCESS:    4405432  HIT:    1269263  MISS:    3136169
LLC RFO       ACCESS:      10584  HIT:       6290  MISS:       4294
LLC PREFETCH  ACCESS:          0  HIT:          0  MISS:          0
LLC WRITEBACK ACCESS:      67414  HIT:      66031  MISS:       1383
Heartbeat CPU 0 instructions: 86000000 cycles: 242224464 heartbeat IPC: 0.140672 cumulative IPC: 0.160071 (Simulation time: 1 hr 25 min 18 sec) 

Region of Interest Statistics
cpu0_DTLB TOTAL     ACCESS:    7447054  HIT:    4387845  MISS:    3059209
cpu0_DTLB LOAD      ACCESS:    7043014  HIT:    3999493  MISS:    3043521
cpu0_DTLB RFO       ACCESS:     404040  HIT:     388352  MISS:      15688
cpu0_DTLB PREFETCH  ACCESS:          0  HIT:          0  MISS:          0
cpu0_DTLB WRITEBACK ACCESS:          0  HIT:          0  MISS:          0
cpu0_ITLB TOTAL     ACCESS:    3191963  HIT:    3191963  MISS:          0
cpu0_ITLB LOAD      ACCESS:    3191963  HIT:    3191963  MISS:          0
cpu0_ITLB RFO       ACCESS:          0  HIT:          0  MISS:          0
cpu0_ITLB PREFETCH  ACCESS:          0  HIT:          0  MISS:          0
cpu0_ITLB WRITEBACK ACCESS:          0  HIT:          0  MISS:          0
cpu0_L1I TOTAL     ACCESS:      87050  HIT:      87050  MISS:          0
cpu0_L1I LOAD      ACCESS:      87050  HIT:      87050  MISS:          0
cpu0_L1I RFO       ACCESS:          0  HIT:          0  MISS:          0
cpu0_L1I PREFETCH  ACCESS:          0  HIT:          0  MISS:          0
cpu0_L1I WRITEBACK ACCESS:          0  HIT:          0  MISS:          0
cpu0_STLB TOTAL     ACCESS:    3059209  HIT:    3018460  MISS:      40749
cpu0_STLB LOAD      ACCESS:    3043521  HIT:    3003325  MISS:      40196
cpu0_STLB RFO       ACCESS:      15688  HIT:      15135  MISS:        553
cpu0_STLB PREFETCH  ACCESS:          0  HIT:          0  MISS:          0
cpu0_STLB WRITEBACK ACCESS:          0  HIT:          0  MISS:          0
cpu0_L1D TOTAL     ACCESS:    8021076  HIT:    2691100  MISS:    5329976
cpu0_L1D LOAD      ACCESS:    7247916  HIT:    1934449  MISS:    5313467
cpu0_L1D RFO       ACCESS:     732663  HIT:     719997  MISS:      12666
cpu0_L1D PREFETCH  ACCESS:          0  HIT:          0  MISS:          0
cpu0_L1D WRITEBACK ACCESS:          0  HIT:          0  MISS:          0
cpu0_L2C TOTAL     ACCESS:    5417496  HIT:     745058  MISS:    4672438
cpu0_L2C LOAD      ACCESS:    5313464  HIT:     653994  MISS:    4659470
cpu0_L2C RFO       ACCESS:      12666  HIT:       1153  MISS:      11513
cpu0_L2C PREFETCH  ACCESS:          0  HIT:          0  MISS:          0
cpu0_L2C WRITEBACK ACCESS:      87523  HIT:      87523  MISS:          0
LLC TOTAL     ACCESS:    4751236  HIT:    1423087  MISS:    3328149
LLC LOAD      ACCESS:    4659468  HIT:    1338427  MISS:    3321041
LLC RFO       ACCESS:      11513  HIT:       6879  MISS:       4634
LLC PREFETCH  ACCESS:          0  HIT:          0  MISS:          0
LLC WRITEBACK ACCESS:      78800  HIT:      77088  MISS:       1712
Heartbeat CPU 0 instructions: 88000000 cycles: 256131327 heartbeat IPC: 0.143814 cumulative IPC: 0.159124 (Simulation time: 1 hr 28 min 47 sec) 

Region of Interest Statistics
cpu0_DTLB TOTAL     ACCESS:    7845012  HIT:    4596228  MISS:    3248784
cpu0_DTLB LOAD      ACCESS:    7430972  HIT:    4198579  MISS:    3232393
cpu0_DTLB RFO       ACCESS:     414040  HIT:     397649  MISS:      16391
cpu0_DTLB PREFETCH  ACCESS:          0  HIT:          0  MISS:          0
cpu0_DTLB WRITEBACK ACCESS:          0  HIT:          0  MISS:          0
cpu0_ITLB TOTAL     ACCESS:    3360141  HIT:    3360141  MISS:          0
cpu0_ITLB LOAD      ACCESS:    3360141  HIT:    3360141  MISS:          0
cpu0_ITLB RFO       ACCESS:          0  HIT:          0  MISS:          0
cpu0_ITLB PREFETCH  ACCESS:          0  HIT:          0  MISS:          0
cpu0_ITLB WRITEBACK ACCESS:          0  HIT:          0  MISS:          0
cpu0_L1I TOTAL     ACCESS:      89002  HIT:      89002  MISS:          0
cpu0_L1I LOAD      ACCESS:      89002  HIT:      89002  MISS:          0
cpu0_L1I RFO       ACCESS:          0  HIT:          0  MISS:          0
cpu0_L1I PREFETCH  ACCESS:          0  HIT:          0  MISS:          0
cpu0_L1I WRITEBACK ACCESS:          0  HIT:          0  MISS:          0
cpu0_STLB TOTAL     ACCESS:    3248784  HIT:    3205607  MISS:      43177
cpu0_STLB LOAD      ACCESS:    3232393  HIT:    3189815  MISS:      42578
cpu0_STLB RFO       ACCESS:      16391  HIT:      15792  MISS:        599
cpu0_STLB PREFETCH  ACCESS:          0  HIT:          0  MISS:          0
cpu0_STLB WRITEBACK ACCESS:          0  HIT:          0  MISS:          0
cpu0_L1D TOTAL     ACCESS:    8430113  HIT:    2765319  MISS:    5664794
cpu0_L1D LOAD      ACCESS:    7637397  HIT:    1989665  MISS:    5647732
cpu0_L1D RFO       ACCESS:     749796  HIT:     736721  MISS:      13075
cpu0_L1D PREFETCH  ACCESS:          0  HIT:          0  MISS:          0
cpu0_L1D WRITEBACK ACCESS:          0  HIT:          0  MISS:          0
cpu0_L2C TOTAL     ACCESS:    5755182  HIT:     790034  MISS:    4965148
cpu0_L2C LOAD      ACCESS:    5647729  HIT:     695964  MISS:    4951765
cpu0_L2C RFO       ACCESS:      13075  HIT:       1192  MISS:      11883
cpu0_L2C PREFETCH  ACCESS:          0  HIT:          0  MISS:          0
cpu0_L2C WRITEBACK ACCESS:      90391  HIT:      90391  MISS:          0
LLC TOTAL     ACCESS:    5046365  HIT:    1508517  MISS:    3537848
LLC LOAD      ACCESS:    4951763  HIT:    1421346  MISS:    3530417
LLC RFO       ACCESS:      11883  HIT:       7018  MISS:       4865
LLC PREFETCH  ACCESS:          0  HIT:          0  MISS:          0
LLC WRITEBACK ACCESS:      81219  HIT:      79441  MISS:       1778
Heartbeat CPU 0 instructions: 90000000 cycles: 268866942 heartbeat IPC: 0.15704 cumulative IPC: 0.159019 (Simulation time: 1 hr 31 min 57 sec) 

Region of Interest Statistics
cpu0_DTLB TOTAL     ACCESS:    8259427  HIT:    4842117  MISS:    3417310
cpu0_DTLB LOAD      ACCESS:    7821847  HIT:    4421941  MISS:    3399906
cpu0_DTLB RFO       ACCESS:     437580  HIT:     420176  MISS:      17404
cpu0_DTLB PREFETCH  ACCESS:          0  HIT:          0  MISS:          0
cpu0_DTLB WRITEBACK ACCESS:          0  HIT:          0  MISS:          0
cpu0_ITLB TOTAL     ACCESS:    3540050  HIT:    3540050  MISS:          0
cpu0_ITLB LOAD      ACCESS:    3540050  HIT:    3540050  MISS:          0
cpu0_ITLB RFO       ACCESS:          0  HIT:          0  MISS:          0
cpu0_ITLB PREFETCH  ACCESS:          0  HIT:          0  MISS:          0
cpu0_ITLB WRITEBACK ACCESS:          0  HIT:          0  MISS:          0
cpu0_L1I TOTAL     ACCESS:      93684  HIT:      93684  MISS:          0
cpu0_L1I LOAD      ACCESS:      93684  HIT:      93684  MISS:          0
cpu0_L1I RFO       ACCESS:          0  HIT:          0  MISS:          0
cpu0_L1I PREFETCH  ACCESS:          0  HIT:          0  MISS:          0
cpu0_L1I WRITEBACK ACCESS:          0  HIT:          0  MISS:          0
cpu0_STLB TOTAL     ACCESS:    3417310  HIT:    3371591  MISS:      45719
cpu0_STLB LOAD      ACCESS:    3399906  HIT:    3354813  MISS:      45093
cpu0_STLB RFO       ACCESS:      17404  HIT:      16778  MISS:        626
cpu0_STLB PREFETCH  ACCESS:          0  HIT:          0  MISS:          0
cpu0_STLB WRITEBACK ACCESS:          0  HIT:          0  MISS:          0
cpu0_L1D TOTAL     ACCESS:    8880523  HIT:    2922076  MISS:    5958447
cpu0_L1D LOAD      ACCESS:    8042716  HIT:    2102321  MISS:    5940395
cpu0_L1D RFO       ACCESS:     792364  HIT:     778495  MISS:      13869
cpu0_L1D PREFETCH  ACCESS:          0  HIT:          0  MISS:          0
cpu0_L1D WRITEBACK ACCESS:          0  HIT:          0  MISS:          0
cpu0_L2C TOTAL     ACCESS:    6054134  HIT:     831269  MISS:    5222865
cpu0_L2C LOAD      ACCESS:    5940391  HIT:     731690  MISS:    5208701
cpu0_L2C RFO       ACCESS:      13869  HIT:       1271  MISS:      12598
cpu0_L2C PREFETCH  ACCESS:          0  HIT:          0  MISS:          0
cpu0_L2C WRITEBACK ACCESS:      95691  HIT:      95691  MISS:          0
LLC TOTAL     ACCESS:    5308840  HIT:    1588038  MISS:    3720802
LLC LOAD      ACCESS:    5208699  HIT:    1495752  MISS:    3712947
LLC RFO       ACCESS:      12598  HIT:       7447  MISS:       5151
LLC PREFETCH  ACCESS:          0  HIT:          0  MISS:          0
LLC WRITEBACK ACCESS:      85977  HIT:      84093  MISS:       1884
Heartbeat CPU 0 instructions: 92000000 cycles: 287121202 heartbeat IPC: 0.109563 cumulative IPC: 0.155673 (Simulation time: 1 hr 35 min 42 sec) 

Region of Interest Statistics
cpu0_DTLB TOTAL     ACCESS:    8687018  HIT:    5116573  MISS:    3570445
cpu0_DTLB LOAD      ACCESS:    8206096  HIT:    4660532  MISS:    3545564
cpu0_DTLB RFO       ACCESS:     480922  HIT:     456041  MISS:      24881
cpu0_DTLB PREFETCH  ACCESS:          0  HIT:          0  MISS:          0
cpu0_DTLB WRITEBACK ACCESS:          0  HIT:          0  MISS:          0
cpu0_ITLB TOTAL     ACCESS:    3734156  HIT:    3734156  MISS:          0
cpu0_ITLB LOAD      ACCESS:    3734156  HIT:    3734156  MISS:          0
cpu0_ITLB RFO       ACCESS:          0  HIT:          0  MISS:          0
cpu0_ITLB PREFETCH  ACCESS:          0  HIT:          0  MISS:          0
cpu0_ITLB WRITEBACK ACCESS:          0  HIT:          0  MISS:          0
cpu0_L1I TOTAL     ACCESS:      97748  HIT:      97748  MISS:          0
cpu0_L1I LOAD      ACCESS:      97748  HIT:      97748  MISS:          0
cpu0_L1I RFO       ACCESS:          0  HIT:          0  MISS:          0
cpu0_L1I PREFETCH  ACCESS:          0  HIT:          0  MISS:          0
cpu0_L1I WRITEBACK ACCESS:          0  HIT:          0  MISS:          0
cpu0_STLB TOTAL     ACCESS:    3570445  HIT:    3522692  MISS:      47753
cpu0_STLB LOAD      ACCESS:    3545564  HIT:    3498471  MISS:      47093
cpu0_STLB RFO       ACCESS:      24881  HIT:      24221  MISS:        660
cpu0_STLB PREFETCH  ACCESS:          0  HIT:          0  MISS:          0
cpu0_STLB WRITEBACK ACCESS:          0  HIT:          0  MISS:          0
cpu0_L1D TOTAL     ACCESS:    9357775  HIT:    3113346  MISS:    6244429
cpu0_L1D LOAD      ACCESS:    8456280  HIT:    2230852  MISS:    6225428
cpu0_L1D RFO       ACCESS:     854033  HIT:     839384  MISS:      14649
cpu0_L1D PREFETCH  ACCESS:          0  HIT:          0  MISS:          0
cpu0_L1D WRITEBACK ACCESS:          0  HIT:          0  MISS:          0
cpu0_L2C TOTAL     ACCESS:    6366033  HIT:     889028  MISS:    5477005
cpu0_L2C LOAD      ACCESS:    6225423  HIT:     763326  MISS:    5462097
cpu0_L2C RFO       ACCESS:      14649  HIT:       1369  MISS:      13280
cpu0_L2C PREFETCH  ACCESS:          0  HIT:          0  MISS:          0
cpu0_L2C WRITEBACK ACCESS:     121609  HIT:     121609  MISS:          0
LLC TOTAL     ACCESS:    5588028  HIT:    1676951  MISS:    3911077
LLC LOAD      ACCESS:    5462095  HIT:    1559367  MISS:    3902728
LLC RFO       ACCESS:      13280  HIT:       7882  MISS:       5398
LLC PREFETCH  ACCESS:          0  HIT:          0  MISS:          0
LLC WRITEBACK ACCESS:     111025  HIT:     108921  MISS:       2104
Heartbeat CPU 0 instructions: 94000001 cycles: 300533847 heartbeat IPC: 0.149113 cumulative IPC: 0.155362 (Simulation time: 1 hr 39 min 1 sec) 

Region of Interest Statistics
cpu0_DTLB TOTAL     ACCESS:    9100292  HIT:    5362133  MISS:    3738159
cpu0_DTLB LOAD      ACCESS:    8594310  HIT:    4882487  MISS:    3711823
cpu0_DTLB RFO       ACCESS:     505982  HIT:     479646  MISS:      26336
cpu0_DTLB PREFETCH  ACCESS:          0  HIT:          0  MISS:          0
cpu0_DTLB WRITEBACK ACCESS:          0  HIT:          0  MISS:          0
cpu0_ITLB TOTAL     ACCESS:    3914094  HIT:    3914094  MISS:          0
cpu0_ITLB LOAD      ACCESS:    3914094  HIT:    3914094  MISS:          0
cpu0_ITLB RFO       ACCESS:          0  HIT:          0  MISS:          0
cpu0_ITLB PREFETCH  ACCESS:          0  HIT:          0  MISS:          0
cpu0_ITLB WRITEBACK ACCESS:          0  HIT:          0  MISS:          0
cpu0_L1I TOTAL     ACCESS:     102088  HIT:     102088  MISS:          0
cpu0_L1I LOAD      ACCESS:     102088  HIT:     102088  MISS:          0
cpu0_L1I RFO       ACCESS:          0  HIT:          0  MISS:          0
cpu0_L1I PREFETCH  ACCESS:          0  HIT:          0  MISS:          0
cpu0_L1I WRITEBACK ACCESS:          0  HIT:          0  MISS:          0
cpu0_STLB TOTAL     ACCESS:    3738159  HIT:    3688049  MISS:      50110
cpu0_STLB LOAD      ACCESS:    3711823  HIT:    3662409  MISS:      49414
cpu0_STLB RFO       ACCESS:      26336  HIT:      25640  MISS:        696
cpu0_STLB PREFETCH  ACCESS:          0  HIT:          0  MISS:          0
cpu0_STLB WRITEBACK ACCESS:          0  HIT:          0  MISS:          0
cpu0_L1D TOTAL     ACCESS:    9807635  HIT:    3267723  MISS:    6539912
cpu0_L1D LOAD      ACCESS:    8860349  HIT:    2340369  MISS:    6519980
cpu0_L1D RFO       ACCESS:     897480  HIT:     882105  MISS:      15375
cpu0_L1D PREFETCH  ACCESS:          0  HIT:          0  MISS:          0
cpu0_L1D WRITEBACK ACCESS:          0  HIT:          0  MISS:          0
cpu0_L2C TOTAL     ACCESS:    6668956  HIT:     932802  MISS:    5736154
cpu0_L2C LOAD      ACCESS:    6519974  HIT:     799441  MISS:    5720533
cpu0_L2C RFO       ACCESS:      15375  HIT:       1442  MISS:      13933
cpu0_L2C PREFETCH  ACCESS:          0  HIT:          0  MISS:          0
cpu0_L2C WRITEBACK ACCESS:     129050  HIT:     129050  MISS:          0
LLC TOTAL     ACCESS:    5854022  HIT:    1756619  MISS:    4097403
LLC LOAD      ACCESS:    5720531  HIT:    1631883  MISS:    4088648
LLC RFO       ACCESS:      13933  HIT:       8322  MISS:       5611
LLC PREFETCH  ACCESS:          0  HIT:          0  MISS:          0
LLC WRITEBACK ACCESS:     117870  HIT:     115605  MISS:       2265
Heartbeat CPU 0 instructions: 96000001 cycles: 313320042 heartbeat IPC: 0.156419 cumulative IPC: 0.155408 (Simulation time: 1 hr 42 min 17 sec) 

Region of Interest Statistics
cpu0_DTLB TOTAL     ACCESS:    9514484  HIT:    5606481  MISS:    3908003
cpu0_DTLB LOAD      ACCESS:    8984533  HIT:    5104412  MISS:    3880121
cpu0_DTLB RFO       ACCESS:     529951  HIT:     502069  MISS:      27882
cpu0_DTLB PREFETCH  ACCESS:          0  HIT:          0  MISS:          0
cpu0_DTLB WRITEBACK ACCESS:          0  HIT:          0  MISS:          0
cpu0_ITLB TOTAL     ACCESS:    4092769  HIT:    4092769  MISS:          0
cpu0_ITLB LOAD      ACCESS:    4092769  HIT:    4092769  MISS:          0
cpu0_ITLB RFO       ACCESS:          0  HIT:          0  MISS:          0
cpu0_ITLB PREFETCH  ACCESS:          0  HIT:          0  MISS:          0
cpu0_ITLB WRITEBACK ACCESS:          0  HIT:          0  MISS:          0
cpu0_L1I TOTAL     ACCESS:     107057  HIT:     107057  MISS:          0
cpu0_L1I LOAD      ACCESS:     107057  HIT:     107057  MISS:          0
cpu0_L1I RFO       ACCESS:          0  HIT:          0  MISS:          0
cpu0_L1I PREFETCH  ACCESS:          0  HIT:          0  MISS:          0
cpu0_L1I WRITEBACK ACCESS:          0  HIT:          0  MISS:          0
cpu0_STLB TOTAL     ACCESS:    3908003  HIT:    3855564  MISS:      52439
cpu0_STLB LOAD      ACCESS:    3880121  HIT:    3828413  MISS:      51708
cpu0_STLB RFO       ACCESS:      27882  HIT:      27151  MISS:        731
cpu0_STLB PREFETCH  ACCESS:          0  HIT:          0  MISS:          0
cpu0_STLB WRITEBACK ACCESS:          0  HIT:          0  MISS:          0
cpu0_L1D TOTAL     ACCESS:   10259722  HIT:    3425331  MISS:    6834391
cpu0_L1D LOAD      ACCESS:    9266625  HIT:    2453190  MISS:    6813435
cpu0_L1D RFO       ACCESS:     940980  HIT:     924803  MISS:      16177
cpu0_L1D PREFETCH  ACCESS:          0  HIT:          0  MISS:          0
cpu0_L1D WRITEBACK ACCESS:          0  HIT:          0  MISS:          0
cpu0_L2C TOTAL     ACCESS:    6968928  HIT:     974408  MISS:    5994520
cpu0_L2C LOAD      ACCESS:    6813425  HIT:     835294  MISS:    5978131
cpu0_L2C RFO       ACCESS:      16177  HIT:       1553  MISS:      14624
cpu0_L2C PREFETCH  ACCESS:          0  HIT:          0  MISS:          0
cpu0_L2C WRITEBACK ACCESS:     134547  HIT:     134547  MISS:          0
LLC TOTAL     ACCESS:    6117352  HIT:    1837173  MISS:    4280179
LLC LOAD      ACCESS:    5978129  HIT:    1707133  MISS:    4270996
LLC RFO       ACCESS:      14624  HIT:       8757  MISS:       5867
LLC PREFETCH  ACCESS:          0  HIT:          0  MISS:          0
LLC WRITEBACK ACCESS:     122834  HIT:     120435  MISS:       2399
Heartbeat CPU 0 instructions: 98000000 cycles: 326200750 heartbeat IPC: 0.155271 cumulative IPC: 0.155402 (Simulation time: 1 hr 45 min 44 sec) 

Region of Interest Statistics
cpu0_DTLB TOTAL     ACCESS:    9927212  HIT:    5846023  MISS:    4081189
cpu0_DTLB LOAD      ACCESS:    9375969  HIT:    5323564  MISS:    4052405
cpu0_DTLB RFO       ACCESS:     551243  HIT:     522459  MISS:      28784
cpu0_DTLB PREFETCH  ACCESS:          0  HIT:          0  MISS:          0
cpu0_DTLB WRITEBACK ACCESS:          0  HIT:          0  MISS:          0
cpu0_ITLB TOTAL     ACCESS:    4267720  HIT:    4267720  MISS:          0
cpu0_ITLB LOAD      ACCESS:    4267720  HIT:    4267720  MISS:          0
cpu0_ITLB RFO       ACCESS:          0  HIT:          0  MISS:          0
cpu0_ITLB PREFETCH  ACCESS:          0  HIT:          0  MISS:          0
cpu0_ITLB WRITEBACK ACCESS:          0  HIT:          0  MISS:          0
cpu0_L1I TOTAL     ACCESS:     112376  HIT:     112376  MISS:          0
cpu0_L1I LOAD      ACCESS:     112376  HIT:     112376  MISS:          0
cpu0_L1I RFO       ACCESS:          0  HIT:          0  MISS:          0
cpu0_L1I PREFETCH  ACCESS:          0  HIT:          0  MISS:          0
cpu0_L1I WRITEBACK ACCESS:          0  HIT:          0  MISS:          0
cpu0_STLB TOTAL     ACCESS:    4081189  HIT:    4026352  MISS:      54837
cpu0_STLB LOAD      ACCESS:    4052405  HIT:    3998329  MISS:      54076
cpu0_STLB RFO       ACCESS:      28784  HIT:      28023  MISS:        761
cpu0_STLB PREFETCH  ACCESS:          0  HIT:          0  MISS:          0
cpu0_STLB WRITEBACK ACCESS:          0  HIT:          0  MISS:          0
cpu0_L1D TOTAL     ACCESS:   10702068  HIT:    3566700  MISS:    7135368
cpu0_L1D LOAD      ACCESS:    9668358  HIT:    2554932  MISS:    7113426
cpu0_L1D RFO       ACCESS:     979211  HIT:     962270  MISS:      16941
cpu0_L1D PREFETCH  ACCESS:          0  HIT:          0  MISS:          0
cpu0_L1D WRITEBACK ACCESS:          0  HIT:          0  MISS:          0
cpu0_L2C TOTAL     ACCESS:    7274378  HIT:    1016519  MISS:    6257859
cpu0_L2C LOAD      ACCESS:    7113414  HIT:     872687  MISS:    6240727
cpu0_L2C RFO       ACCESS:      16941  HIT:       1643  MISS:      15298
cpu0_L2C PREFETCH  ACCESS:          0  HIT:          0  MISS:          0
cpu0_L2C WRITEBACK ACCESS:     139022  HIT:     139022  MISS:          0
LLC TOTAL     ACCESS:    6384633  HIT:    1916428  MISS:    4468205
LLC LOAD      ACCESS:    6240725  HIT:    1782125  MISS:    4458600
LLC RFO       ACCESS:      15298  HIT:       9164  MISS:       6134
LLC PREFETCH  ACCESS:          0  HIT:          0  MISS:          0
LLC WRITEBACK ACCESS:     126776  HIT:     124257  MISS:       2519
Heartbeat CPU 0 instructions: 100000002 cycles: 338866984 heartbeat IPC: 0.1579 cumulative IPC: 0.1555 (Simulation time: 1 hr 49 min 3 sec) 

Region of Interest Statistics
cpu0_DTLB TOTAL     ACCESS:   10338479  HIT:    6083271  MISS:    4255208
cpu0_DTLB LOAD      ACCESS:    9766719  HIT:    5540793  MISS:    4225926
cpu0_DTLB RFO       ACCESS:     571760  HIT:     542478  MISS:      29282
cpu0_DTLB PREFETCH  ACCESS:          0  HIT:          0  MISS:          0
cpu0_DTLB WRITEBACK ACCESS:          0  HIT:          0  MISS:          0
cpu0_ITLB TOTAL     ACCESS:    4441354  HIT:    4441354  MISS:          0
cpu0_ITLB LOAD      ACCESS:    4441354  HIT:    4441354  MISS:          0
cpu0_ITLB RFO       ACCESS:          0  HIT:          0  MISS:          0
cpu0_ITLB PREFETCH  ACCESS:          0  HIT:          0  MISS:          0
cpu0_ITLB WRITEBACK ACCESS:          0  HIT:          0  MISS:          0
cpu0_L1I TOTAL     ACCESS:     118210  HIT:     118210  MISS:          0
cpu0_L1I LOAD      ACCESS:     118210  HIT:     118210  MISS:          0
cpu0_L1I RFO       ACCESS:          0  HIT:          0  MISS:          0
cpu0_L1I PREFETCH  ACCESS:          0  HIT:          0  MISS:          0
cpu0_L1I WRITEBACK ACCESS:          0  HIT:          0  MISS:          0
cpu0_STLB TOTAL     ACCESS:    4255208  HIT:    4198160  MISS:      57048
cpu0_STLB LOAD      ACCESS:    4225926  HIT:    4169667  MISS:      56259
cpu0_STLB RFO       ACCESS:      29282  HIT:      28493  MISS:        789
cpu0_STLB PREFETCH  ACCESS:          0  HIT:          0  MISS:          0
cpu0_STLB WRITEBACK ACCESS:          0  HIT:          0  MISS:          0
cpu0_L1D TOTAL     ACCESS:   11141919  HIT:    3703688  MISS:    7438231
cpu0_L1D LOAD      ACCESS:   10069038  HIT:    2653685  MISS:    7415353
cpu0_L1D RFO       ACCESS:    1016182  HIT:     998496  MISS:      17686
cpu0_L1D PREFETCH  ACCESS:          0  HIT:          0  MISS:          0
cpu0_L1D WRITEBACK ACCESS:          0  HIT:          0  MISS:          0
cpu0_L2C TOTAL     ACCESS:    7581466  HIT:    1058955  MISS:    6522511
cpu0_L2C LOAD      ACCESS:    7415341  HIT:     910683  MISS:    6504658
cpu0_L2C RFO       ACCESS:      17686  HIT:       1743  MISS:      15943
cpu0_L2C PREFETCH  ACCESS:          0  HIT:          0  MISS:          0
cpu0_L2C WRITEBACK ACCESS:     143247  HIT:     143247  MISS:          0
LLC TOTAL     ACCESS:    6652745  HIT:    1996602  MISS:    4656143
LLC LOAD      ACCESS:    6504656  HIT:    1858509  MISS:    4646147
LLC RFO       ACCESS:      15943  HIT:       9553  MISS:       6390
LLC PREFETCH  ACCESS:          0  HIT:          0  MISS:          0
LLC WRITEBACK ACCESS:     130236  HIT:     127628  MISS:       2608
Heartbeat CPU 0 instructions: 102000000 cycles: 350824785 heartbeat IPC: 0.167255 cumulative IPC: 0.155922 (Simulation time: 1 hr 52 min 7 sec) 

Region of Interest Statistics
cpu0_DTLB TOTAL     ACCESS:   10753157  HIT:    6334221  MISS:    4418936
cpu0_DTLB LOAD      ACCESS:   10154761  HIT:    5765646  MISS:    4389115
cpu0_DTLB RFO       ACCESS:     598396  HIT:     568575  MISS:      29821
cpu0_DTLB PREFETCH  ACCESS:          0  HIT:          0  MISS:          0
cpu0_DTLB WRITEBACK ACCESS:          0  HIT:          0  MISS:          0
cpu0_ITLB TOTAL     ACCESS:    4624313  HIT:    4624313  MISS:          0
cpu0_ITLB LOAD      ACCESS:    4624313  HIT:    4624313  MISS:          0
cpu0_ITLB RFO       ACCESS:          0  HIT:          0  MISS:          0
cpu0_ITLB PREFETCH  ACCESS:          0  HIT:          0  MISS:          0
cpu0_ITLB WRITEBACK ACCESS:          0  HIT:          0  MISS:          0
cpu0_L1I TOTAL     ACCESS:     121387  HIT:     121387  MISS:          0
cpu0_L1I LOAD      ACCESS:     121387  HIT:     121387  MISS:          0
cpu0_L1I RFO       ACCESS:          0  HIT:          0  MISS:          0
cpu0_L1I PREFETCH  ACCESS:          0  HIT:          0  MISS:          0
cpu0_L1I WRITEBACK ACCESS:          0  HIT:          0  MISS:          0
cpu0_STLB TOTAL     ACCESS:    4418936  HIT:    4359434  MISS:      59502
cpu0_STLB LOAD      ACCESS:    4389115  HIT:    4330428  MISS:      58687
cpu0_STLB RFO       ACCESS:      29821  HIT:      29006  MISS:        815
cpu0_STLB PREFETCH  ACCESS:          0  HIT:          0  MISS:          0
cpu0_STLB WRITEBACK ACCESS:          0  HIT:          0  MISS:          0
cpu0_L1D TOTAL     ACCESS:   11599354  HIT:    3876047  MISS:    7723307
cpu0_L1D LOAD      ACCESS:   10473061  HIT:    2773789  MISS:    7699272
cpu0_L1D RFO       ACCESS:    1067152  HIT:    1048512  MISS:      18640
cpu0_L1D PREFETCH  ACCESS:          0  HIT:          0  MISS:          0
cpu0_L1D WRITEBACK ACCESS:          0  HIT:          0  MISS:          0
cpu0_L2C TOTAL     ACCESS:    7871486  HIT:    1099752  MISS:    6771734
cpu0_L2C LOAD      ACCESS:    7699260  HIT:     946214  MISS:    6753046
cpu0_L2C RFO       ACCESS:      18640  HIT:       1922  MISS:      16718
cpu0_L2C PREFETCH  ACCESS:          0  HIT:          0  MISS:          0
cpu0_L2C WRITEBACK ACCESS:     148191  HIT:     148191  MISS:          0
LLC TOTAL     ACCESS:    6906108  HIT:    2074022  MISS:    4832086
LLC LOAD      ACCESS:    6753044  HIT:    1931354  MISS:    4821690
LLC RFO       ACCESS:      16718  HIT:      10088  MISS:       6630
LLC PREFETCH  ACCESS:          0  HIT:          0  MISS:          0
LLC WRITEBACK ACCESS:     134376  HIT:     131647  MISS:       2729
Heartbeat CPU 0 instructions: 104000002 cycles: 363005283 heartbeat IPC: 0.164197 cumulative IPC: 0.156213 (Simulation time: 1 hr 55 min 16 sec) 

Region of Interest Statistics
cpu0_DTLB TOTAL     ACCESS:   11169053  HIT:    6581734  MISS:    4587319
cpu0_DTLB LOAD      ACCESS:   10546881  HIT:    5989835  MISS:    4557046
cpu0_DTLB RFO       ACCESS:     622172  HIT:     591899  MISS:      30273
cpu0_DTLB PREFETCH  ACCESS:          0  HIT:          0  MISS:          0
cpu0_DTLB WRITEBACK ACCESS:          0  HIT:          0  MISS:          0
cpu0_ITLB TOTAL     ACCESS:    4804115  HIT:    4804115  MISS:          0
cpu0_ITLB LOAD      ACCESS:    4804115  HIT:    4804115  MISS:          0
cpu0_ITLB RFO       ACCESS:          0  HIT:          0  MISS:          0
cpu0_ITLB PREFETCH  ACCESS:          0  HIT:          0  MISS:          0
cpu0_ITLB WRITEBACK ACCESS:          0  HIT:          0  MISS:          0
cpu0_L1I TOTAL     ACCESS:     126193  HIT:     126193  MISS:          0
cpu0_L1I LOAD      ACCESS:     126193  HIT:     126193  MISS:          0
cpu0_L1I RFO       ACCESS:          0  HIT:          0  MISS:          0
cpu0_L1I PREFETCH  ACCESS:          0  HIT:          0  MISS:          0
cpu0_L1I WRITEBACK ACCESS:          0  HIT:          0  MISS:          0
cpu0_STLB TOTAL     ACCESS:    4587319  HIT:    4525206  MISS:      62113
cpu0_STLB LOAD      ACCESS:    4557046  HIT:    4495774  MISS:      61272
cpu0_STLB RFO       ACCESS:      30273  HIT:      29432  MISS:        841
cpu0_STLB PREFETCH  ACCESS:          0  HIT:          0  MISS:          0
cpu0_STLB WRITEBACK ACCESS:          0  HIT:          0  MISS:          0
cpu0_L1D TOTAL     ACCESS:   12051001  HIT:    4036356  MISS:    8014645
cpu0_L1D LOAD      ACCESS:   10879359  HIT:    2889783  MISS:    7989576
cpu0_L1D RFO       ACCESS:    1109910  HIT:    1090405  MISS:      19505
cpu0_L1D PREFETCH  ACCESS:          0  HIT:          0  MISS:          0
cpu0_L1D WRITEBACK ACCESS:          0  HIT:          0  MISS:          0
cpu0_L2C TOTAL     ACCESS:    8167586  HIT:    1141566  MISS:    7026020
cpu0_L2C LOAD      ACCESS:    7989564  HIT:     982968  MISS:    7006596
cpu0_L2C RFO       ACCESS:      19505  HIT:       2086  MISS:      17419
cpu0_L2C PREFETCH  ACCESS:          0  HIT:          0  MISS:          0
cpu0_L2C WRITEBACK ACCESS:     152953  HIT:     152953  MISS:          0
LLC TOTAL     ACCESS:    7164401  HIT:    2152608  MISS:    5011793
LLC LOAD      ACCESS:    7006592  HIT:    2005590  MISS:    5001002
LLC RFO       ACCESS:      17419  HIT:      10550  MISS:       6869
LLC PREFETCH  ACCESS:          0  HIT:          0  MISS:          0
LLC WRITEBACK ACCESS:     138385  HIT:     135527  MISS:       2858
Heartbeat CPU 0 instructions: 106000002 cycles: 385541839 heartbeat IPC: 0.0887447 cumulative IPC: 0.152084 (Simulation time: 1 hr 59 min 45 sec) 

Region of Interest Statistics
cpu0_DTLB TOTAL     ACCESS:   11586061  HIT:    6834472  MISS:    4751589
cpu0_DTLB LOAD      ACCESS:   10923221  HIT:    6211532  MISS:    4711689
cpu0_DTLB RFO       ACCESS:     662840  HIT:     622940  MISS:      39900
cpu0_DTLB PREFETCH  ACCESS:          0  HIT:          0  MISS:          0
cpu0_DTLB WRITEBACK ACCESS:          0  HIT:          0  MISS:          0
cpu0_ITLB TOTAL     ACCESS:    4998654  HIT:    4998654  MISS:          0
cpu0_ITLB LOAD      ACCESS:    4998654  HIT:    4998654  MISS:          0
cpu0_ITLB RFO       ACCESS:          0  HIT:          0  MISS:          0
cpu0_ITLB PREFETCH  ACCESS:          0  HIT:          0  MISS:          0
cpu0_ITLB WRITEBACK ACCESS:          0  HIT:          0  MISS:          0
cpu0_L1I TOTAL     ACCESS:     127606  HIT:     127606  MISS:          0
cpu0_L1I LOAD      ACCESS:     127606  HIT:     127606  MISS:          0
cpu0_L1I RFO       ACCESS:          0  HIT:          0  MISS:          0
cpu0_L1I PREFETCH  ACCESS:          0  HIT:          0  MISS:          0
cpu0_L1I WRITEBACK ACCESS:          0  HIT:          0  MISS:          0
cpu0_STLB TOTAL     ACCESS:    4751589  HIT:    4687475  MISS:      64114
cpu0_STLB LOAD      ACCESS:    4711689  HIT:    4648456  MISS:      63233
cpu0_STLB RFO       ACCESS:      39900  HIT:      39019  MISS:        881
cpu0_STLB PREFETCH  ACCESS:          0  HIT:          0  MISS:          0
cpu0_STLB WRITEBACK ACCESS:          0  HIT:          0  MISS:          0
cpu0_L1D TOTAL     ACCESS:   12501868  HIT:    4167820  MISS:    8334048
cpu0_L1D LOAD      ACCESS:   11280309  HIT:    2971920  MISS:    8308389
cpu0_L1D RFO       ACCESS:    1157833  HIT:    1137879  MISS:      19954
cpu0_L1D PREFETCH  ACCESS:          0  HIT:          0  MISS:          0
cpu0_L1D WRITEBACK ACCESS:          0  HIT:          0  MISS:          0
cpu0_L2C TOTAL     ACCESS:    8520752  HIT:    1210880  MISS:    7309872
cpu0_L2C LOAD      ACCESS:    8308377  HIT:    1018359  MISS:    7290018
cpu0_L2C RFO       ACCESS:      19954  HIT:       2145  MISS:      17809
cpu0_L2C PREFETCH  ACCESS:          0  HIT:          0  MISS:          0
[...]
cpu0_DTLB TOTAL     ACCESS:  308449877  HIT:  174745440  MISS:  133704437
cpu0_DTLB LOAD      ACCESS:  295619156  HIT:  162564315  MISS:  133054841
cpu0_DTLB RFO       ACCESS:   12830721  HIT:   12181125  MISS:     649596
cpu0_DTLB PREFETCH  ACCESS:          0  HIT:          0  MISS:          0
cpu0_DTLB WRITEBACK ACCESS:          0  HIT:          0  MISS:          0
cpu0_ITLB TOTAL     ACCESS:  130257208  HIT:  130257208  MISS:          0
cpu0_ITLB LOAD      ACCESS:  130257208  HIT:  130257208  MISS:          0
cpu0_ITLB RFO       ACCESS:          0  HIT:          0  MISS:          0
cpu0_ITLB PREFETCH  ACCESS:          0  HIT:          0  MISS:          0
cpu0_ITLB WRITEBACK ACCESS:          0  HIT:          0  MISS:          0
cpu0_L1I TOTAL     ACCESS:    2901592  HIT:    2901592  MISS:          0
cpu0_L1I LOAD      ACCESS:    2901592  HIT:    2901592  MISS:          0
cpu0_L1I RFO       ACCESS:          0  HIT:          0  MISS:          0
cpu0_L1I PREFETCH  ACCESS:          0  HIT:          0  MISS:          0
cpu0_L1I WRITEBACK ACCESS:          0  HIT:          0  MISS:          0
cpu0_STLB TOTAL     ACCESS:  133704437  HIT:  131927529  MISS:    1776908
cpu0_STLB LOAD      ACCESS:  133054841  HIT:  131301948  MISS:    1752893
cpu0_STLB RFO       ACCESS:     649596  HIT:     625581  MISS:      24015
cpu0_STLB PREFETCH  ACCESS:          0  HIT:          0  MISS:          0
cpu0_STLB WRITEBACK ACCESS:          0  HIT:          0  MISS:          0
cpu0_L1D TOTAL     ACCESS:  322499466  HIT:   87853234  MISS:  234646232
cpu0_L1D LOAD      ACCESS:  298378401  HIT:   64311565  MISS:  234066836
cpu0_L1D RFO       ACCESS:   22354228  HIT:   21915988  MISS:     438240
cpu0_L1D PREFETCH  ACCESS:          0  HIT:          0  MISS:          0
cpu0_L1D WRITEBACK ACCESS:          0  HIT:          0  MISS:          0
cpu0_L2C TOTAL     ACCESS:  237862728  HIT:   32369749  MISS:  205492979
cpu0_L2C LOAD      ACCESS:  234066589  HIT:   29004364  MISS:  205062225
cpu0_L2C RFO       ACCESS:     438240  HIT:      61911  MISS:     376329
cpu0_L2C PREFETCH  ACCESS:          0  HIT:          0  MISS:          0
cpu0_L2C WRITEBACK ACCESS:    3216743  HIT:    3216538  MISS:        205
LLC TOTAL     ACCESS:  208388882  HIT:   61094846  MISS:  147294036
LLC LOAD      ACCESS:  205062161  HIT:   58022369  MISS:  147039792
LLC RFO       ACCESS:     376328  HIT:     215252  MISS:     161076
LLC PREFETCH  ACCESS:          0  HIT:          0  MISS:          0
LLC WRITEBACK ACCESS:    2896173  HIT:    2832089  MISS:      64084
Heartbeat CPU 0 instructions: 1550000000 cycles: 9868807494 heartbeat IPC: 0.152118 cumulative IPC: 0.152261 (Simulation time: 20 hr 13 min 43 sec) 

Region of Interest Statistics
cpu0_DTLB TOTAL     ACCESS:  308855177  HIT:  174960142  MISS:  133895035
cpu0_DTLB LOAD      ACCESS:  296015427  HIT:  162770185  MISS:  133245242
cpu0_DTLB RFO       ACCESS:   12839750  HIT:   12189957  MISS:     649793
cpu0_DTLB PREFETCH  ACCESS:          0  HIT:          0  MISS:          0
cpu0_DTLB WRITEBACK ACCESS:          0  HIT:          0  MISS:          0
cpu0_ITLB TOTAL     ACCESS:  130424930  HIT:  130424930  MISS:          0
cpu0_ITLB LOAD      ACCESS:  130424930  HIT:  130424930  MISS:          0
cpu0_ITLB RFO       ACCESS:          0  HIT:          0  MISS:          0
cpu0_ITLB PREFETCH  ACCESS:          0  HIT:          0  MISS:          0
cpu0_ITLB WRITEBACK ACCESS:          0  HIT:          0  MISS:          0
cpu0_L1I TOTAL     ACCESS:    2902842  HIT:    2902842  MISS:          0
cpu0_L1I LOAD      ACCESS:    2902842  HIT:    2902842  MISS:          0
cpu0_L1I RFO       ACCESS:          0  HIT:          0  MISS:          0
cpu0_L1I PREFETCH  ACCESS:          0  HIT:          0  MISS:          0
cpu0_L1I WRITEBACK ACCESS:          0  HIT:          0  MISS:          0
cpu0_STLB TOTAL     ACCESS:  133895035  HIT:  132115634  MISS:    1779401
cpu0_STLB LOAD      ACCESS:  133245242  HIT:  131489878  MISS:    1755364
cpu0_STLB RFO       ACCESS:     649793  HIT:     625756  MISS:      24037
cpu0_STLB PREFETCH  ACCESS:          0  HIT:          0  MISS:          0
cpu0_STLB WRITEBACK ACCESS:          0  HIT:          0  MISS:          0
cpu0_L1D TOTAL     ACCESS:  322905278  HIT:   87923767  MISS:  234981511
cpu0_L1D LOAD      ACCESS:  298765369  HIT:   64363714  MISS:  234401655
cpu0_L1D RFO       ACCESS:   22370597  HIT:   21932031  MISS:     438566
cpu0_L1D PREFETCH  ACCESS:          0  HIT:          0  MISS:          0
cpu0_L1D WRITEBACK ACCESS:          0  HIT:          0  MISS:          0
cpu0_L2C TOTAL     ACCESS:  238199791  HIT:   32414433  MISS:  205785358
cpu0_L2C LOAD      ACCESS:  234401408  HIT:   29047155  MISS:  205354253
cpu0_L2C RFO       ACCESS:     438566  HIT:      61925  MISS:     376641
cpu0_L2C PREFETCH  ACCESS:          0  HIT:          0  MISS:          0
cpu0_L2C WRITEBACK ACCESS:    3218527  HIT:    3218322  MISS:        205
LLC TOTAL     ACCESS:  208682941  HIT:   61177352  MISS:  147505589
LLC LOAD      ACCESS:  205354189  HIT:   58103097  MISS:  147251092
LLC RFO       ACCESS:     376640  HIT:     215367  MISS:     161273
LLC PREFETCH  ACCESS:          0  HIT:          0  MISS:          0
LLC WRITEBACK ACCESS:    2897853  HIT:    2833741  MISS:      64112
Finished CPU 0 instructions: 1500000004 cycles: 9851482998 cumulative IPC: 0.152261 (Simulation time: 20 hr 13 min 43 sec) 

ChampSim completed all CPUs

Region of Interest Statistics

CPU 0 cumulative IPC: 0.152261 instructions: 1500000004 cycles: 9851482998
cpu0_DTLB TOTAL     ACCESS:  308855177  HIT:  174960142  MISS:  133895035
cpu0_DTLB LOAD      ACCESS:  296015427  HIT:  162770185  MISS:  133245242
cpu0_DTLB RFO       ACCESS:   12839750  HIT:   12189957  MISS:     649793
cpu0_DTLB PREFETCH  ACCESS:          0  HIT:          0  MISS:          0
cpu0_DTLB WRITEBACK ACCESS:          0  HIT:          0  MISS:          0
cpu0_DTLB TRANSLATION ACCESS:          0  HIT:          0  MISS:          0
cpu0_DTLB PREFETCH  REQUESTED:          0  ISSUED:          0  USEFUL:          0  USELESS:          0
cpu0_DTLB AVERAGE MISS LATENCY: 9.81926 cycles
cpu0_ITLB TOTAL     ACCESS:  130424930  HIT:  130424930  MISS:          0
cpu0_ITLB LOAD      ACCESS:  130424930  HIT:  130424930  MISS:          0
cpu0_ITLB RFO       ACCESS:          0  HIT:          0  MISS:          0
cpu0_ITLB PREFETCH  ACCESS:          0  HIT:          0  MISS:          0
cpu0_ITLB WRITEBACK ACCESS:          0  HIT:          0  MISS:          0
cpu0_ITLB TRANSLATION ACCESS:          0  HIT:          0  MISS:          0
cpu0_ITLB PREFETCH  REQUESTED:          0  ISSUED:          0  USEFUL:          0  USELESS:          0
cpu0_ITLB AVERAGE MISS LATENCY: -nan cycles
cpu0_L1I TOTAL     ACCESS:    2902842  HIT:    2902842  MISS:          0
cpu0_L1I LOAD      ACCESS:    2902842  HIT:    2902842  MISS:          0
cpu0_L1I RFO       ACCESS:          0  HIT:          0  MISS:          0
cpu0_L1I PREFETCH  ACCESS:          0  HIT:          0  MISS:          0
cpu0_L1I WRITEBACK ACCESS:          0  HIT:          0  MISS:          0
cpu0_L1I TRANSLATION ACCESS:          0  HIT:          0  MISS:          0
cpu0_L1I PREFETCH  REQUESTED:          0  ISSUED:          0  USEFUL:          0  USELESS:          0
cpu0_L1I AVERAGE MISS LATENCY: -nan cycles
cpu0_STLB TOTAL     ACCESS:  133895035  HIT:  132115634  MISS:    1779401
cpu0_STLB LOAD      ACCESS:  133245242  HIT:  131489878  MISS:    1755364
cpu0_STLB RFO       ACCESS:     649793  HIT:     625756  MISS:      24037
cpu0_STLB PREFETCH  ACCESS:          0  HIT:          0  MISS:          0
cpu0_STLB WRITEBACK ACCESS:          0  HIT:          0  MISS:          0
cpu0_STLB TRANSLATION ACCESS:          0  HIT:          0  MISS:          0
cpu0_STLB PREFETCH  REQUESTED:          0  ISSUED:          0  USEFUL:          0  USELESS:          0
cpu0_STLB AVERAGE MISS LATENCY: 61.038 cycles
cpu0_L1D TOTAL     ACCESS:  322905278  HIT:   87923767  MISS:  234981511
cpu0_L1D LOAD      ACCESS:  298765369  HIT:   64363714  MISS:  234401655
cpu0_L1D RFO       ACCESS:   22370597  HIT:   21932031  MISS:     438566
cpu0_L1D PREFETCH  ACCESS:          0  HIT:          0  MISS:          0
cpu0_L1D WRITEBACK ACCESS:          0  HIT:          0  MISS:          0
cpu0_L1D TRANSLATION ACCESS:    1769312  HIT:    1628022  MISS:     141290
cpu0_L1D PREFETCH  REQUESTED:          0  ISSUED:          0  USEFUL:          0  USELESS:          0
cpu0_L1D AVERAGE MISS LATENCY: 194.246 cycles
cpu0_L2C TOTAL     ACCESS:  238199791  HIT:   32414433  MISS:  205785358
cpu0_L2C LOAD      ACCESS:  234401408  HIT:   29047155  MISS:  205354253
cpu0_L2C RFO       ACCESS:     438566  HIT:      61925  MISS:     376641
cpu0_L2C PREFETCH  ACCESS:          0  HIT:          0  MISS:          0
cpu0_L2C WRITEBACK ACCESS:    3218527  HIT:    3218322  MISS:        205
cpu0_L2C TRANSLATION ACCESS:     141290  HIT:      87031  MISS:      54259
cpu0_L2C PREFETCH  REQUESTED:          0  ISSUED:          0  USEFUL:          0  USELESS:          0
cpu0_L2C AVERAGE MISS LATENCY: 209.199 cycles
LLC TOTAL     ACCESS:  208682941  HIT:   61177352  MISS:  147505589
LLC LOAD      ACCESS:  205354189  HIT:   58103097  MISS:  147251092
LLC RFO       ACCESS:     376640  HIT:     215367  MISS:     161273
LLC PREFETCH  ACCESS:          0  HIT:          0  MISS:          0
LLC WRITEBACK ACCESS:    2897853  HIT:    2833741  MISS:      64112
LLC TRANSLATION ACCESS:      54259  HIT:      25147  MISS:      29112
LLC PREFETCH  REQUESTED:          0  ISSUED:          0  USEFUL:          0  USELESS:          0
LLC AVERAGE MISS LATENCY: 262.536 cycles
~~~~~~~~~~Reuse Distance Profiler output~~~~~~~~~~
0	0	0
1	0	0
2	0	0
3	0	0
4	0	0
5	0	0
6	0	0
7	0	0
8	0	0
9	0	0
10	0	0
11	0	0
12	0	0
13	0	0
14	0	0
15	0	0
16	0	0
17	0	0
18	0	0
19	0	0
20	0	0
21	0	0
22	0	0
23	0	0
24	0	0
25	0	0
26	0	0
27	0	0
28	0	0
29	0	0
30	0	0
31	0	0
32	0	0
33	0	0
34	0	0
35	0	0
36	0	0
37	0	0
38	0	0
39	0	0
40	0	0
41	0	0
42	0	0
43	0	0
44	0	0
45	0	0
46	0	0
47	0	0
48	0	0
49	0	0
50	0	0
51	0	0
52	0	0
53	0	0
54	0	0
55	0	0
56	0	0
57	0	0
58	0	0
59	0	0
60	0	0
61	0	0
62	0	0
63	0	0
64	0	0
66	0	0
68	0	0
70	0	0
72	0	0
74	0	0
76	0	0
78	0	0
80	0	0
82	0	0
84	0	0
86	0	0
88	0	0
90	0	0
92	0	0
94	0	0
96	0	0
98	0	0
100	0	0
102	0	0
104	0	0
106	0	0
108	0	0
110	0	0
112	0	0
114	0	0
116	0	0
118	0	0
120	0	0
122	0	0
124	0	0
126	0	0
128	0	0
132	0	0
136	0	0
140	0	0
144	0	0
148	0	0
152	0	0
156	0	0
160	0	0
164	0	0
168	0	0
172	0	0
176	0	0
180	0	0
184	0	0
188	0	0
192	0	0
196	0	0
200	0	0
204	0	0
208	0	0
212	0	0
216	0	0
220	0	0
224	0	0
228	0	0
232	0	0
236	0	0
240	0	0
244	0	0
248	0	0
252	0	0
256	0	0
264	0	0
272	0	0
280	0	0
288	0	0
296	0	0
304	0	0
312	0	0
320	0	0
328	0	0
336	0	0
344	0	0
352	0	0
360	0	0
368	0	0
376	0	0
384	0	0
392	0	0
400	0	0
408	0	0
416	0	0
424	0	0
432	0	0
440	0	0
448	0	0
456	0	0
464	0	0
472	0	0
480	0	0
488	0	0
496	0	0
504	0	0
512	0	0
528	0	0
544	0	0
560	0	0
576	0	0
592	0	0
608	0	0
624	0	0
640	0	0
656	0	0
672	0	0
688	0	0
704	0	0
720	0	0
736	0	0
752	0	0
768	0	0
784	0	0
800	0	0
816	0	0
832	0	0
848	0	0
864	0	0
880	0	0
896	0	0
912	0	0
928	0	0
944	0	0
960	0	0
976	0	0
992	0	0
1008	0	0
1024	0	0
1056	0	0
1088	0	0
1120	0	0
1152	0	0
1184	0	0
1216	0	0
1248	0	0
1280	0	0
1312	0	0
1344	0	0
1376	0	0
1408	0	0
1440	0	0
1472	0	0
1504	0	0
1536	0	0
1568	0	0
1600	0	0
1632	0	0
1664	0	0
1696	0	0
1728	0	0
1760	0	0
1792	0	0
1824	0	0
1856	0	0
1888	0	0
1920	0	0
1952	0	0
1984	0	0
2016	0	0
2048	0	0
2112	0	0
2176	0	0
2240	0	0
2304	0	0
2368	0	0
2432	0	0
2496	0	0
2560	0	0
2624	0	0
2688	0	0
2752	0	0
2816	0	0
2880	0	0
2944	0	0
3008	0	0
3072	0	0
3136	0	0
3200	0	0
3264	0	0
3328	0	0
3392	0	0
3456	0	0
3520	0	0
3584	0	0
3648	0	0
3712	0	0
3776	0	0
3840	0	0
3904	0	0
3968	0	0
4032	0	0
4096	0	0
4224	0	0
4352	0	0
4480	0	0
4608	0	0
4736	0	0
4864	0	0
4992	0	0
5120	0	0
5248	0	0
5376	0	0
5504	0	0
5632	0	0
5760	0	0
5888	0	0
6016	0	0
6144	0	0
6272	0	0
6400	0	0
6528	0	0
6656	0	0
6784	0	0
6912	0	0
7040	0	0
7168	0	0
7296	0	0
7424	0	0
7552	0	0
7680	0	0
7808	0	0
7936	0	0
8064	0	0
8192	0	0
8448	0	0
8704	0	0
8960	0	0
9216	0	0
9472	0	0
9728	0	0
9984	0	0
10240	0	0
10496	0	0
10752	0	0
11008	0	0
11264	0	0
11520	0	0
11776	0	0
12032	0	0
12288	0	0
12544	0	0
12800	0	0
13056	0	0
13312	0	0
13568	0	0
13824	0	0
14080	0	0
14336	0	0
14592	0	0
14848	0	0
15104	0	0
15360	0	0
15616	0	0
15872	0	0
16128	0	0
16384	0	0
16896	0	0
17408	0	0
17920	0	0
18432	0	0
18944	0	0
19456	0	0
19968	0	0
20480	0	0
20992	0	0
21504	0	0
22016	0	0
22528	0	0
23040	0	0
23552	0	0
24064	0	0
24576	0	0
25088	0	0
25600	0	0
26112	0	0
26624	0	0
27136	0	0
27648	0	0
28160	0	0
28672	0	0
29184	0	0
29696	0	0
30208	0	0
30720	0	0
31232	0	0
31744	0	0
32256	0	0
32768	0	0
33792	0	0
34816	0	0
35840	0	0
36864	0	0
37888	0	0
38912	0	0
39936	0	0
40960	0	0
41984	0	0
43008	0	0
44032	0	0
45056	0	0
46080	0	0
47104	0	0
48128	0	0
49152	0	0
50176	0	0
51200	0	0
52224	0	0
53248	0	0
54272	0	0
55296	0	0
56320	0	0
57344	0	0
58368	0	0
59392	0	0
60416	0	0
61440	0	0
62464	0	0
63488	0	0
64512	0	0
65536	0	0
67584	0	0
69632	0	0
71680	0	0
73728	0	0
75776	0	0
77824	0	0
79872	0	0
81920	0	0
83968	0	0
86016	0	0
88064	0	0
90112	0	0
92160	0	0
94208	0	0
96256	0	0
98304	0	0
100352	0	0
102400	0	0
104448	0	0
106496	0	0
108544	0	0
110592	0	0
112640	0	0
114688	0	0
116736	0	0
118784	0	0
120832	0	0
122880	0	0
124928	0	0
126976	0	0
129024	0	0
131072	0	0
135168	0	0
139264	0	0
143360	0	0
147456	0	0
151552	0	0
155648	0	0
159744	0	0
163840	0	0
167936	0	0
172032	0	0
176128	0	0
180224	0	0
184320	0	0
188416	0	0
192512	0	0
196608	0	0
200704	0	0
204800	0	0
208896	0	0
212992	0	0
217088	0	0
221184	0	0
225280	0	0
229376	0	0
233472	0	0
237568	0	0
241664	0	0
245760	0	0
249856	0	0
253952	0	0
258048	0	0
262144	0	0
270336	0	0
278528	0	0
286720	0	0
294912	0	0
303104	0	0
311296	0	0
319488	0	0
327680	0	0
335872	0	0
344064	0	0
352256	0	0
360448	0	0
368640	0	0
376832	0	0
385024	0	0
393216	0	0
401408	0	0
409600	0	0
417792	0	0
425984	0	0
434176	0	0
442368	0	0
450560	0	0
458752	0	0
466944	0	0
475136	0	0
483328	0	0
491520	0	0
499712	0	0
507904	0	0
516096	0	0
524288	0	0
540672	0	0
557056	0	0
573440	0	0
589824	0	0
606208	0	0
622592	0	0
638976	0	0
655360	0	0
671744	0	0
688128	0	0
704512	0	0
720896	0	0
737280	0	0
753664	0	0
770048	0	0
786432	0	0
802816	0	0
819200	0	0
835584	0	0
851968	0	0
868352	0	0
884736	0	0
901120	0	0
917504	0	0
933888	0	0
950272	0	0
966656	0	0
983040	0	0
999424	0	0
1015808	0	0
1032192	0	0
1048576	0	0
1081344	0	0
1114112	0	0
1146880	0	0
1179648	0	0
1212416	0	0
1245184	0	0
1277952	0	0
1310720	0	0
1343488	0	0
1376256	0	0
1409024	0	0
1441792	0	0
1474560	0	0
1507328	0	0
1540096	0	0
1572864	0	0
1605632	0	0
1638400	0	0
1671168	0	0
1703936	0	0
1736704	0	0
1769472	0	0
1802240	0	0
1835008	0	0
1867776	0	0
1900544	0	0
1933312	0	0
1966080	0	0
1998848	0	0
2031616	0	0
2064384	0	0
2097152	0	0
2162688	0	0
2228224	0	0
2293760	0	0
2359296	0	0
2424832	0	0
2490368	0	0
2555904	0	0
2621440	0	0
2686976	0	0
2752512	0	0
2818048	0	0
2883584	0	0
2949120	0	0
3014656	0	0
3080192	0	0
3145728	0	0
3211264	0	0
3276800	0	0
3342336	0	0
3407872	0	0
3473408	0	0
3538944	0	0
3604480	0	0
3670016	0	0
3735552	0	0
3801088	0	0
3866624	0	0
3932160	0	0
3997696	0	0
4063232	0	0
4128768	0	0
4194304	0	0
4325376	0	0
4456448	0	0
4587520	0	0
4718592	0	0
4849664	0	0
4980736	0	0
5111808	0	0
5242880	0	0
5373952	0	0
5505024	0	0
5636096	0	0
5767168	0	0
5898240	0	0
6029312	0	0
6160384	0	0
6291456	0	0
6422528	0	0
6553600	0	0
6684672	0	0
6815744	0	0
6946816	0	0
7077888	0	0
7208960	0	0
7340032	0	0
7471104	0	0
7602176	0	0
7733248	0	0
7864320	0	0
7995392	0	0
8126464	0	0
8257536	0	0
8388608	0	0
8650752	0	0
8912896	0	0
9175040	0	0
9437184	0	0
9699328	0	0
9961472	0	0
10223616	0	0
10485760	0	0
10747904	0	0
11010048	0	0
11272192	0	0
11534336	0	0
11796480	0	0
12058624	0	0
12320768	0	0
12582912	0	0
12845056	0	0
13107200	0	0
13369344	0	0
13631488	0	0
13893632	0	0
14155776	0	0
14417920	0	0
14680064	0	0
14942208	0	0
15204352	0	0
15466496	0	0
15728640	0	0
15990784	0	0
16252928	0	0
16515072	0	0
16777216	0	0
17301504	0	0
17825792	0	0
18350080	0	0
18874368	0	0
19398656	0	0
19922944	0	0
20447232	0	0
20971520	0	0
21495808	0	0
22020096	0	0
22544384	0	0
23068672	0	0
23592960	0	0
24117248	0	0
24641536	0	0
25165824	0	0
25690112	0	0
26214400	0	0
26738688	0	0
27262976	0	0
27787264	0	0
28311552	0	0
28835840	0	0
29360128	0	0
29884416	0	0
30408704	0	0
30932992	0	0
31457280	0	0
31981568	0	0
32505856	0	0
33030144	0	0
33554432	0	0
34603008	0	0
35651584	0	0
36700160	0	0
37748736	0	0
38797312	0	0
39845888	0	0
40894464	0	0
41943040	0	0
42991616	0	0
44040192	0	0
45088768	0	0
46137344	0	0
47185920	0	0
48234496	0	0
49283072	0	0
50331648	0	0
51380224	0	0
52428800	0	0
53477376	0	0
54525952	0	0
55574528	0	0
56623104	0	0
57671680	0	0
58720256	0	0
59768832	0	0
60817408	0	0
61865984	0	0
62914560	0	0
63963136	0	0
65011712	0	0
66060288	0	0
67108864	0	0
69206016	0	0
71303168	0	0
73400320	0	0
75497472	0	0
77594624	0	0
79691776	0	0
81788928	0	0
83886080	0	0
85983232	0	0
88080384	0	0
90177536	0	0
92274688	0	0
94371840	0	0
96468992	0	0
98566144	0	0
100663296	0	0
102760448	0	0
104857600	0	0
106954752	0	0
109051904	0	0
111149056	0	0
113246208	0	0
115343360	0	0
117440512	0	0
119537664	0	0
121634816	0	0
123731968	0	0
125829120	0	0
127926272	0	0
130023424	0	0
132120576	0	0
134217728	0	0
138412032	0	0
142606336	0	0
146800640	0	0
150994944	0	0
155189248	0	0
159383552	0	0
163577856	0	0
167772160	0	0
171966464	0	0
176160768	0	0
180355072	0	0
184549376	0	0
188743680	0	0
192937984	0	0
197132288	0	0
201326592	0	0
205520896	0	0
209715200	0	0
213909504	0	0
218103808	0	0
222298112	0	0
226492416	0	0
230686720	0	0
234881024	0	0
239075328	0	0
243269632	0	0
247463936	0	0
251658240	0	0
255852544	0	0
260046848	0	0
264241152	0	0
268435456	0	0
276824064	0	0
285212672	0	0
293601280	0	0
301989888	0	0
310378496	0	0
318767104	0	0
327155712	0	0
335544320	0	0
343932928	0	0
352321536	0	0
360710144	0	0
369098752	0	0
377487360	0	0
385875968	0	0
394264576	0	0
402653184	0	0
411041792	0	0
419430400	0	0
427819008	0	0
436207616	0	0
444596224	0	0
452984832	0	0
461373440	0	0
469762048	0	0
478150656	0	0
486539264	0	0
494927872	0	0
503316480	0	0
511705088	0	0
520093696	0	0
528482304	0	0
536870912	0	0
553648128	0	0
570425344	0	0
587202560	0	0
603979776	0	0
620756992	0	0
637534208	0	0
654311424	0	0
671088640	0	0
687865856	0	0
704643072	0	0
721420288	0	0
738197504	0	0
754974720	0	0
771751936	0	0
788529152	0	0
805306368	0	0
822083584	0	0
838860800	0	0
855638016	0	0
872415232	0	0
889192448	0	0
905969664	0	0
922746880	0	0
939524096	0	0
956301312	0	0
973078528	0	0
989855744	0	0
1006632960	0	0
1023410176	0	0
1040187392	0	0
1056964608	0	0
1073741824	0	0
1107296256	0	0
1140850688	0	0
1174405120	0	0
1207959552	0	0
1241513984	0	0
1275068416	0	0
1308622848	0	0
1342177280	0	0
1375731712	0	0
1409286144	0	0
1442840576	0	0
1476395008	0	0
1509949440	0	0
1543503872	0	0
1577058304	0	0
1610612736	0	0
1644167168	0	0
1677721600	0	0
1711276032	0	0
1744830464	0	0
1778384896	0	0
1811939328	0	0
1845493760	0	0
1879048192	0	0
1912602624	0	0
1946157056	0	0
1979711488	0	0
2013265920	0	0
2046820352	0	0
2080374784	0	0
2113929216	0	0
2147483648	0	0
2214592512	0	0
2281701376	0	0
2348810240	0	0
2415919104	0	0
2483027968	0	0
2550136832	0	0
2617245696	0	0
2684354560	0	0
2751463424	0	0
2818572288	0	0
2885681152	0	0
2952790016	0	0
3019898880	0	0
3087007744	0	0
3154116608	0	0
3221225472	0	0
3288334336	0	0
3355443200	0	0
3422552064	0	0
3489660928	0	0
3556769792	0	0
3623878656	0	0
3690987520	0	0
3758096384	0	0
3825205248	0	0
3892314112	0	0
3959422976	0	0
4026531840	0	0
4093640704	0	0
4160749568	0	0
4227858432	0	0
~~~~~~~~~~Reuse Distance Profiler output end~~~~~~~~~~


DRAM Statistics
 CHANNEL 0
 RQ ROW_BUFFER_HIT:   38826339  ROW_BUFFER_MISS:  108566240
 DBUS AVG_CONGESTED_CYCLE:    3.85059
 WQ ROW_BUFFER_HIT:     603891  ROW_BUFFER_MISS:     989413  FULL:          0


CPU 0 Branch Prediction Accuracy: 96.2307% MPKI: 11.5612 Average ROB Occupancy at Mispredict: 53.0428
Branch type MPKI
BRANCH_DIRECT_JUMP: 0
BRANCH_INDIRECT: 0
BRANCH_CONDITIONAL: 11.5611
BRANCH_DIRECT_CALL: 0
BRANCH_INDIRECT_CALL: 0.000160667
BRANCH_RETURN: 0

