
*** ChampSim Multicore Out-of-Order Simulator ***

Warmup Instructions: 50000000
Simulation Instructions: 1500000000
Number of CPUs: 1
Off-chip DRAM Size: 4 GiB Channels: 1 Width: 64-bit Data Rate: 3200 MT/s

VirtualMemory physical capacity: 8588881920 num_ppages: 2096895
VirtualMemory page size: 4096 log2_page_size: 12

CPU 0 runs traces/605.mcf_s-472B.champsimtrace.xz
CPU 0 Bimodal branch predictor
Basic BTB sets: 1024 ways: 8 indirect buffer size: 4096 RAS size: 64
Initializing LRU.
Initializing LRU.
Initializing LRU.
Initializing LRU.
Initializing rdLRU.
Initializing LRU.
Initializing LRU.
Heartbeat CPU 0 instructions: 2000003 cycles: 657521 heartbeat IPC: 3.04173 cumulative IPC: 3.04173 (Simulation time: 0 hr 1 min 24 sec) 
Heartbeat CPU 0 instructions: 4000002 cycles: 1280893 heartbeat IPC: 3.20836 cumulative IPC: 3.12282 (Simulation time: 0 hr 2 min 46 sec) 
Heartbeat CPU 0 instructions: 6000001 cycles: 1936647 heartbeat IPC: 3.04992 cumulative IPC: 3.09814 (Simulation time: 0 hr 4 min 8 sec) 
Heartbeat CPU 0 instructions: 8000002 cycles: 2593162 heartbeat IPC: 3.04639 cumulative IPC: 3.08504 (Simulation time: 0 hr 5 min 29 sec) 
Heartbeat CPU 0 instructions: 10000000 cycles: 3251522 heartbeat IPC: 3.03785 cumulative IPC: 3.07548 (Simulation time: 0 hr 6 min 51 sec) 
Heartbeat CPU 0 instructions: 12000000 cycles: 3962478 heartbeat IPC: 2.81311 cumulative IPC: 3.02841 (Simulation time: 0 hr 8 min 22 sec) 
Heartbeat CPU 0 instructions: 14000002 cycles: 4625378 heartbeat IPC: 3.01705 cumulative IPC: 3.02678 (Simulation time: 0 hr 9 min 49 sec) 
Heartbeat CPU 0 instructions: 16000001 cycles: 5292725 heartbeat IPC: 2.99694 cumulative IPC: 3.02302 (Simulation time: 0 hr 11 min 14 sec) 
Heartbeat CPU 0 instructions: 18000001 cycles: 6068006 heartbeat IPC: 2.57971 cumulative IPC: 2.96638 (Simulation time: 0 hr 12 min 46 sec) 
Heartbeat CPU 0 instructions: 20000001 cycles: 6781239 heartbeat IPC: 2.80413 cumulative IPC: 2.94931 (Simulation time: 0 hr 14 min 19 sec) 
Heartbeat CPU 0 instructions: 22000003 cycles: 7447523 heartbeat IPC: 3.00173 cumulative IPC: 2.954 (Simulation time: 0 hr 15 min 45 sec) 
Heartbeat CPU 0 instructions: 24000000 cycles: 8270957 heartbeat IPC: 2.42885 cumulative IPC: 2.90172 (Simulation time: 0 hr 17 min 26 sec) 
Heartbeat CPU 0 instructions: 26000000 cycles: 9090349 heartbeat IPC: 2.44083 cumulative IPC: 2.86018 (Simulation time: 0 hr 19 min 5 sec) 
Heartbeat CPU 0 instructions: 28000002 cycles: 9817111 heartbeat IPC: 2.75194 cumulative IPC: 2.85216 (Simulation time: 0 hr 20 min 36 sec) 
Heartbeat CPU 0 instructions: 30000004 cycles: 10468925 heartbeat IPC: 3.06836 cumulative IPC: 2.86562 (Simulation time: 0 hr 21 min 59 sec) 
Heartbeat CPU 0 instructions: 32000004 cycles: 11099478 heartbeat IPC: 3.17182 cumulative IPC: 2.88302 (Simulation time: 0 hr 23 min 20 sec) 
Heartbeat CPU 0 instructions: 34000004 cycles: 11758184 heartbeat IPC: 3.03626 cumulative IPC: 2.8916 (Simulation time: 0 hr 24 min 39 sec) 
Heartbeat CPU 0 instructions: 36000000 cycles: 12415310 heartbeat IPC: 3.04355 cumulative IPC: 2.89965 (Simulation time: 0 hr 26 min 2 sec) 
Heartbeat CPU 0 instructions: 38000001 cycles: 13063801 heartbeat IPC: 3.08408 cumulative IPC: 2.9088 (Simulation time: 0 hr 27 min 14 sec) 
Heartbeat CPU 0 instructions: 40000002 cycles: 13749780 heartbeat IPC: 2.91554 cumulative IPC: 2.90914 (Simulation time: 0 hr 28 min 34 sec) 
Heartbeat CPU 0 instructions: 42000000 cycles: 14407014 heartbeat IPC: 3.04305 cumulative IPC: 2.91525 (Simulation time: 0 hr 29 min 52 sec) 
Heartbeat CPU 0 instructions: 44000004 cycles: 15065808 heartbeat IPC: 3.03586 cumulative IPC: 2.92052 (Simulation time: 0 hr 31 min 13 sec) 
Heartbeat CPU 0 instructions: 46000001 cycles: 15716484 heartbeat IPC: 3.07372 cumulative IPC: 2.92686 (Simulation time: 0 hr 32 min 27 sec) 
Heartbeat CPU 0 instructions: 48000002 cycles: 16349001 heartbeat IPC: 3.16197 cumulative IPC: 2.93596 (Simulation time: 0 hr 33 min 35 sec) 
Heartbeat CPU 0 instructions: 50000000 cycles: 17104949 heartbeat IPC: 2.64568 cumulative IPC: 2.92313 (Simulation time: 0 hr 35 min 0 sec) 

Warmup complete CPU 0 instructions: 50000005 cycles: 17104950 (Simulation time: 0 hr 35 min 0 sec) 

Heartbeat CPU 0 instructions: 52000000 cycles: 21559200 heartbeat IPC: 0.449009 cumulative IPC: 0.449008 (Simulation time: 0 hr 37 min 21 sec) 

Region of Interest Statistics
cpu0_DTLB TOTAL     ACCESS:     640889  HIT:     639254  MISS:       1635
cpu0_DTLB LOAD      ACCESS:     408141  HIT:     406611  MISS:       1530
cpu0_DTLB RFO       ACCESS:     232748  HIT:     232643  MISS:        105
cpu0_DTLB PREFETCH  ACCESS:          0  HIT:          0  MISS:          0
cpu0_DTLB WRITEBACK ACCESS:          0  HIT:          0  MISS:          0
cpu0_ITLB TOTAL     ACCESS:     181179  HIT:     181179  MISS:          0
cpu0_ITLB LOAD      ACCESS:     181179  HIT:     181179  MISS:          0
cpu0_ITLB RFO       ACCESS:          0  HIT:          0  MISS:          0
cpu0_ITLB PREFETCH  ACCESS:          0  HIT:          0  MISS:          0
cpu0_ITLB WRITEBACK ACCESS:          0  HIT:          0  MISS:          0
cpu0_L1I TOTAL     ACCESS:     101346  HIT:     101346  MISS:          0
cpu0_L1I LOAD      ACCESS:     101346  HIT:     101346  MISS:          0
cpu0_L1I RFO       ACCESS:          0  HIT:          0  MISS:          0
cpu0_L1I PREFETCH  ACCESS:          0  HIT:          0  MISS:          0
cpu0_L1I WRITEBACK ACCESS:          0  HIT:          0  MISS:          0
cpu0_STLB TOTAL     ACCESS:       1635  HIT:        997  MISS:        638
cpu0_STLB LOAD      ACCESS:       1530  HIT:        943  MISS:        587
cpu0_STLB RFO       ACCESS:        105  HIT:         54  MISS:         51
cpu0_STLB PREFETCH  ACCESS:          0  HIT:          0  MISS:          0
cpu0_STLB WRITEBACK ACCESS:          0  HIT:          0  MISS:          0
cpu0_L1D TOTAL     ACCESS:     968109  HIT:     942252  MISS:      25857
cpu0_L1D LOAD      ACCESS:     370418  HIT:     347873  MISS:      22545
cpu0_L1D RFO       ACCESS:     597053  HIT:     593827  MISS:       3226
cpu0_L1D PREFETCH  ACCESS:          0  HIT:          0  MISS:          0
cpu0_L1D WRITEBACK ACCESS:          0  HIT:          0  MISS:          0
cpu0_L2C TOTAL     ACCESS:      33198  HIT:       7690  MISS:      25508
cpu0_L2C LOAD      ACCESS:      22545  HIT:        291  MISS:      22254
cpu0_L2C RFO       ACCESS:       3225  HIT:          2  MISS:       3223
cpu0_L2C PREFETCH  ACCESS:          0  HIT:          0  MISS:          0
cpu0_L2C WRITEBACK ACCESS:       7342  HIT:       7328  MISS:         14
LLC TOTAL     ACCESS:      29506  HIT:       1750  MISS:      27756
LLC LOAD      ACCESS:      22254  HIT:          9  MISS:      22245
LLC RFO       ACCESS:       3223  HIT:          1  MISS:       3222
LLC PREFETCH  ACCESS:          0  HIT:          0  MISS:          0
LLC WRITEBACK ACCESS:       4012  HIT:       1740  MISS:       2272
Heartbeat CPU 0 instructions: 54000000 cycles: 28164162 heartbeat IPC: 0.302803 cumulative IPC: 0.361689 (Simulation time: 0 hr 41 min 16 sec) 

Region of Interest Statistics
cpu0_DTLB TOTAL     ACCESS:    1296555  HIT:    1291335  MISS:       5220
cpu0_DTLB LOAD      ACCESS:     849654  HIT:     844951  MISS:       4703
cpu0_DTLB RFO       ACCESS:     446901  HIT:     446384  MISS:        517
cpu0_DTLB PREFETCH  ACCESS:          0  HIT:          0  MISS:          0
cpu0_DTLB WRITEBACK ACCESS:          0  HIT:          0  MISS:          0
cpu0_ITLB TOTAL     ACCESS:     369190  HIT:     369190  MISS:          0
cpu0_ITLB LOAD      ACCESS:     369190  HIT:     369190  MISS:          0
cpu0_ITLB RFO       ACCESS:          0  HIT:          0  MISS:          0
cpu0_ITLB PREFETCH  ACCESS:          0  HIT:          0  MISS:          0
cpu0_ITLB WRITEBACK ACCESS:          0  HIT:          0  MISS:          0
cpu0_L1I TOTAL     ACCESS:     225350  HIT:     225350  MISS:          0
cpu0_L1I LOAD      ACCESS:     225350  HIT:     225350  MISS:          0
cpu0_L1I RFO       ACCESS:          0  HIT:          0  MISS:          0
cpu0_L1I PREFETCH  ACCESS:          0  HIT:          0  MISS:          0
cpu0_L1I WRITEBACK ACCESS:          0  HIT:          0  MISS:          0
cpu0_STLB TOTAL     ACCESS:       5220  HIT:       2795  MISS:       2425
cpu0_STLB LOAD      ACCESS:       4703  HIT:       2376  MISS:       2327
cpu0_STLB RFO       ACCESS:        517  HIT:        419  MISS:         98
cpu0_STLB PREFETCH  ACCESS:          0  HIT:          0  MISS:          0
cpu0_STLB WRITEBACK ACCESS:          0  HIT:          0  MISS:          0
cpu0_L1D TOTAL     ACCESS:    1909322  HIT:    1810349  MISS:      98973
cpu0_L1D LOAD      ACCESS:     792107  HIT:     699534  MISS:      92573
cpu0_L1D RFO       ACCESS:    1114790  HIT:    1108556  MISS:       6234
cpu0_L1D PREFETCH  ACCESS:          0  HIT:          0  MISS:          0
cpu0_L1D WRITEBACK ACCESS:          0  HIT:          0  MISS:          0
cpu0_L2C TOTAL     ACCESS:     114075  HIT:      16967  MISS:      97108
cpu0_L2C LOAD      ACCESS:      92573  HIT:       1674  MISS:      90899
cpu0_L2C RFO       ACCESS:       6232  HIT:        137  MISS:       6095
cpu0_L2C PREFETCH  ACCESS:          0  HIT:          0  MISS:          0
cpu0_L2C WRITEBACK ACCESS:      15104  HIT:      15032  MISS:         72
LLC TOTAL     ACCESS:     107542  HIT:       3319  MISS:     104223
LLC LOAD      ACCESS:      90899  HIT:         72  MISS:      90827
LLC RFO       ACCESS:       6095  HIT:          7  MISS:       6088
LLC PREFETCH  ACCESS:          0  HIT:          0  MISS:          0
LLC WRITEBACK ACCESS:      10506  HIT:       3240  MISS:       7266
Heartbeat CPU 0 instructions: 56000000 cycles: 37081910 heartbeat IPC: 0.224272 cumulative IPC: 0.300346 (Simulation time: 0 hr 46 min 19 sec) 

Region of Interest Statistics
cpu0_DTLB TOTAL     ACCESS:    1966711  HIT:    1955426  MISS:      11285
cpu0_DTLB LOAD      ACCESS:    1329310  HIT:    1319316  MISS:       9994
cpu0_DTLB RFO       ACCESS:     637401  HIT:     636110  MISS:       1291
cpu0_DTLB PREFETCH  ACCESS:          0  HIT:          0  MISS:          0
cpu0_DTLB WRITEBACK ACCESS:          0  HIT:          0  MISS:          0
cpu0_ITLB TOTAL     ACCESS:     562779  HIT:     562779  MISS:          0
cpu0_ITLB LOAD      ACCESS:     562779  HIT:     562779  MISS:          0
cpu0_ITLB RFO       ACCESS:          0  HIT:          0  MISS:          0
cpu0_ITLB PREFETCH  ACCESS:          0  HIT:          0  MISS:          0
cpu0_ITLB WRITEBACK ACCESS:          0  HIT:          0  MISS:          0
cpu0_L1I TOTAL     ACCESS:     372777  HIT:     372777  MISS:          0
cpu0_L1I LOAD      ACCESS:     372777  HIT:     372777  MISS:          0
cpu0_L1I RFO       ACCESS:          0  HIT:          0  MISS:          0
cpu0_L1I PREFETCH  ACCESS:          0  HIT:          0  MISS:          0
cpu0_L1I WRITEBACK ACCESS:          0  HIT:          0  MISS:          0
cpu0_STLB TOTAL     ACCESS:      11285  HIT:       5838  MISS:       5447
cpu0_STLB LOAD      ACCESS:       9994  HIT:       4732  MISS:       5262
cpu0_STLB RFO       ACCESS:       1291  HIT:       1106  MISS:        185
cpu0_STLB PREFETCH  ACCESS:          0  HIT:          0  MISS:          0
cpu0_STLB WRITEBACK ACCESS:          0  HIT:          0  MISS:          0
cpu0_L1D TOTAL     ACCESS:    2820090  HIT:    2598214  MISS:     221876
cpu0_L1D LOAD      ACCESS:    1271056  HIT:    1061319  MISS:     209737
cpu0_L1D RFO       ACCESS:    1543587  HIT:    1531694  MISS:      11893
cpu0_L1D PREFETCH  ACCESS:          0  HIT:          0  MISS:          0
cpu0_L1D WRITEBACK ACCESS:          0  HIT:          0  MISS:          0
cpu0_L2C TOTAL     ACCESS:     247147  HIT:      29006  MISS:     218141
cpu0_L2C LOAD      ACCESS:     209738  HIT:       3387  MISS:     206351
cpu0_L2C RFO       ACCESS:      11891  HIT:        341  MISS:      11550
cpu0_L2C PREFETCH  ACCESS:          0  HIT:          0  MISS:          0
cpu0_L2C WRITEBACK ACCESS:      25272  HIT:      25103  MISS:        169
LLC TOTAL     ACCESS:     240497  HIT:       6487  MISS:     234010
LLC LOAD      ACCESS:     206351  HIT:        148  MISS:     206203
LLC RFO       ACCESS:      11550  HIT:         14  MISS:      11536
LLC PREFETCH  ACCESS:          0  HIT:          0  MISS:          0
LLC WRITEBACK ACCESS:      22525  HIT:       6323  MISS:      16202
Heartbeat CPU 0 instructions: 58000000 cycles: 45090567 heartbeat IPC: 0.24973 cumulative IPC: 0.285861 (Simulation time: 0 hr 50 min 24 sec) 

Region of Interest Statistics
cpu0_DTLB TOTAL     ACCESS:    2631823  HIT:    2614839  MISS:      16984
cpu0_DTLB LOAD      ACCESS:    1794058  HIT:    1779228  MISS:      14830
cpu0_DTLB RFO       ACCESS:     837765  HIT:     835611  MISS:       2154
cpu0_DTLB PREFETCH  ACCESS:          0  HIT:          0  MISS:          0
cpu0_DTLB WRITEBACK ACCESS:          0  HIT:          0  MISS:          0
cpu0_ITLB TOTAL     ACCESS:     751071  HIT:     751071  MISS:          0
cpu0_ITLB LOAD      ACCESS:     751071  HIT:     751071  MISS:          0
cpu0_ITLB RFO       ACCESS:          0  HIT:          0  MISS:          0
cpu0_ITLB PREFETCH  ACCESS:          0  HIT:          0  MISS:          0
cpu0_ITLB WRITEBACK ACCESS:          0  HIT:          0  MISS:          0
cpu0_L1I TOTAL     ACCESS:     514764  HIT:     514764  MISS:          0
cpu0_L1I LOAD      ACCESS:     514764  HIT:     514764  MISS:          0
cpu0_L1I RFO       ACCESS:          0  HIT:          0  MISS:          0
cpu0_L1I PREFETCH  ACCESS:          0  HIT:          0  MISS:          0
cpu0_L1I WRITEBACK ACCESS:          0  HIT:          0  MISS:          0
cpu0_STLB TOTAL     ACCESS:      16984  HIT:       8963  MISS:       8021
cpu0_STLB LOAD      ACCESS:      14830  HIT:       7078  MISS:       7752
cpu0_STLB RFO       ACCESS:       2154  HIT:       1885  MISS:        269
cpu0_STLB PREFETCH  ACCESS:          0  HIT:          0  MISS:          0
cpu0_STLB WRITEBACK ACCESS:          0  HIT:          0  MISS:          0
cpu0_L1D TOTAL     ACCESS:    3742387  HIT:    3418578  MISS:     323809
cpu0_L1D LOAD      ACCESS:    1724630  HIT:    1418600  MISS:     306030
cpu0_L1D RFO       ACCESS:    2009736  HIT:    1992301  MISS:      17435
cpu0_L1D PREFETCH  ACCESS:          0  HIT:          0  MISS:          0
cpu0_L1D WRITEBACK ACCESS:          0  HIT:          0  MISS:          0
cpu0_L2C TOTAL     ACCESS:     358210  HIT:      38876  MISS:     319334
cpu0_L2C LOAD      ACCESS:     306030  HIT:       4024  MISS:     302006
cpu0_L2C RFO       ACCESS:      17433  HIT:        410  MISS:      17023
cpu0_L2C PREFETCH  ACCESS:          0  HIT:          0  MISS:          0
cpu0_L2C WRITEBACK ACCESS:      34403  HIT:      34202  MISS:        201
LLC TOTAL     ACCESS:     347417  HIT:       9634  MISS:     337783
LLC LOAD      ACCESS:     302006  HIT:        164  MISS:     301842
LLC RFO       ACCESS:      17023  HIT:         17  MISS:      17006
LLC PREFETCH  ACCESS:          0  HIT:          0  MISS:          0
LLC WRITEBACK ACCESS:      28284  HIT:       9450  MISS:      18834
Heartbeat CPU 0 instructions: 60000001 cycles: 55769443 heartbeat IPC: 0.187286 cumulative IPC: 0.258635 (Simulation time: 0 hr 55 min 32 sec) 

Region of Interest Statistics
cpu0_DTLB TOTAL     ACCESS:    3306262  HIT:    3280174  MISS:      26088
cpu0_DTLB LOAD      ACCESS:    2287578  HIT:    2264497  MISS:      23081
cpu0_DTLB RFO       ACCESS:    1018684  HIT:    1015677  MISS:       3007
cpu0_DTLB PREFETCH  ACCESS:          0  HIT:          0  MISS:          0
cpu0_DTLB WRITEBACK ACCESS:          0  HIT:          0  MISS:          0
cpu0_ITLB TOTAL     ACCESS:     945198  HIT:     945198  MISS:          0
cpu0_ITLB LOAD      ACCESS:     945198  HIT:     945198  MISS:          0
cpu0_ITLB RFO       ACCESS:          0  HIT:          0  MISS:          0
cpu0_ITLB PREFETCH  ACCESS:          0  HIT:          0  MISS:          0
cpu0_ITLB WRITEBACK ACCESS:          0  HIT:          0  MISS:          0
cpu0_L1I TOTAL     ACCESS:     675082  HIT:     675082  MISS:          0
cpu0_L1I LOAD      ACCESS:     675082  HIT:     675082  MISS:          0
cpu0_L1I RFO       ACCESS:          0  HIT:          0  MISS:          0
cpu0_L1I PREFETCH  ACCESS:          0  HIT:          0  MISS:          0
cpu0_L1I WRITEBACK ACCESS:          0  HIT:          0  MISS:          0
cpu0_STLB TOTAL     ACCESS:      26088  HIT:      14073  MISS:      12015
cpu0_STLB LOAD      ACCESS:      23081  HIT:      11426  MISS:      11655
cpu0_STLB RFO       ACCESS:       3007  HIT:       2647  MISS:        360
cpu0_STLB PREFETCH  ACCESS:          0  HIT:          0  MISS:          0
cpu0_STLB WRITEBACK ACCESS:          0  HIT:          0  MISS:          0
cpu0_L1D TOTAL     ACCESS:    4642937  HIT:    4172507  MISS:     470430
cpu0_L1D LOAD      ACCESS:    2224145  HIT:    1777867  MISS:     446278
cpu0_L1D RFO       ACCESS:    2406777  HIT:    2383143  MISS:      23634
cpu0_L1D PREFETCH  ACCESS:          0  HIT:          0  MISS:          0
cpu0_L1D WRITEBACK ACCESS:          0  HIT:          0  MISS:          0
cpu0_L2C TOTAL     ACCESS:     517619  HIT:      53886  MISS:     463733
cpu0_L2C LOAD      ACCESS:     446278  HIT:       5989  MISS:     440289
cpu0_L2C RFO       ACCESS:      23632  HIT:        624  MISS:      23008
cpu0_L2C PREFETCH  ACCESS:          0  HIT:          0  MISS:          0
cpu0_L2C WRITEBACK ACCESS:      47191  HIT:      46911  MISS:        280
LLC TOTAL     ACCESS:     503115  HIT:      13358  MISS:     489757
LLC LOAD      ACCESS:     440289  HIT:        245  MISS:     440044
LLC RFO       ACCESS:      23008  HIT:         27  MISS:      22981
LLC PREFETCH  ACCESS:          0  HIT:          0  MISS:          0
LLC WRITEBACK ACCESS:      39662  HIT:      13083  MISS:      26579
Heartbeat CPU 0 instructions: 62000000 cycles: 63172358 heartbeat IPC: 0.270164 cumulative IPC: 0.260488 (Simulation time: 0 hr 59 min 2 sec) 

Region of Interest Statistics
cpu0_DTLB TOTAL     ACCESS:    3959461  HIT:    3927375  MISS:      32086
cpu0_DTLB LOAD      ACCESS:    2731459  HIT:    2702700  MISS:      28759
cpu0_DTLB RFO       ACCESS:    1228002  HIT:    1224675  MISS:       3327
cpu0_DTLB PREFETCH  ACCESS:          0  HIT:          0  MISS:          0
cpu0_DTLB WRITEBACK ACCESS:          0  HIT:          0  MISS:          0
cpu0_ITLB TOTAL     ACCESS:    1130876  HIT:    1130876  MISS:          0
cpu0_ITLB LOAD      ACCESS:    1130876  HIT:    1130876  MISS:          0
cpu0_ITLB RFO       ACCESS:          0  HIT:          0  MISS:          0
cpu0_ITLB PREFETCH  ACCESS:          0  HIT:          0  MISS:          0
cpu0_ITLB WRITEBACK ACCESS:          0  HIT:          0  MISS:          0
cpu0_L1I TOTAL     ACCESS:     807410  HIT:     807410  MISS:          0
cpu0_L1I LOAD      ACCESS:     807410  HIT:     807410  MISS:          0
cpu0_L1I RFO       ACCESS:          0  HIT:          0  MISS:          0
cpu0_L1I PREFETCH  ACCESS:          0  HIT:          0  MISS:          0
cpu0_L1I WRITEBACK ACCESS:          0  HIT:          0  MISS:          0
cpu0_STLB TOTAL     ACCESS:      32086  HIT:      17994  MISS:      14092
cpu0_STLB LOAD      ACCESS:      28759  HIT:      15088  MISS:      13671
cpu0_STLB RFO       ACCESS:       3327  HIT:       2906  MISS:        421
cpu0_STLB PREFETCH  ACCESS:          0  HIT:          0  MISS:          0
cpu0_STLB WRITEBACK ACCESS:          0  HIT:          0  MISS:          0
cpu0_L1D TOTAL     ACCESS:    5589411  HIT:    5039904  MISS:     549507
cpu0_L1D LOAD      ACCESS:    2659306  HIT:    2137842  MISS:     521464
cpu0_L1D RFO       ACCESS:    2916013  HIT:    2888613  MISS:      27400
cpu0_L1D PREFETCH  ACCESS:          0  HIT:          0  MISS:          0
cpu0_L1D WRITEBACK ACCESS:          0  HIT:          0  MISS:          0
cpu0_L2C TOTAL     ACCESS:     606468  HIT:      65405  MISS:     541063
cpu0_L2C LOAD      ACCESS:     521464  HIT:       7649  MISS:     513815
cpu0_L2C RFO       ACCESS:      27398  HIT:        675  MISS:      26723
cpu0_L2C PREFETCH  ACCESS:          0  HIT:          0  MISS:          0
cpu0_L2C WRITEBACK ACCESS:      56963  HIT:      56628  MISS:        335
LLC TOTAL     ACCESS:     590717  HIT:      16135  MISS:     574582
LLC LOAD      ACCESS:     513815  HIT:        336  MISS:     513479
LLC RFO       ACCESS:      26723  HIT:         28  MISS:      26695
LLC PREFETCH  ACCESS:          0  HIT:          0  MISS:          0
LLC WRITEBACK ACCESS:      49989  HIT:      15767  MISS:      34222
Heartbeat CPU 0 instructions: 64000003 cycles: 70415489 heartbeat IPC: 0.276124 cumulative IPC: 0.262612 (Simulation time: 1 hr 2 min 31 sec) 

Region of Interest Statistics
cpu0_DTLB TOTAL     ACCESS:    4612890  HIT:    4576443  MISS:      36447
cpu0_DTLB LOAD      ACCESS:    3175821  HIT:    3142949  MISS:      32872
cpu0_DTLB RFO       ACCESS:    1437069  HIT:    1433494  MISS:       3575
cpu0_DTLB PREFETCH  ACCESS:          0  HIT:          0  MISS:          0
cpu0_DTLB WRITEBACK ACCESS:          0  HIT:          0  MISS:          0
cpu0_ITLB TOTAL     ACCESS:    1320718  HIT:    1320718  MISS:          0
cpu0_ITLB LOAD      ACCESS:    1320718  HIT:    1320718  MISS:          0
cpu0_ITLB RFO       ACCESS:          0  HIT:          0  MISS:          0
cpu0_ITLB PREFETCH  ACCESS:          0  HIT:          0  MISS:          0
cpu0_ITLB WRITEBACK ACCESS:          0  HIT:          0  MISS:          0
cpu0_L1I TOTAL     ACCESS:     932278  HIT:     932278  MISS:          0
cpu0_L1I LOAD      ACCESS:     932278  HIT:     932278  MISS:          0
cpu0_L1I RFO       ACCESS:          0  HIT:          0  MISS:          0
cpu0_L1I PREFETCH  ACCESS:          0  HIT:          0  MISS:          0
cpu0_L1I WRITEBACK ACCESS:          0  HIT:          0  MISS:          0
cpu0_STLB TOTAL     ACCESS:      36447  HIT:      20192  MISS:      16255
cpu0_STLB LOAD      ACCESS:      32872  HIT:      17099  MISS:      15773
cpu0_STLB RFO       ACCESS:       3575  HIT:       3093  MISS:        482
cpu0_STLB PREFETCH  ACCESS:          0  HIT:          0  MISS:          0
cpu0_STLB WRITEBACK ACCESS:          0  HIT:          0  MISS:          0
cpu0_L1D TOTAL     ACCESS:    6535891  HIT:    5908126  MISS:     627765
cpu0_L1D LOAD      ACCESS:    3097257  HIT:    2501644  MISS:     595613
cpu0_L1D RFO       ACCESS:    3422379  HIT:    3390996  MISS:      31383
cpu0_L1D PREFETCH  ACCESS:          0  HIT:          0  MISS:          0
cpu0_L1D WRITEBACK ACCESS:          0  HIT:          0  MISS:          0
cpu0_L2C TOTAL     ACCESS:     693100  HIT:      75062  MISS:     618038
cpu0_L2C LOAD      ACCESS:     595612  HIT:       8855  MISS:     586757
cpu0_L2C RFO       ACCESS:      31381  HIT:        720  MISS:      30661
cpu0_L2C PREFETCH  ACCESS:          0  HIT:          0  MISS:          0
cpu0_L2C WRITEBACK ACCESS:      65338  HIT:      64944  MISS:        394
LLC TOTAL     ACCESS:     674805  HIT:      18185  MISS:     656620
LLC LOAD      ACCESS:     586757  HIT:        393  MISS:     586364
LLC RFO       ACCESS:      30661  HIT:         29  MISS:      30632
LLC PREFETCH  ACCESS:          0  HIT:          0  MISS:          0
LLC WRITEBACK ACCESS:      57161  HIT:      17759  MISS:      39402
Heartbeat CPU 0 instructions: 66000002 cycles: 77565010 heartbeat IPC: 0.279739 cumulative IPC: 0.264637 (Simulation time: 1 hr 5 min 53 sec) 

Region of Interest Statistics
cpu0_DTLB TOTAL     ACCESS:    5265927  HIT:    5221106  MISS:      44821
cpu0_DTLB LOAD      ACCESS:    3620077  HIT:    3579111  MISS:      40966
cpu0_DTLB RFO       ACCESS:    1645850  HIT:    1641995  MISS:       3855
cpu0_DTLB PREFETCH  ACCESS:          0  HIT:          0  MISS:          0
cpu0_DTLB WRITEBACK ACCESS:          0  HIT:          0  MISS:          0
cpu0_ITLB TOTAL     ACCESS:    1509477  HIT:    1509477  MISS:          0
cpu0_ITLB LOAD      ACCESS:    1509477  HIT:    1509477  MISS:          0
cpu0_ITLB RFO       ACCESS:          0  HIT:          0  MISS:          0
cpu0_ITLB PREFETCH  ACCESS:          0  HIT:          0  MISS:          0
cpu0_ITLB WRITEBACK ACCESS:          0  HIT:          0  MISS:          0
cpu0_L1I TOTAL     ACCESS:    1059051  HIT:    1059051  MISS:          0
cpu0_L1I LOAD      ACCESS:    1059051  HIT:    1059051  MISS:          0
cpu0_L1I RFO       ACCESS:          0  HIT:          0  MISS:          0
cpu0_L1I PREFETCH  ACCESS:          0  HIT:          0  MISS:          0
cpu0_L1I WRITEBACK ACCESS:          0  HIT:          0  MISS:          0
cpu0_STLB TOTAL     ACCESS:      44821  HIT:      26495  MISS:      18326
cpu0_STLB LOAD      ACCESS:      40966  HIT:      23180  MISS:      17786
cpu0_STLB RFO       ACCESS:       3855  HIT:       3315  MISS:        540
cpu0_STLB PREFETCH  ACCESS:          0  HIT:          0  MISS:          0
cpu0_STLB WRITEBACK ACCESS:          0  HIT:          0  MISS:          0
cpu0_L1D TOTAL     ACCESS:    7482226  HIT:    6776880  MISS:     705346
cpu0_L1D LOAD      ACCESS:    3534670  HIT:    2865500  MISS:     669170
cpu0_L1D RFO       ACCESS:    3929230  HIT:    3893928  MISS:      35302
cpu0_L1D PREFETCH  ACCESS:          0  HIT:          0  MISS:          0
cpu0_L1D WRITEBACK ACCESS:          0  HIT:          0  MISS:          0
cpu0_L2C TOTAL     ACCESS:     778844  HIT:      84566  MISS:     694278
cpu0_L2C LOAD      ACCESS:     669169  HIT:      10122  MISS:     659047
cpu0_L2C RFO       ACCESS:      35300  HIT:        769  MISS:      34531
cpu0_L2C PREFETCH  ACCESS:          0  HIT:          0  MISS:          0
cpu0_L2C WRITEBACK ACCESS:      73501  HIT:      73054  MISS:        447
LLC TOTAL     ACCESS:     758261  HIT:      20192  MISS:     738069
LLC LOAD      ACCESS:     659047  HIT:        447  MISS:     658600
LLC RFO       ACCESS:      34531  HIT:         32  MISS:      34499
LLC PREFETCH  ACCESS:          0  HIT:          0  MISS:          0
LLC WRITEBACK ACCESS:      64430  HIT:      19708  MISS:      44722
Heartbeat CPU 0 instructions: 68000000 cycles: 85983711 heartbeat IPC: 0.237566 cumulative IPC: 0.261329 (Simulation time: 1 hr 9 min 56 sec) 

Region of Interest Statistics
cpu0_DTLB TOTAL     ACCESS:    5929669  HIT:    5878272  MISS:      51397
cpu0_DTLB LOAD      ACCESS:    4090987  HIT:    4043776  MISS:      47211
cpu0_DTLB RFO       ACCESS:    1838682  HIT:    1834496  MISS:       4186
cpu0_DTLB PREFETCH  ACCESS:          0  HIT:          0  MISS:          0
cpu0_DTLB WRITEBACK ACCESS:          0  HIT:          0  MISS:          0
cpu0_ITLB TOTAL     ACCESS:    1701645  HIT:    1701645  MISS:          0
cpu0_ITLB LOAD      ACCESS:    1701645  HIT:    1701645  MISS:          0
cpu0_ITLB RFO       ACCESS:          0  HIT:          0  MISS:          0
cpu0_ITLB PREFETCH  ACCESS:          0  HIT:          0  MISS:          0
cpu0_ITLB WRITEBACK ACCESS:          0  HIT:          0  MISS:          0
cpu0_L1I TOTAL     ACCESS:    1199592  HIT:    1199592  MISS:          0
cpu0_L1I LOAD      ACCESS:    1199592  HIT:    1199592  MISS:          0
cpu0_L1I RFO       ACCESS:          0  HIT:          0  MISS:          0
cpu0_L1I PREFETCH  ACCESS:          0  HIT:          0  MISS:          0
cpu0_L1I WRITEBACK ACCESS:          0  HIT:          0  MISS:          0
cpu0_STLB TOTAL     ACCESS:      51397  HIT:      30354  MISS:      21043
cpu0_STLB LOAD      ACCESS:      47211  HIT:      26808  MISS:      20403
cpu0_STLB RFO       ACCESS:       4186  HIT:       3546  MISS:        640
cpu0_STLB PREFETCH  ACCESS:          0  HIT:          0  MISS:          0
cpu0_STLB WRITEBACK ACCESS:          0  HIT:          0  MISS:          0
cpu0_L1D TOTAL     ACCESS:    8406503  HIT:    7590944  MISS:     815559
cpu0_L1D LOAD      ACCESS:    4007975  HIT:    3234995  MISS:     772980
cpu0_L1D RFO       ACCESS:    4377485  HIT:    4335870  MISS:      41615
cpu0_L1D PREFETCH  ACCESS:          0  HIT:          0  MISS:          0
cpu0_L1D WRITEBACK ACCESS:          0  HIT:          0  MISS:          0
cpu0_L2C TOTAL     ACCESS:     898971  HIT:      96109  MISS:     802862
cpu0_L2C LOAD      ACCESS:     772979  HIT:      11680  MISS:     761299
cpu0_L2C RFO       ACCESS:      41613  HIT:        868  MISS:      40745
cpu0_L2C PREFETCH  ACCESS:          0  HIT:          0  MISS:          0
cpu0_L2C WRITEBACK ACCESS:      83415  HIT:      82871  MISS:        544
LLC TOTAL     ACCESS:     876653  HIT:      23707  MISS:     852946
LLC LOAD      ACCESS:     761299  HIT:        488  MISS:     760811
LLC RFO       ACCESS:      40745  HIT:         36  MISS:      40709
LLC PREFETCH  ACCESS:          0  HIT:          0  MISS:          0
LLC WRITEBACK ACCESS:      74335  HIT:      23178  MISS:      51157
Heartbeat CPU 0 instructions: 70000003 cycles: 91538996 heartbeat IPC: 0.360018 cumulative IPC: 0.268694 (Simulation time: 1 hr 12 min 41 sec) 

Region of Interest Statistics
cpu0_DTLB TOTAL     ACCESS:    6575296  HIT:    6516570  MISS:      58726
cpu0_DTLB LOAD      ACCESS:    4515849  HIT:    4461647  MISS:      54202
cpu0_DTLB RFO       ACCESS:    2059447  HIT:    2054923  MISS:       4524
cpu0_DTLB PREFETCH  ACCESS:          0  HIT:          0  MISS:          0
cpu0_DTLB WRITEBACK ACCESS:          0  HIT:          0  MISS:          0
cpu0_ITLB TOTAL     ACCESS:    1888185  HIT:    1888185  MISS:          0
cpu0_ITLB LOAD      ACCESS:    1888185  HIT:    1888185  MISS:          0
cpu0_ITLB RFO       ACCESS:          0  HIT:          0  MISS:          0
cpu0_ITLB PREFETCH  ACCESS:          0  HIT:          0  MISS:          0
cpu0_ITLB WRITEBACK ACCESS:          0  HIT:          0  MISS:          0
cpu0_L1I TOTAL     ACCESS:    1308328  HIT:    1308328  MISS:          0
cpu0_L1I LOAD      ACCESS:    1308328  HIT:    1308328  MISS:          0
cpu0_L1I RFO       ACCESS:          0  HIT:          0  MISS:          0
cpu0_L1I PREFETCH  ACCESS:          0  HIT:          0  MISS:          0
cpu0_L1I WRITEBACK ACCESS:          0  HIT:          0  MISS:          0
cpu0_STLB TOTAL     ACCESS:      58726  HIT:      36381  MISS:      22345
cpu0_STLB LOAD      ACCESS:      54202  HIT:      32542  MISS:      21660
cpu0_STLB RFO       ACCESS:       4524  HIT:       3839  MISS:        685
cpu0_STLB PREFETCH  ACCESS:          0  HIT:          0  MISS:          0
cpu0_STLB WRITEBACK ACCESS:          0  HIT:          0  MISS:          0
cpu0_L1D TOTAL     ACCESS:    9368662  HIT:    8503157  MISS:     865505
cpu0_L1D LOAD      ACCESS:    4409998  HIT:    3590180  MISS:     819818
cpu0_L1D RFO       ACCESS:    4936319  HIT:    4891673  MISS:      44646
cpu0_L1D PREFETCH  ACCESS:          0  HIT:          0  MISS:          0
cpu0_L1D WRITEBACK ACCESS:          0  HIT:          0  MISS:          0
cpu0_L2C TOTAL     ACCESS:     957029  HIT:     104615  MISS:     852414
cpu0_L2C LOAD      ACCESS:     819817  HIT:      12002  MISS:     807815
cpu0_L2C RFO       ACCESS:      44644  HIT:        890  MISS:      43754
cpu0_L2C PREFETCH  ACCESS:          0  HIT:          0  MISS:          0
cpu0_L2C WRITEBACK ACCESS:      91527  HIT:      90975  MISS:        552
LLC TOTAL     ACCESS:     930313  HIT:      25320  MISS:     904993
LLC LOAD      ACCESS:     807815  HIT:        507  MISS:     807308
LLC RFO       ACCESS:      43754  HIT:         38  MISS:      43716
LLC PREFETCH  ACCESS:          0  HIT:          0  MISS:          0
LLC WRITEBACK ACCESS:      78451  HIT:      24770  MISS:      53681
Heartbeat CPU 0 instructions: 72000001 cycles: 99067558 heartbeat IPC: 0.265655 cumulative IPC: 0.268415 (Simulation time: 1 hr 16 min 17 sec) 

Region of Interest Statistics
cpu0_DTLB TOTAL     ACCESS:    7227773  HIT:    7159646  MISS:      68127
cpu0_DTLB LOAD      ACCESS:    4957562  HIT:    4894229  MISS:      63333
cpu0_DTLB RFO       ACCESS:    2270211  HIT:    2265417  MISS:       4794
cpu0_DTLB PREFETCH  ACCESS:          0  HIT:          0  MISS:          0
cpu0_DTLB WRITEBACK ACCESS:          0  HIT:          0  MISS:          0
cpu0_ITLB TOTAL     ACCESS:    2077206  HIT:    2077206  MISS:          0
cpu0_ITLB LOAD      ACCESS:    2077206  HIT:    2077206  MISS:          0
cpu0_ITLB RFO       ACCESS:          0  HIT:          0  MISS:          0
cpu0_ITLB PREFETCH  ACCESS:          0  HIT:          0  MISS:          0
cpu0_ITLB WRITEBACK ACCESS:          0  HIT:          0  MISS:          0
cpu0_L1I TOTAL     ACCESS:    1430740  HIT:    1430740  MISS:          0
cpu0_L1I LOAD      ACCESS:    1430740  HIT:    1430740  MISS:          0
cpu0_L1I RFO       ACCESS:          0  HIT:          0  MISS:          0
cpu0_L1I PREFETCH  ACCESS:          0  HIT:          0  MISS:          0
cpu0_L1I WRITEBACK ACCESS:          0  HIT:          0  MISS:          0
cpu0_STLB TOTAL     ACCESS:      68127  HIT:      43715  MISS:      24412
cpu0_STLB LOAD      ACCESS:      63333  HIT:      39660  MISS:      23673
cpu0_STLB RFO       ACCESS:       4794  HIT:       4055  MISS:        739
cpu0_STLB PREFETCH  ACCESS:          0  HIT:          0  MISS:          0
cpu0_STLB WRITEBACK ACCESS:          0  HIT:          0  MISS:          0
cpu0_L1D TOTAL     ACCESS:   10317552  HIT:    9374771  MISS:     942781
cpu0_L1D LOAD      ACCESS:    4840495  HIT:    3946933  MISS:     893562
cpu0_L1D RFO       ACCESS:    5452645  HIT:    5404598  MISS:      48047
cpu0_L1D PREFETCH  ACCESS:          0  HIT:          0  MISS:          0
cpu0_L1D WRITEBACK ACCESS:          0  HIT:          0  MISS:          0
cpu0_L2C TOTAL     ACCESS:    1045506  HIT:     117519  MISS:     927987
cpu0_L2C LOAD      ACCESS:     893560  HIT:      13599  MISS:     879961
cpu0_L2C RFO       ACCESS:      48045  HIT:        947  MISS:      47098
cpu0_L2C PREFETCH  ACCESS:          0  HIT:          0  MISS:          0
cpu0_L2C WRITEBACK ACCESS:     102729  HIT:     102121  MISS:        608
LLC TOTAL     ACCESS:    1017391  HIT:      26964  MISS:     990427
LLC LOAD      ACCESS:     879961  HIT:        594  MISS:     879367
LLC RFO       ACCESS:      47098  HIT:         42  MISS:      47056
LLC PREFETCH  ACCESS:          0  HIT:          0  MISS:          0
LLC WRITEBACK ACCESS:      90012  HIT:      26323  MISS:      63689
Heartbeat CPU 0 instructions: 74000003 cycles: 110586951 heartbeat IPC: 0.17362 cumulative IPC: 0.256734 (Simulation time: 1 hr 21 min 45 sec) 

Region of Interest Statistics
cpu0_DTLB TOTAL     ACCESS:    7908613  HIT:    7831821  MISS:      76792
cpu0_DTLB LOAD      ACCESS:    5472499  HIT:    5400825  MISS:      71674
cpu0_DTLB RFO       ACCESS:    2436114  HIT:    2430996  MISS:       5118
cpu0_DTLB PREFETCH  ACCESS:          0  HIT:          0  MISS:          0
cpu0_DTLB WRITEBACK ACCESS:          0  HIT:          0  MISS:          0
cpu0_ITLB TOTAL     ACCESS:    2280481  HIT:    2280481  MISS:          0
cpu0_ITLB LOAD      ACCESS:    2280481  HIT:    2280481  MISS:          0
cpu0_ITLB RFO       ACCESS:          0  HIT:          0  MISS:          0
cpu0_ITLB PREFETCH  ACCESS:          0  HIT:          0  MISS:          0
cpu0_ITLB WRITEBACK ACCESS:          0  HIT:          0  MISS:          0
cpu0_L1I TOTAL     ACCESS:    1590828  HIT:    1590828  MISS:          0
cpu0_L1I LOAD      ACCESS:    1590828  HIT:    1590828  MISS:          0
cpu0_L1I RFO       ACCESS:          0  HIT:          0  MISS:          0
cpu0_L1I PREFETCH  ACCESS:          0  HIT:          0  MISS:          0
cpu0_L1I WRITEBACK ACCESS:          0  HIT:          0  MISS:          0
cpu0_STLB TOTAL     ACCESS:      76792  HIT:      48004  MISS:      28788
cpu0_STLB LOAD      ACCESS:      71674  HIT:      43751  MISS:      27923
cpu0_STLB RFO       ACCESS:       5118  HIT:       4253  MISS:        865
cpu0_STLB PREFETCH  ACCESS:          0  HIT:          0  MISS:          0
cpu0_STLB WRITEBACK ACCESS:          0  HIT:          0  MISS:          0
cpu0_L1D TOTAL     ACCESS:   11206830  HIT:   10092758  MISS:    1114072
cpu0_L1D LOAD      ACCESS:    5378327  HIT:    4321699  MISS:    1056628
cpu0_L1D RFO       ACCESS:    5799715  HIT:    5743571  MISS:      56144
cpu0_L1D PREFETCH  ACCESS:          0  HIT:          0  MISS:          0
cpu0_L1D WRITEBACK ACCESS:          0  HIT:          0  MISS:          0
cpu0_L2C TOTAL     ACCESS:    1229091  HIT:     132046  MISS:    1097045
cpu0_L2C LOAD      ACCESS:    1056626  HIT:      15704  MISS:    1040922
cpu0_L2C RFO       ACCESS:      56142  HIT:       1066  MISS:      55076
cpu0_L2C PREFETCH  ACCESS:          0  HIT:          0  MISS:          0
cpu0_L2C WRITEBACK ACCESS:     115023  HIT:     114343  MISS:        680
LLC TOTAL     ACCESS:    1199186  HIT:      30681  MISS:    1168505
LLC LOAD      ACCESS:    1040922  HIT:        679  MISS:    1040243
LLC RFO       ACCESS:      55076  HIT:         46  MISS:      55030
LLC PREFETCH  ACCESS:          0  HIT:          0  MISS:          0
LLC WRITEBACK ACCESS:     102821  HIT:      29949  MISS:      72872
Heartbeat CPU 0 instructions: 76000000 cycles: 118126451 heartbeat IPC: 0.265269 cumulative IPC: 0.257371 (Simulation time: 1 hr 25 min 24 sec) 

Region of Interest Statistics
cpu0_DTLB TOTAL     ACCESS:    8564585  HIT:    8482473  MISS:      82112
cpu0_DTLB LOAD      ACCESS:    5924217  HIT:    5847584  MISS:      76633
cpu0_DTLB RFO       ACCESS:    2640368  HIT:    2634889  MISS:       5479
cpu0_DTLB PREFETCH  ACCESS:          0  HIT:          0  MISS:          0
cpu0_DTLB WRITEBACK ACCESS:          0  HIT:          0  MISS:          0
cpu0_ITLB TOTAL     ACCESS:    2470578  HIT:    2470578  MISS:          0
cpu0_ITLB LOAD      ACCESS:    2470578  HIT:    2470578  MISS:          0
cpu0_ITLB RFO       ACCESS:          0  HIT:          0  MISS:          0
cpu0_ITLB PREFETCH  ACCESS:          0  HIT:          0  MISS:          0
cpu0_ITLB WRITEBACK ACCESS:          0  HIT:          0  MISS:          0
cpu0_L1I TOTAL     ACCESS:    1723324  HIT:    1723324  MISS:          0
cpu0_L1I LOAD      ACCESS:    1723324  HIT:    1723324  MISS:          0
cpu0_L1I RFO       ACCESS:          0  HIT:          0  MISS:          0
cpu0_L1I PREFETCH  ACCESS:          0  HIT:          0  MISS:          0
cpu0_L1I WRITEBACK ACCESS:          0  HIT:          0  MISS:          0
cpu0_STLB TOTAL     ACCESS:      82112  HIT:      50965  MISS:      31147
cpu0_STLB LOAD      ACCESS:      76633  HIT:      46410  MISS:      30223
cpu0_STLB RFO       ACCESS:       5479  HIT:       4555  MISS:        924
cpu0_STLB PREFETCH  ACCESS:          0  HIT:          0  MISS:          0
cpu0_STLB WRITEBACK ACCESS:          0  HIT:          0  MISS:          0
cpu0_L1D TOTAL     ACCESS:   12145730  HIT:   10944597  MISS:    1201133
cpu0_L1D LOAD      ACCESS:    5825747  HIT:    4686082  MISS:    1139665
cpu0_L1D RFO       ACCESS:    6288836  HIT:    6228770  MISS:      60066
cpu0_L1D PREFETCH  ACCESS:          0  HIT:          0  MISS:          0
cpu0_L1D WRITEBACK ACCESS:          0  HIT:          0  MISS:          0
cpu0_L2C TOTAL     ACCESS:    1323706  HIT:     140282  MISS:    1183424
cpu0_L2C LOAD      ACCESS:    1139663  HIT:      16326  MISS:    1123337
cpu0_L2C RFO       ACCESS:      60064  HIT:       1103  MISS:      58961
cpu0_L2C PREFETCH  ACCESS:          0  HIT:          0  MISS:          0
cpu0_L2C WRITEBACK ACCESS:     122577  HIT:     121845  MISS:        732
LLC TOTAL     ACCESS:    1292574  HIT:      32946  MISS:    1259628
LLC LOAD      ACCESS:    1123337  HIT:        702  MISS:    1122635
LLC RFO       ACCESS:      58961  HIT:         48  MISS:      58913
LLC PREFETCH  ACCESS:          0  HIT:          0  MISS:          0
LLC WRITEBACK ACCESS:     109882  HIT:      32188  MISS:      77694
Heartbeat CPU 0 instructions: 78000003 cycles: 126779229 heartbeat IPC: 0.23114 cumulative IPC: 0.255301 (Simulation time: 1 hr 29 min 41 sec) 

Region of Interest Statistics
cpu0_DTLB TOTAL     ACCESS:    9230733  HIT:    9144122  MISS:      86611
cpu0_DTLB LOAD      ACCESS:    6397683  HIT:    6316769  MISS:      80914
cpu0_DTLB RFO       ACCESS:    2833050  HIT:    2827353  MISS:       5697
cpu0_DTLB PREFETCH  ACCESS:          0  HIT:          0  MISS:          0
cpu0_DTLB WRITEBACK ACCESS:          0  HIT:          0  MISS:          0
cpu0_ITLB TOTAL     ACCESS:    2661123  HIT:    2661123  MISS:          0
cpu0_ITLB LOAD      ACCESS:    2661123  HIT:    2661123  MISS:          0
cpu0_ITLB RFO       ACCESS:          0  HIT:          0  MISS:          0
cpu0_ITLB PREFETCH  ACCESS:          0  HIT:          0  MISS:          0
cpu0_ITLB WRITEBACK ACCESS:          0  HIT:          0  MISS:          0
cpu0_L1I TOTAL     ACCESS:    1871431  HIT:    1871431  MISS:          0
cpu0_L1I LOAD      ACCESS:    1871431  HIT:    1871431  MISS:          0
cpu0_L1I RFO       ACCESS:          0  HIT:          0  MISS:          0
cpu0_L1I PREFETCH  ACCESS:          0  HIT:          0  MISS:          0
cpu0_L1I WRITEBACK ACCESS:          0  HIT:          0  MISS:          0
cpu0_STLB TOTAL     ACCESS:      86611  HIT:      52390  MISS:      34221
cpu0_STLB LOAD      ACCESS:      80914  HIT:      47708  MISS:      33206
cpu0_STLB RFO       ACCESS:       5697  HIT:       4682  MISS:       1015
cpu0_STLB PREFETCH  ACCESS:          0  HIT:          0  MISS:          0
cpu0_STLB WRITEBACK ACCESS:          0  HIT:          0  MISS:          0
cpu0_L1D TOTAL     ACCESS:   13068188  HIT:   11752043  MISS:    1316145
cpu0_L1D LOAD      ACCESS:    6302385  HIT:    5053592  MISS:    1248793
cpu0_L1D RFO       ACCESS:    6731582  HIT:    6665773  MISS:      65809
cpu0_L1D PREFETCH  ACCESS:          0  HIT:          0  MISS:          0
cpu0_L1D WRITEBACK ACCESS:          0  HIT:          0  MISS:          0
cpu0_L2C TOTAL     ACCESS:    1448206  HIT:     151003  MISS:    1297203
cpu0_L2C LOAD      ACCESS:    1248791  HIT:      17436  MISS:    1231355
cpu0_L2C RFO       ACCESS:      65807  HIT:       1158  MISS:      64649
cpu0_L2C PREFETCH  ACCESS:          0  HIT:          0  MISS:          0
cpu0_L2C WRITEBACK ACCESS:     132065  HIT:     131297  MISS:        768
LLC TOTAL     ACCESS:    1412439  HIT:      35401  MISS:    1377038
LLC LOAD      ACCESS:    1231355  HIT:        741  MISS:    1230614
LLC RFO       ACCESS:      64649  HIT:         54  MISS:      64595
LLC PREFETCH  ACCESS:          0  HIT:          0  MISS:          0
LLC WRITEBACK ACCESS:     116004  HIT:      34598  MISS:      81406
Heartbeat CPU 0 instructions: 80000004 cycles: 139607533 heartbeat IPC: 0.155905 cumulative IPC: 0.244893 (Simulation time: 1 hr 35 min 50 sec) 

Region of Interest Statistics
cpu0_DTLB TOTAL     ACCESS:    9923112  HIT:    9830377  MISS:      92735
cpu0_DTLB LOAD      ACCESS:    6941013  HIT:    6854149  MISS:      86864
cpu0_DTLB RFO       ACCESS:    2982099  HIT:    2976228  MISS:       5871
cpu0_DTLB PREFETCH  ACCESS:          0  HIT:          0  MISS:          0
cpu0_DTLB WRITEBACK ACCESS:          0  HIT:          0  MISS:          0
cpu0_ITLB TOTAL     ACCESS:    2864742  HIT:    2864742  MISS:          0
cpu0_ITLB LOAD      ACCESS:    2864742  HIT:    2864742  MISS:          0
cpu0_ITLB RFO       ACCESS:          0  HIT:          0  MISS:          0
cpu0_ITLB PREFETCH  ACCESS:          0  HIT:          0  MISS:          0
cpu0_ITLB WRITEBACK ACCESS:          0  HIT:          0  MISS:          0
cpu0_L1I TOTAL     ACCESS:    2058458  HIT:    2058458  MISS:          0
cpu0_L1I LOAD      ACCESS:    2058458  HIT:    2058458  MISS:          0
cpu0_L1I RFO       ACCESS:          0  HIT:          0  MISS:          0
cpu0_L1I PREFETCH  ACCESS:          0  HIT:          0  MISS:          0
cpu0_L1I WRITEBACK ACCESS:          0  HIT:          0  MISS:          0
cpu0_STLB TOTAL     ACCESS:      92735  HIT:      53246  MISS:      39489
cpu0_STLB LOAD      ACCESS:      86864  HIT:      48514  MISS:      38350
cpu0_STLB RFO       ACCESS:       5871  HIT:       4732  MISS:       1139
cpu0_STLB PREFETCH  ACCESS:          0  HIT:          0  MISS:          0
cpu0_STLB WRITEBACK ACCESS:          0  HIT:          0  MISS:          0
cpu0_L1D TOTAL     ACCESS:   13931779  HIT:   12407457  MISS:    1524322
cpu0_L1D LOAD      ACCESS:    6877098  HIT:    5428660  MISS:    1448438
cpu0_L1D RFO       ACCESS:    7015192  HIT:    6940987  MISS:      74205
cpu0_L1D PREFETCH  ACCESS:          0  HIT:          0  MISS:          0
cpu0_L1D WRITEBACK ACCESS:          0  HIT:          0  MISS:          0
cpu0_L2C TOTAL     ACCESS:    1667905  HIT:     164680  MISS:    1503225
cpu0_L2C LOAD      ACCESS:    1448436  HIT:      19381  MISS:    1429055
cpu0_L2C RFO       ACCESS:      74203  HIT:       1404  MISS:      72799
cpu0_L2C PREFETCH  ACCESS:          0  HIT:          0  MISS:          0
cpu0_L2C WRITEBACK ACCESS:     143587  HIT:     142703  MISS:        884
LLC TOTAL     ACCESS:    1630403  HIT:      39420  MISS:    1590983
LLC LOAD      ACCESS:    1429055  HIT:        806  MISS:    1428249
LLC RFO       ACCESS:      72799  HIT:         66  MISS:      72733
LLC PREFETCH  ACCESS:          0  HIT:          0  MISS:          0
LLC WRITEBACK ACCESS:     128062  HIT:      38540  MISS:      89522
Heartbeat CPU 0 instructions: 82000000 cycles: 143727219 heartbeat IPC: 0.485473 cumulative IPC: 0.25272 (Simulation time: 1 hr 37 min 50 sec) 

Region of Interest Statistics
cpu0_DTLB TOTAL     ACCESS:   10560085  HIT:   10465144  MISS:      94941
cpu0_DTLB LOAD      ACCESS:    7343932  HIT:    7255171  MISS:      88761
cpu0_DTLB RFO       ACCESS:    3216153  HIT:    3209973  MISS:       6180
cpu0_DTLB PREFETCH  ACCESS:          0  HIT:          0  MISS:          0
cpu0_DTLB WRITEBACK ACCESS:          0  HIT:          0  MISS:          0
cpu0_ITLB TOTAL     ACCESS:    3045804  HIT:    3045804  MISS:          0
cpu0_ITLB LOAD      ACCESS:    3045804  HIT:    3045804  MISS:          0
cpu0_ITLB RFO       ACCESS:          0  HIT:          0  MISS:          0
cpu0_ITLB PREFETCH  ACCESS:          0  HIT:          0  MISS:          0
cpu0_ITLB WRITEBACK ACCESS:          0  HIT:          0  MISS:          0
cpu0_L1I TOTAL     ACCESS:    2155799  HIT:    2155799  MISS:          0
cpu0_L1I LOAD      ACCESS:    2155799  HIT:    2155799  MISS:          0
cpu0_L1I RFO       ACCESS:          0  HIT:          0  MISS:          0
cpu0_L1I PREFETCH  ACCESS:          0  HIT:          0  MISS:          0
cpu0_L1I WRITEBACK ACCESS:          0  HIT:          0  MISS:          0
cpu0_STLB TOTAL     ACCESS:      94941  HIT:      55065  MISS:      39876
cpu0_STLB LOAD      ACCESS:      88761  HIT:      50075  MISS:      38686
cpu0_STLB RFO       ACCESS:       6180  HIT:       4990  MISS:       1190
cpu0_STLB PREFETCH  ACCESS:          0  HIT:          0  MISS:          0
cpu0_STLB WRITEBACK ACCESS:          0  HIT:          0  MISS:          0
cpu0_L1D TOTAL     ACCESS:   14912794  HIT:   13370372  MISS:    1542422
cpu0_L1D LOAD      ACCESS:    7249486  HIT:    5786327  MISS:    1463159
cpu0_L1D RFO       ACCESS:    7623432  HIT:    7545910  MISS:      77522
cpu0_L1D PREFETCH  ACCESS:          0  HIT:          0  MISS:          0
cpu0_L1D WRITEBACK ACCESS:          0  HIT:          0  MISS:          0
cpu0_L2C TOTAL     ACCESS:    1693542  HIT:     172556  MISS:    1520986
cpu0_L2C LOAD      ACCESS:    1463157  HIT:      19663  MISS:    1443494
cpu0_L2C RFO       ACCESS:      77520  HIT:       1409  MISS:      76111
cpu0_L2C PREFETCH  ACCESS:          0  HIT:          0  MISS:          0
cpu0_L2C WRITEBACK ACCESS:     151124  HIT:     150232  MISS:        892
LLC TOTAL     ACCESS:    1652993  HIT:      41334  MISS:    1611659
LLC LOAD      ACCESS:    1443494  HIT:        818  MISS:    1442676
LLC RFO       ACCESS:      76111  HIT:         66  MISS:      76045
LLC PREFETCH  ACCESS:          0  HIT:          0  MISS:          0
LLC WRITEBACK ACCESS:     132899  HIT:      40442  MISS:      92457
Heartbeat CPU 0 instructions: 84000002 cycles: 152620780 heartbeat IPC: 0.224882 cumulative IPC: 0.250893 (Simulation time: 1 hr 42 min 34 sec) 

Region of Interest Statistics
cpu0_DTLB TOTAL     ACCESS:   11230194  HIT:   11129843  MISS:     100351
cpu0_DTLB LOAD      ACCESS:    7832680  HIT:    7738670  MISS:      94010
cpu0_DTLB RFO       ACCESS:    3397514  HIT:    3391173  MISS:       6341
cpu0_DTLB PREFETCH  ACCESS:          0  HIT:          0  MISS:          0
cpu0_DTLB WRITEBACK ACCESS:          0  HIT:          0  MISS:          0
cpu0_ITLB TOTAL     ACCESS:    3235065  HIT:    3235065  MISS:          0
cpu0_ITLB LOAD      ACCESS:    3235065  HIT:    3235065  MISS:          0
cpu0_ITLB RFO       ACCESS:          0  HIT:          0  MISS:          0
cpu0_ITLB PREFETCH  ACCESS:          0  HIT:          0  MISS:          0
cpu0_ITLB WRITEBACK ACCESS:          0  HIT:          0  MISS:          0
cpu0_L1I TOTAL     ACCESS:    2334747  HIT:    2334747  MISS:          0
cpu0_L1I LOAD      ACCESS:    2334747  HIT:    2334747  MISS:          0
cpu0_L1I RFO       ACCESS:          0  HIT:          0  MISS:          0
cpu0_L1I PREFETCH  ACCESS:          0  HIT:          0  MISS:          0
cpu0_L1I WRITEBACK ACCESS:          0  HIT:          0  MISS:          0
cpu0_STLB TOTAL     ACCESS:     100351  HIT:      57061  MISS:      43290
cpu0_STLB LOAD      ACCESS:      94010  HIT:      51946  MISS:      42064
cpu0_STLB RFO       ACCESS:       6341  HIT:       5115  MISS:       1226
cpu0_STLB PREFETCH  ACCESS:          0  HIT:          0  MISS:          0
cpu0_STLB WRITEBACK ACCESS:          0  HIT:          0  MISS:          0
cpu0_L1D TOTAL     ACCESS:   15821209  HIT:   14142914  MISS:    1678295
cpu0_L1D LOAD      ACCESS:    7748406  HIT:    6151860  MISS:    1596546
cpu0_L1D RFO       ACCESS:    8029513  HIT:    7949575  MISS:      79938
cpu0_L1D PREFETCH  ACCESS:          0  HIT:          0  MISS:          0
cpu0_L1D WRITEBACK ACCESS:          0  HIT:          0  MISS:          0
cpu0_L2C TOTAL     ACCESS:    1835035  HIT:     179899  MISS:    1655136
cpu0_L2C LOAD      ACCESS:    1596543  HIT:      21334  MISS:    1575209
cpu0_L2C RFO       ACCESS:      79935  HIT:       1473  MISS:      78462
cpu0_L2C PREFETCH  ACCESS:          0  HIT:          0  MISS:          0
cpu0_L2C WRITEBACK ACCESS:     156746  HIT:     155803  MISS:        943
LLC TOTAL     ACCESS:    1792144  HIT:      42288  MISS:    1749856
LLC LOAD      ACCESS:    1575209  HIT:        879  MISS:    1574330
LLC RFO       ACCESS:      78462  HIT:         69  MISS:      78393
LLC PREFETCH  ACCESS:          0  HIT:          0  MISS:          0
LLC WRITEBACK ACCESS:     137951  HIT:      41331  MISS:      96620
Heartbeat CPU 0 instructions: 86000001 cycles: 159411975 heartbeat IPC: 0.294499 cumulative IPC: 0.252974 (Simulation time: 1 hr 45 min 51 sec) 

Region of Interest Statistics
cpu0_DTLB TOTAL     ACCESS:   11883134  HIT:   11777140  MISS:     105994
cpu0_DTLB LOAD      ACCESS:    8276826  HIT:    8177446  MISS:      99380
cpu0_DTLB RFO       ACCESS:    3606308  HIT:    3599694  MISS:       6614
cpu0_DTLB PREFETCH  ACCESS:          0  HIT:          0  MISS:          0
cpu0_DTLB WRITEBACK ACCESS:          0  HIT:          0  MISS:          0
cpu0_ITLB TOTAL     ACCESS:    3421979  HIT:    3421979  MISS:          0
cpu0_ITLB LOAD      ACCESS:    3421979  HIT:    3421979  MISS:          0
cpu0_ITLB RFO       ACCESS:          0  HIT:          0  MISS:          0
cpu0_ITLB PREFETCH  ACCESS:          0  HIT:          0  MISS:          0
cpu0_ITLB WRITEBACK ACCESS:          0  HIT:          0  MISS:          0
cpu0_L1I TOTAL     ACCESS:    2464416  HIT:    2464416  MISS:          0
cpu0_L1I LOAD      ACCESS:    2464416  HIT:    2464416  MISS:          0
cpu0_L1I RFO       ACCESS:          0  HIT:          0  MISS:          0
cpu0_L1I PREFETCH  ACCESS:          0  HIT:          0  MISS:          0
cpu0_L1I WRITEBACK ACCESS:          0  HIT:          0  MISS:          0
cpu0_STLB TOTAL     ACCESS:     105994  HIT:      60807  MISS:      45187
cpu0_STLB LOAD      ACCESS:      99380  HIT:      55475  MISS:      43905
cpu0_STLB RFO       ACCESS:       6614  HIT:       5332  MISS:       1282
cpu0_STLB PREFETCH  ACCESS:          0  HIT:          0  MISS:          0
cpu0_STLB WRITEBACK ACCESS:          0  HIT:          0  MISS:          0
cpu0_L1D TOTAL     ACCESS:   16766919  HIT:   15013100  MISS:    1753819
cpu0_L1D LOAD      ACCESS:    8183253  HIT:    6514933  MISS:    1668320
cpu0_L1D RFO       ACCESS:    8538479  HIT:    8454860  MISS:      83619
cpu0_L1D PREFETCH  ACCESS:          0  HIT:          0  MISS:          0
cpu0_L1D WRITEBACK ACCESS:          0  HIT:          0  MISS:          0
cpu0_L2C TOTAL     ACCESS:    1917787  HIT:     188340  MISS:    1729447
cpu0_L2C LOAD      ACCESS:    1668317  HIT:      22492  MISS:    1645825
cpu0_L2C RFO       ACCESS:      83616  HIT:       1544  MISS:      82072
cpu0_L2C PREFETCH  ACCESS:          0  HIT:          0  MISS:          0
cpu0_L2C WRITEBACK ACCESS:     163974  HIT:     162967  MISS:       1007
LLC TOTAL     ACCESS:    1872888  HIT:      43891  MISS:    1828997
LLC LOAD      ACCESS:    1645825  HIT:        916  MISS:    1644909
LLC RFO       ACCESS:      82072  HIT:         73  MISS:      81999
LLC PREFETCH  ACCESS:          0  HIT:          0  MISS:          0
LLC WRITEBACK ACCESS:     144448  HIT:      42893  MISS:     101555
Heartbeat CPU 0 instructions: 88000001 cycles: 169757992 heartbeat IPC: 0.193311 cumulative IPC: 0.24893 (Simulation time: 1 hr 50 min 43 sec) 

Region of Interest Statistics
cpu0_DTLB TOTAL     ACCESS:   12556291  HIT:   12445050  MISS:     111241
cpu0_DTLB LOAD      ACCESS:    8770760  HIT:    8666306  MISS:     104454
cpu0_DTLB RFO       ACCESS:    3785531  HIT:    3778744  MISS:       6787
cpu0_DTLB PREFETCH  ACCESS:          0  HIT:          0  MISS:          0
cpu0_DTLB WRITEBACK ACCESS:          0  HIT:          0  MISS:          0
cpu0_ITLB TOTAL     ACCESS:    3618523  HIT:    3618523  MISS:          0
cpu0_ITLB LOAD      ACCESS:    3618523  HIT:    3618523  MISS:          0
cpu0_ITLB RFO       ACCESS:          0  HIT:          0  MISS:          0
cpu0_ITLB PREFETCH  ACCESS:          0  HIT:          0  MISS:          0
cpu0_ITLB WRITEBACK ACCESS:          0  HIT:          0  MISS:          0
cpu0_L1I TOTAL     ACCESS:    2620402  HIT:    2620402  MISS:          0
cpu0_L1I LOAD      ACCESS:    2620402  HIT:    2620402  MISS:          0
cpu0_L1I RFO       ACCESS:          0  HIT:          0  MISS:          0
cpu0_L1I PREFETCH  ACCESS:          0  HIT:          0  MISS:          0
cpu0_L1I WRITEBACK ACCESS:          0  HIT:          0  MISS:          0
cpu0_STLB TOTAL     ACCESS:     111241  HIT:      62168  MISS:      49073
cpu0_STLB LOAD      ACCESS:     104454  HIT:      56759  MISS:      47695
cpu0_STLB RFO       ACCESS:       6787  HIT:       5409  MISS:       1378
cpu0_STLB PREFETCH  ACCESS:          0  HIT:          0  MISS:          0
cpu0_STLB WRITEBACK ACCESS:          0  HIT:          0  MISS:          0
cpu0_L1D TOTAL     ACCESS:   17672676  HIT:   15774095  MISS:    1898581
cpu0_L1D LOAD      ACCESS:    8689370  HIT:    6882572  MISS:    1806798
cpu0_L1D RFO       ACCESS:    8934233  HIT:    8844499  MISS:      89734
cpu0_L1D PREFETCH  ACCESS:          0  HIT:          0  MISS:          0
cpu0_L1D WRITEBACK ACCESS:          0  HIT:          0  MISS:          0
cpu0_L2C TOTAL     ACCESS:    2073681  HIT:     201103  MISS:    1872578
cpu0_L2C LOAD      ACCESS:    1806795  HIT:      23992  MISS:    1782803
cpu0_L2C RFO       ACCESS:      89731  HIT:       1646  MISS:      88085
cpu0_L2C PREFETCH  ACCESS:          0  HIT:          0  MISS:          0
cpu0_L2C WRITEBACK ACCESS:     175106  HIT:     174010  MISS:       1096
LLC TOTAL     ACCESS:    2026571  HIT:      48027  MISS:    1978544
LLC LOAD      ACCESS:    1782803  HIT:        999  MISS:    1781804
LLC RFO       ACCESS:      88085  HIT:         76  MISS:      88009
LLC PREFETCH  ACCESS:          0  HIT:          0  MISS:          0
LLC WRITEBACK ACCESS:     155089  HIT:      46941  MISS:     108148
Heartbeat CPU 0 instructions: 90000000 cycles: 174650591 heartbeat IPC: 0.40878 cumulative IPC: 0.253895 (Simulation time: 1 hr 52 min 40 sec) 

Region of Interest Statistics
cpu0_DTLB TOTAL     ACCESS:   13194155  HIT:   13079955  MISS:     114200
cpu0_DTLB LOAD      ACCESS:    9175213  HIT:    9068082  MISS:     107131
cpu0_DTLB RFO       ACCESS:    4018942  HIT:    4011873  MISS:       7069
cpu0_DTLB PREFETCH  ACCESS:          0  HIT:          0  MISS:          0
cpu0_DTLB WRITEBACK ACCESS:          0  HIT:          0  MISS:          0
cpu0_ITLB TOTAL     ACCESS:    3795786  HIT:    3795786  MISS:          0
cpu0_ITLB LOAD      ACCESS:    3795786  HIT:    3795786  MISS:          0
cpu0_ITLB RFO       ACCESS:          0  HIT:          0  MISS:          0
cpu0_ITLB PREFETCH  ACCESS:          0  HIT:          0  MISS:          0
cpu0_ITLB WRITEBACK ACCESS:          0  HIT:          0  MISS:          0
cpu0_L1I TOTAL     ACCESS:    2728462  HIT:    2728462  MISS:          0
cpu0_L1I LOAD      ACCESS:    2728462  HIT:    2728462  MISS:          0
cpu0_L1I RFO       ACCESS:          0  HIT:          0  MISS:          0
cpu0_L1I PREFETCH  ACCESS:          0  HIT:          0  MISS:          0
cpu0_L1I WRITEBACK ACCESS:          0  HIT:          0  MISS:          0
cpu0_STLB TOTAL     ACCESS:     114200  HIT:      64423  MISS:      49777
cpu0_STLB LOAD      ACCESS:     107131  HIT:      58789  MISS:      48342
cpu0_STLB RFO       ACCESS:       7069  HIT:       5634  MISS:       1435
cpu0_STLB PREFETCH  ACCESS:          0  HIT:          0  MISS:          0
cpu0_STLB WRITEBACK ACCESS:          0  HIT:          0  MISS:          0
cpu0_L1D TOTAL     ACCESS:   18651540  HIT:   16729614  MISS:    1921926
cpu0_L1D LOAD      ACCESS:    9065377  HIT:    7238855  MISS:    1826522
cpu0_L1D RFO       ACCESS:    9536386  HIT:    9443115  MISS:      93271
cpu0_L1D PREFETCH  ACCESS:          0  HIT:          0  MISS:          0
cpu0_L1D WRITEBACK ACCESS:          0  HIT:          0  MISS:          0
cpu0_L2C TOTAL     ACCESS:    2106705  HIT:     211180  MISS:    1895525
cpu0_L2C LOAD      ACCESS:    1826519  HIT:      24320  MISS:    1802199
cpu0_L2C RFO       ACCESS:      93268  HIT:       1647  MISS:      91621
cpu0_L2C PREFETCH  ACCESS:          0  HIT:          0  MISS:          0
cpu0_L2C WRITEBACK ACCESS:     184785  HIT:     183682  MISS:       1103
LLC TOTAL     ACCESS:    2058009  HIT:      50077  MISS:    2007932
LLC LOAD      ACCESS:    1802199  HIT:       1020  MISS:    1801179
LLC RFO       ACCESS:      91621  HIT:         76  MISS:      91545
LLC PREFETCH  ACCESS:          0  HIT:          0  MISS:          0
LLC WRITEBACK ACCESS:     163587  HIT:      48970  MISS:     114617
Heartbeat CPU 0 instructions: 92000002 cycles: 181070074 heartbeat IPC: 0.311552 cumulative IPC: 0.256152 (Simulation time: 1 hr 55 min 52 sec) 

Region of Interest Statistics
cpu0_DTLB TOTAL     ACCESS:   13845408  HIT:   13727131  MISS:     118277
cpu0_DTLB LOAD      ACCESS:    9616125  HIT:    9505057  MISS:     111068
cpu0_DTLB RFO       ACCESS:    4229283  HIT:    4222074  MISS:       7209
cpu0_DTLB PREFETCH  ACCESS:          0  HIT:          0  MISS:          0
cpu0_DTLB WRITEBACK ACCESS:          0  HIT:          0  MISS:          0
cpu0_ITLB TOTAL     ACCESS:    3978022  HIT:    3978022  MISS:          0
cpu0_ITLB LOAD      ACCESS:    3978022  HIT:    3978022  MISS:          0
cpu0_ITLB RFO       ACCESS:          0  HIT:          0  MISS:          0
cpu0_ITLB PREFETCH  ACCESS:          0  HIT:          0  MISS:          0
cpu0_ITLB WRITEBACK ACCESS:          0  HIT:          0  MISS:          0
cpu0_L1I TOTAL     ACCESS:    2865957  HIT:    2865957  MISS:          0
cpu0_L1I LOAD      ACCESS:    2865957  HIT:    2865957  MISS:          0
cpu0_L1I RFO       ACCESS:          0  HIT:          0  MISS:          0
cpu0_L1I PREFETCH  ACCESS:          0  HIT:          0  MISS:          0
cpu0_L1I WRITEBACK ACCESS:          0  HIT:          0  MISS:          0
cpu0_STLB TOTAL     ACCESS:     118277  HIT:      66727  MISS:      51550
cpu0_STLB LOAD      ACCESS:     111068  HIT:      60999  MISS:      50069
cpu0_STLB RFO       ACCESS:       7209  HIT:       5728  MISS:       1481
cpu0_STLB PREFETCH  ACCESS:          0  HIT:          0  MISS:          0
cpu0_STLB WRITEBACK ACCESS:          0  HIT:          0  MISS:          0
cpu0_L1D TOTAL     ACCESS:   19598524  HIT:   17605295  MISS:    1993229
cpu0_L1D LOAD      ACCESS:    9495396  HIT:    7600637  MISS:    1894759
cpu0_L1D RFO       ACCESS:   10051578  HIT:    9955316  MISS:      96262
cpu0_L1D PREFETCH  ACCESS:          0  HIT:          0  MISS:          0
cpu0_L1D WRITEBACK ACCESS:          0  HIT:          0  MISS:          0
cpu0_L2C TOTAL     ACCESS:    2184378  HIT:     218844  MISS:    1965534
cpu0_L2C LOAD      ACCESS:    1894756  HIT:      25565  MISS:    1869191
cpu0_L2C RFO       ACCESS:      96259  HIT:       1696  MISS:      94563
cpu0_L2C PREFETCH  ACCESS:          0  HIT:          0  MISS:          0
cpu0_L2C WRITEBACK ACCESS:     191155  HIT:     190000  MISS:       1155
LLC TOTAL     ACCESS:    2133177  HIT:      51578  MISS:    2081599
LLC LOAD      ACCESS:    1869191  HIT:       1071  MISS:    1868120
LLC RFO       ACCESS:      94563  HIT:         80  MISS:      94483
LLC PREFETCH  ACCESS:          0  HIT:          0  MISS:          0
LLC WRITEBACK ACCESS:     168798  HIT:      50416  MISS:     118382
Heartbeat CPU 0 instructions: 94000001 cycles: 193779166 heartbeat IPC: 0.157368 cumulative IPC: 0.249046 (Simulation time: 2 hr 1 min 11 sec) 

Region of Interest Statistics
cpu0_DTLB TOTAL     ACCESS:   14536687  HIT:   14410639  MISS:     126048
cpu0_DTLB LOAD      ACCESS:   10158389  HIT:   10039815  MISS:     118574
cpu0_DTLB RFO       ACCESS:    4378298  HIT:    4370824  MISS:       7474
cpu0_DTLB PREFETCH  ACCESS:          0  HIT:          0  MISS:          0
cpu0_DTLB WRITEBACK ACCESS:          0  HIT:          0  MISS:          0
cpu0_ITLB TOTAL     ACCESS:    4181922  HIT:    4181922  MISS:          0
cpu0_ITLB LOAD      ACCESS:    4181922  HIT:    4181922  MISS:          0
cpu0_ITLB RFO       ACCESS:          0  HIT:          0  MISS:          0
cpu0_ITLB PREFETCH  ACCESS:          0  HIT:          0  MISS:          0
cpu0_ITLB WRITEBACK ACCESS:          0  HIT:          0  MISS:          0
cpu0_L1I TOTAL     ACCESS:    3054014  HIT:    3054014  MISS:          0
cpu0_L1I LOAD      ACCESS:    3054014  HIT:    3054014  MISS:          0
cpu0_L1I RFO       ACCESS:          0  HIT:          0  MISS:          0
cpu0_L1I PREFETCH  ACCESS:          0  HIT:          0  MISS:          0
cpu0_L1I WRITEBACK ACCESS:          0  HIT:          0  MISS:          0
cpu0_STLB TOTAL     ACCESS:     126048  HIT:      69308  MISS:      56740
cpu0_STLB LOAD      ACCESS:     118574  HIT:      63429  MISS:      55145
cpu0_STLB RFO       ACCESS:       7474  HIT:       5879  MISS:       1595
cpu0_STLB PREFETCH  ACCESS:          0  HIT:          0  MISS:          0
cpu0_STLB WRITEBACK ACCESS:          0  HIT:          0  MISS:          0
cpu0_L1D TOTAL     ACCESS:   20464799  HIT:   18264214  MISS:    2200585
cpu0_L1D LOAD      ACCESS:   10070619  HIT:    7975992  MISS:    2094627
cpu0_L1D RFO       ACCESS:   10337440  HIT:   10233796  MISS:     103644
cpu0_L1D PREFETCH  ACCESS:          0  HIT:          0  MISS:          0
cpu0_L1D WRITEBACK ACCESS:          0  HIT:          0  MISS:          0
cpu0_L2C TOTAL     ACCESS:    2402359  HIT:     231942  MISS:    2170417
cpu0_L2C LOAD      ACCESS:    2094624  HIT:      27948  MISS:    2066676
cpu0_L2C RFO       ACCESS:     103641  HIT:       1804  MISS:     101837
cpu0_L2C PREFETCH  ACCESS:          0  HIT:          0  MISS:          0
cpu0_L2C WRITEBACK ACCESS:     201780  HIT:     200552  MISS:       1228
LLC TOTAL     ACCESS:    2348704  HIT:      55338  MISS:    2293366
LLC LOAD      ACCESS:    2066676  HIT:       1134  MISS:    2065542
LLC RFO       ACCESS:     101837  HIT:         86  MISS:     101751
LLC PREFETCH  ACCESS:          0  HIT:          0  MISS:          0
LLC WRITEBACK ACCESS:     179515  HIT:      54107  MISS:     125408
Heartbeat CPU 0 instructions: 96000004 cycles: 201848801 heartbeat IPC: 0.247843 cumulative IPC: 0.248993 (Simulation time: 2 hr 4 min 20 sec) 

Region of Interest Statistics
cpu0_DTLB TOTAL     ACCESS:   15196757  HIT:   15065326  MISS:     131431
cpu0_DTLB LOAD      ACCESS:   10618472  HIT:   10494793  MISS:     123679
cpu0_DTLB RFO       ACCESS:    4578285  HIT:    4570533  MISS:       7752
cpu0_DTLB PREFETCH  ACCESS:          0  HIT:          0  MISS:          0
cpu0_DTLB WRITEBACK ACCESS:          0  HIT:          0  MISS:          0
cpu0_ITLB TOTAL     ACCESS:    4373619  HIT:    4373619  MISS:          0
cpu0_ITLB LOAD      ACCESS:    4373619  HIT:    4373619  MISS:          0
cpu0_ITLB RFO       ACCESS:          0  HIT:          0  MISS:          0
cpu0_ITLB PREFETCH  ACCESS:          0  HIT:          0  MISS:          0
cpu0_ITLB WRITEBACK ACCESS:          0  HIT:          0  MISS:          0
cpu0_L1I TOTAL     ACCESS:    3183924  HIT:    3183924  MISS:          0
cpu0_L1I LOAD      ACCESS:    3183924  HIT:    3183924  MISS:          0
cpu0_L1I RFO       ACCESS:          0  HIT:          0  MISS:          0
cpu0_L1I PREFETCH  ACCESS:          0  HIT:          0  MISS:          0
cpu0_L1I WRITEBACK ACCESS:          0  HIT:          0  MISS:          0
cpu0_STLB TOTAL     ACCESS:     131431  HIT:      72210  MISS:      59221
cpu0_STLB LOAD      ACCESS:     123679  HIT:      66155  MISS:      57524
cpu0_STLB RFO       ACCESS:       7752  HIT:       6055  MISS:       1697
cpu0_STLB PREFETCH  ACCESS:          0  HIT:          0  MISS:          0
cpu0_STLB WRITEBACK ACCESS:          0  HIT:          0  MISS:          0
cpu0_L1D TOTAL     ACCESS:   21398084  HIT:   19100908  MISS:    2297176
cpu0_L1D LOAD      ACCESS:   10528498  HIT:    8343954  MISS:    2184544
cpu0_L1D RFO       ACCESS:   10810365  HIT:   10700167  MISS:     110198
cpu0_L1D PREFETCH  ACCESS:          0  HIT:          0  MISS:          0
cpu0_L1D WRITEBACK ACCESS:          0  HIT:          0  MISS:          0
cpu0_L2C TOTAL     ACCESS:    2509732  HIT:     244250  MISS:    2265482
cpu0_L2C LOAD      ACCESS:    2184541  HIT:      29418  MISS:    2155123
cpu0_L2C RFO       ACCESS:     110195  HIT:       1871  MISS:     108324
cpu0_L2C PREFETCH  ACCESS:          0  HIT:          0  MISS:          0
cpu0_L2C WRITEBACK ACCESS:     212562  HIT:     211236  MISS:       1326
LLC TOTAL     ACCESS:    2453577  HIT:      59006  MISS:    2394571
LLC LOAD      ACCESS:    2155123  HIT:       1189  MISS:    2153934
LLC RFO       ACCESS:     108324  HIT:         90  MISS:     108234
LLC PREFETCH  ACCESS:          0  HIT:          0  MISS:          0
LLC WRITEBACK ACCESS:     189421  HIT:      57716  MISS:     131705
Heartbeat CPU 0 instructions: 98000003 cycles: 211666972 heartbeat IPC: 0.203704 cumulative IPC: 0.246708 (Simulation time: 2 hr 8 min 19 sec) 

Region of Interest Statistics
cpu0_DTLB TOTAL     ACCESS:   15866703  HIT:   15729672  MISS:     137031
cpu0_DTLB LOAD      ACCESS:   11105001  HIT:   10975968  MISS:     129033
cpu0_DTLB RFO       ACCESS:    4761702  HIT:    4753704  MISS:       7998
cpu0_DTLB PREFETCH  ACCESS:          0  HIT:          0  MISS:          0
cpu0_DTLB WRITEBACK ACCESS:          0  HIT:          0  MISS:          0
cpu0_ITLB TOTAL     ACCESS:    4568626  HIT:    4568626  MISS:          0
cpu0_ITLB LOAD      ACCESS:    4568626  HIT:    4568626  MISS:          0
cpu0_ITLB RFO       ACCESS:          0  HIT:          0  MISS:          0
cpu0_ITLB PREFETCH  ACCESS:          0  HIT:          0  MISS:          0
cpu0_ITLB WRITEBACK ACCESS:          0  HIT:          0  MISS:          0
cpu0_L1I TOTAL     ACCESS:    3334897  HIT:    3334897  MISS:          0
cpu0_L1I LOAD      ACCESS:    3334897  HIT:    3334897  MISS:          0
cpu0_L1I RFO       ACCESS:          0  HIT:          0  MISS:          0
cpu0_L1I PREFETCH  ACCESS:          0  HIT:          0  MISS:          0
cpu0_L1I WRITEBACK ACCESS:          0  HIT:          0  MISS:          0
cpu0_STLB TOTAL     ACCESS:     137031  HIT:      74365  MISS:      62666
cpu0_STLB LOAD      ACCESS:     129033  HIT:      68149  MISS:      60884
cpu0_STLB RFO       ACCESS:       7998  HIT:       6216  MISS:       1782
cpu0_STLB PREFETCH  ACCESS:          0  HIT:          0  MISS:          0
cpu0_STLB WRITEBACK ACCESS:          0  HIT:          0  MISS:          0
cpu0_L1D TOTAL     ACCESS:   22307232  HIT:   19874680  MISS:    2432552
cpu0_L1D LOAD      ACCESS:   11017511  HIT:    8703208  MISS:    2314303
cpu0_L1D RFO       ACCESS:   11227055  HIT:   11111360  MISS:     115695
cpu0_L1D PREFETCH  ACCESS:          0  HIT:          0  MISS:          0
cpu0_L1D WRITEBACK ACCESS:          0  HIT:          0  MISS:          0
cpu0_L2C TOTAL     ACCESS:    2657009  HIT:     257107  MISS:    2399902
cpu0_L2C LOAD      ACCESS:    2314300  HIT:      30248  MISS:    2284052
cpu0_L2C RFO       ACCESS:     115692  HIT:       1941  MISS:     113751
cpu0_L2C PREFETCH  ACCESS:          0  HIT:          0  MISS:          0
cpu0_L2C WRITEBACK ACCESS:     224463  HIT:     223106  MISS:       1357
LLC TOTAL     ACCESS:    2595505  HIT:      62314  MISS:    2533191
LLC LOAD      ACCESS:    2284052  HIT:       1207  MISS:    2282845
LLC RFO       ACCESS:     113751  HIT:         95  MISS:     113656
LLC PREFETCH  ACCESS:          0  HIT:          0  MISS:          0
LLC WRITEBACK ACCESS:     196960  HIT:      61001  MISS:     135959
Heartbeat CPU 0 instructions: 100000002 cycles: 219095632 heartbeat IPC: 0.269227 cumulative IPC: 0.247536 (Simulation time: 2 hr 11 min 9 sec) 

Region of Interest Statistics
cpu0_DTLB TOTAL     ACCESS:   16518911  HIT:   16376633  MISS:     142278
cpu0_DTLB LOAD      ACCESS:   11546291  HIT:   11412282  MISS:     134009
cpu0_DTLB RFO       ACCESS:    4972620  HIT:    4964351  MISS:       8269
cpu0_DTLB PREFETCH  ACCESS:          0  HIT:          0  MISS:          0
cpu0_DTLB WRITEBACK ACCESS:          0  HIT:          0  MISS:          0
cpu0_ITLB TOTAL     ACCESS:    4757853  HIT:    4757853  MISS:          0
cpu0_ITLB LOAD      ACCESS:    4757853  HIT:    4757853  MISS:          0
cpu0_ITLB RFO       ACCESS:          0  HIT:          0  MISS:          0
cpu0_ITLB PREFETCH  ACCESS:          0  HIT:          0  MISS:          0
cpu0_ITLB WRITEBACK ACCESS:          0  HIT:          0  MISS:          0
cpu0_L1I TOTAL     ACCESS:    3455445  HIT:    3455445  MISS:          0
cpu0_L1I LOAD      ACCESS:    3455445  HIT:    3455445  MISS:          0
cpu0_L1I RFO       ACCESS:          0  HIT:          0  MISS:          0
cpu0_L1I PREFETCH  ACCESS:          0  HIT:          0  MISS:          0
cpu0_L1I WRITEBACK ACCESS:          0  HIT:          0  MISS:          0
cpu0_STLB TOTAL     ACCESS:     142278  HIT:      77515  MISS:      64763
cpu0_STLB LOAD      ACCESS:     134009  HIT:      71082  MISS:      62927
cpu0_STLB RFO       ACCESS:       8269  HIT:       6433  MISS:       1836
cpu0_STLB PREFETCH  ACCESS:          0  HIT:          0  MISS:          0
cpu0_STLB WRITEBACK ACCESS:          0  HIT:          0  MISS:          0
cpu0_L1D TOTAL     ACCESS:   23250546  HIT:   20740994  MISS:    2509552
cpu0_L1D LOAD      ACCESS:   11438992  HIT:    9051124  MISS:    2387868
cpu0_L1D RFO       ACCESS:   11746791  HIT:   11627774  MISS:     119017
cpu0_L1D PREFETCH  ACCESS:          0  HIT:          0  MISS:          0
cpu0_L1D WRITEBACK ACCESS:          0  HIT:          0  MISS:          0
cpu0_L2C TOTAL     ACCESS:    2746029  HIT:     270878  MISS:    2475151
cpu0_L2C LOAD      ACCESS:    2387865  HIT:      31843  MISS:    2356022
cpu0_L2C RFO       ACCESS:     119014  HIT:       2065  MISS:     116949
cpu0_L2C PREFETCH  ACCESS:          0  HIT:          0  MISS:          0
cpu0_L2C WRITEBACK ACCESS:     236483  HIT:     235071  MISS:       1412
LLC TOTAL     ACCESS:    2685270  HIT:      63910  MISS:    2621360
LLC LOAD      ACCESS:    2356022  HIT:       1253  MISS:    2354769
LLC RFO       ACCESS:     116949  HIT:        102  MISS:     116847
LLC PREFETCH  ACCESS:          0  HIT:          0  MISS:          0
LLC WRITEBACK ACCESS:     211531  HIT:      62544  MISS:     148987
Heartbeat CPU 0 instructions: 102000000 cycles: 224924793 heartbeat IPC: 0.343102 cumulative IPC: 0.250217 (Simulation time: 2 hr 13 min 12 sec) 

Region of Interest Statistics
cpu0_DTLB TOTAL     ACCESS:   17158363  HIT:   17010120  MISS:     148243
cpu0_DTLB LOAD      ACCESS:   11950492  HIT:   11810680  MISS:     139812
cpu0_DTLB RFO       ACCESS:    5207871  HIT:    5199440  MISS:       8431
cpu0_DTLB PREFETCH  ACCESS:          0  HIT:          0  MISS:          0
cpu0_DTLB WRITEBACK ACCESS:          0  HIT:          0  MISS:          0
cpu0_ITLB TOTAL     ACCESS:    4937139  HIT:    4937139  MISS:          0
cpu0_ITLB LOAD      ACCESS:    4937139  HIT:    4937139  MISS:          0
cpu0_ITLB RFO       ACCESS:          0  HIT:          0  MISS:          0
cpu0_ITLB PREFETCH  ACCESS:          0  HIT:          0  MISS:          0
cpu0_ITLB WRITEBACK ACCESS:          0  HIT:          0  MISS:          0
cpu0_L1I TOTAL     ACCESS:    3557830  HIT:    3557830  MISS:          0
cpu0_L1I LOAD      ACCESS:    3557830  HIT:    3557830  MISS:          0
cpu0_L1I RFO       ACCESS:          0  HIT:          0  MISS:          0
cpu0_L1I PREFETCH  ACCESS:          0  HIT:          0  MISS:          0
cpu0_L1I WRITEBACK ACCESS:          0  HIT:          0  MISS:          0
cpu0_STLB TOTAL     ACCESS:     148243  HIT:      82264  MISS:      65979
cpu0_STLB LOAD      ACCESS:     139812  HIT:      75724  MISS:      64088
cpu0_STLB RFO       ACCESS:       8431  HIT:       6540  MISS:       1891
cpu0_STLB PREFETCH  ACCESS:          0  HIT:          0  MISS:          0
cpu0_STLB WRITEBACK ACCESS:          0  HIT:          0  MISS:          0
cpu0_L1D TOTAL     ACCESS:   24230664  HIT:   21692925  MISS:    2537739
cpu0_L1D LOAD      ACCESS:   11812597  HIT:    9400288  MISS:    2412309
cpu0_L1D RFO       ACCESS:   12352088  HIT:   12229443  MISS:     122645
cpu0_L1D PREFETCH  ACCESS:          0  HIT:          0  MISS:          0
cpu0_L1D WRITEBACK ACCESS:          0  HIT:          0  MISS:          0
cpu0_L2C TOTAL     ACCESS:    2788187  HIT:     285431  MISS:    2502756
cpu0_L2C LOAD      ACCESS:    2412306  HIT:      32326  MISS:    2379980
cpu0_L2C RFO       ACCESS:     122642  HIT:       2068  MISS:     120574
cpu0_L2C PREFETCH  ACCESS:          0  HIT:          0  MISS:          0
cpu0_L2C WRITEBACK ACCESS:     250454  HIT:     249031  MISS:       1423
LLC TOTAL     ACCESS:    2723246  HIT:      66559  MISS:    2656687
LLC LOAD      ACCESS:    2379980  HIT:       1271  MISS:    2378709
LLC RFO       ACCESS:     120574  HIT:        102  MISS:     120472
LLC PREFETCH  ACCESS:          0  HIT:          0  MISS:          0
LLC WRITEBACK ACCESS:     221913  HIT:      65175  MISS:     156738
Heartbeat CPU 0 instructions: 104000001 cycles: 232046572 heartbeat IPC: 0.280829 cumulative IPC: 0.251231 (Simulation time: 2 hr 16 min 3 sec) 

Region of Interest Statistics
cpu0_DTLB TOTAL     ACCESS:   17811397  HIT:   17658578  MISS:     152819
cpu0_DTLB LOAD      ACCESS:   12392399  HIT:   12248192  MISS:     144207
cpu0_DTLB RFO       ACCESS:    5418998  HIT:    5410386  MISS:       8612
cpu0_DTLB PREFETCH  ACCESS:          0  HIT:          0  MISS:          0
cpu0_DTLB WRITEBACK ACCESS:          0  HIT:          0  MISS:          0
cpu0_ITLB TOTAL     ACCESS:    5121549  HIT:    5121549  MISS:          0
cpu0_ITLB LOAD      ACCESS:    5121549  HIT:    5121549  MISS:          0
cpu0_ITLB RFO       ACCESS:          0  HIT:          0  MISS:          0
cpu0_ITLB PREFETCH  ACCESS:          0  HIT:          0  MISS:          0
cpu0_ITLB WRITEBACK ACCESS:          0  HIT:          0  MISS:          0
cpu0_L1I TOTAL     ACCESS:    3690535  HIT:    3690535  MISS:          0
cpu0_L1I LOAD      ACCESS:    3690535  HIT:    3690535  MISS:          0
cpu0_L1I RFO       ACCESS:          0  HIT:          0  MISS:          0
cpu0_L1I PREFETCH  ACCESS:          0  HIT:          0  MISS:          0
cpu0_L1I WRITEBACK ACCESS:          0  HIT:          0  MISS:          0
cpu0_STLB TOTAL     ACCESS:     152819  HIT:      84845  MISS:      67974
cpu0_STLB LOAD      ACCESS:     144207  HIT:      78170  MISS:      66037
cpu0_STLB RFO       ACCESS:       8612  HIT:       6675  MISS:       1937
cpu0_STLB PREFETCH  ACCESS:          0  HIT:          0  MISS:          0
cpu0_STLB WRITEBACK ACCESS:          0  HIT:          0  MISS:          0
cpu0_L1D TOTAL     ACCESS:   25176962  HIT:   22563707  MISS:    2613255
cpu0_L1D LOAD      ACCESS:   12241517  HIT:    9756947  MISS:    2484570
cpu0_L1D RFO       ACCESS:   12867471  HIT:   12741688  MISS:     125783
cpu0_L1D PREFETCH  ACCESS:          0  HIT:          0  MISS:          0
cpu0_L1D WRITEBACK ACCESS:          0  HIT:          0  MISS:          0
cpu0_L2C TOTAL     ACCESS:    2872722  HIT:     295913  MISS:    2576809
cpu0_L2C LOAD      ACCESS:    2484567  HIT:      33667  MISS:    2450900
cpu0_L2C RFO       ACCESS:     125780  HIT:       2165  MISS:     123615
cpu0_L2C PREFETCH  ACCESS:          0  HIT:          0  MISS:          0
cpu0_L2C WRITEBACK ACCESS:     259473  HIT:     257989  MISS:       1484
LLC TOTAL     ACCESS:    2805474  HIT:      68634  MISS:    2736840
LLC LOAD      ACCESS:    2450900  HIT:       1329  MISS:    2449571
LLC RFO       ACCESS:     123615  HIT:        108  MISS:     123507
LLC PREFETCH  ACCESS:          0  HIT:          0  MISS:          0
LLC WRITEBACK ACCESS:     230149  HIT:      67186  MISS:     162963
Heartbeat CPU 0 instructions: 106000001 cycles: 239051072 heartbeat IPC: 0.285531 cumulative IPC: 0.252313 (Simulation time: 2 hr 18 min 43 sec) 

Region of Interest Statistics
cpu0_DTLB TOTAL     ACCESS:   18464427  HIT:   18308700  MISS:     155727
cpu0_DTLB LOAD      ACCESS:   12835656  HIT:   12688687  MISS:     146969
cpu0_DTLB RFO       ACCESS:    5628771  HIT:    5620013  MISS:       8758
cpu0_DTLB PREFETCH  ACCESS:          0  HIT:          0  MISS:          0
cpu0_DTLB WRITEBACK ACCESS:          0  HIT:          0  MISS:          0
cpu0_ITLB TOTAL     ACCESS:    5313919  HIT:    5313919  MISS:          0
cpu0_ITLB LOAD      ACCESS:    5313919  HIT:    5313919  MISS:          0
cpu0_ITLB RFO       ACCESS:          0  HIT:          0  MISS:          0
cpu0_ITLB PREFETCH  ACCESS:          0  HIT:          0  MISS:          0
cpu0_ITLB WRITEBACK ACCESS:          0  HIT:          0  MISS:          0
cpu0_L1I TOTAL     ACCESS:    3804997  HIT:    3804997  MISS:          0
cpu0_L1I LOAD      ACCESS:    3804997  HIT:    3804997  MISS:          0
cpu0_L1I RFO       ACCESS:          0  HIT:          0  MISS:          0
cpu0_L1I PREFETCH  ACCESS:          0  HIT:          0  MISS:          0
cpu0_L1I WRITEBACK ACCESS:          0  HIT:          0  MISS:          0
cpu0_STLB TOTAL     ACCESS:     155727  HIT:      85900  MISS:      69827
cpu0_STLB LOAD      ACCESS:     146969  HIT:      79133  MISS:      67836
cpu0_STLB RFO       ACCESS:       8758  HIT:       6767  MISS:       1991
cpu0_STLB PREFETCH  ACCESS:          0  HIT:          0  MISS:          0
cpu0_STLB WRITEBACK ACCESS:          0  HIT:          0  MISS:          0
cpu0_L1D TOTAL     ACCESS:   26124765  HIT:   23435134  MISS:    2689631
cpu0_L1D LOAD      ACCESS:   12671544  HIT:   10114205  MISS:    2557339
cpu0_L1D RFO       ACCESS:   13383394  HIT:   13254111  MISS:     129283
cpu0_L1D PREFETCH  ACCESS:          0  HIT:          0  MISS:          0
cpu0_L1D WRITEBACK ACCESS:          0  HIT:          0  MISS:          0
cpu0_L2C TOTAL     ACCESS:    2958735  HIT:     307189  MISS:    2651546
cpu0_L2C LOAD      ACCESS:    2557336  HIT:      35193  MISS:    2522143
cpu0_L2C RFO       ACCESS:     129280  HIT:       2256  MISS:     127024
cpu0_L2C PREFETCH  ACCESS:          0  HIT:          0  MISS:          0
[...]
cpu0_DTLB TOTAL     ACCESS:  485770966  HIT:  481222722  MISS:    4548244
cpu0_DTLB LOAD      ACCESS:  340581191  HIT:  336194660  MISS:    4386531
cpu0_DTLB RFO       ACCESS:  145189775  HIT:  145028062  MISS:     161713
cpu0_DTLB PREFETCH  ACCESS:          0  HIT:          0  MISS:          0
cpu0_DTLB WRITEBACK ACCESS:          0  HIT:          0  MISS:          0
cpu0_ITLB TOTAL     ACCESS:  140694654  HIT:  140694654  MISS:          0
cpu0_ITLB LOAD      ACCESS:  140694654  HIT:  140694654  MISS:          0
cpu0_ITLB RFO       ACCESS:          0  HIT:          0  MISS:          0
cpu0_ITLB PREFETCH  ACCESS:          0  HIT:          0  MISS:          0
cpu0_ITLB WRITEBACK ACCESS:          0  HIT:          0  MISS:          0
cpu0_L1I TOTAL     ACCESS:   97563929  HIT:   97563919  MISS:         10
cpu0_L1I LOAD      ACCESS:   97563929  HIT:   97563919  MISS:         10
cpu0_L1I RFO       ACCESS:          0  HIT:          0  MISS:          0
cpu0_L1I PREFETCH  ACCESS:          0  HIT:          0  MISS:          0
cpu0_L1I WRITEBACK ACCESS:          0  HIT:          0  MISS:          0
cpu0_STLB TOTAL     ACCESS:    4548244  HIT:    2697408  MISS:    1850836
cpu0_STLB LOAD      ACCESS:    4386531  HIT:    2590866  MISS:    1795665
cpu0_STLB RFO       ACCESS:     161713  HIT:     106542  MISS:      55171
cpu0_STLB PREFETCH  ACCESS:          0  HIT:          0  MISS:          0
cpu0_STLB WRITEBACK ACCESS:          0  HIT:          0  MISS:          0
cpu0_L1D TOTAL     ACCESS:  686144434  HIT:  612620967  MISS:   73523467
cpu0_L1D LOAD      ACCESS:  337067049  HIT:  267206845  MISS:   69860204
cpu0_L1D RFO       ACCESS:  347226558  HIT:  343638373  MISS:    3588185
cpu0_L1D PREFETCH  ACCESS:          0  HIT:          0  MISS:          0
cpu0_L1D WRITEBACK ACCESS:          0  HIT:          0  MISS:          0
cpu0_L2C TOTAL     ACCESS:   80955194  HIT:    8435446  MISS:   72519748
cpu0_L2C LOAD      ACCESS:   69860057  HIT:     924875  MISS:   68935182
cpu0_L2C RFO       ACCESS:    3588131  HIT:      61777  MISS:    3526354
cpu0_L2C PREFETCH  ACCESS:          0  HIT:          0  MISS:          0
cpu0_L2C WRITEBACK ACCESS:    7431928  HIT:    7393575  MISS:      38353
LLC TOTAL     ACCESS:   79203069  HIT:    1826733  MISS:   77376336
LLC LOAD      ACCESS:   68935181  HIT:      35060  MISS:   68900121
LLC RFO       ACCESS:    3526354  HIT:       2107  MISS:    3524247
LLC PREFETCH  ACCESS:          0  HIT:          0  MISS:          0
LLC WRITEBACK ACCESS:    6721675  HIT:    1789154  MISS:    4932521
Heartbeat CPU 0 instructions: 1550000000 cycles: 5879548230 heartbeat IPC: 0.243879 cumulative IPC: 0.255866 (Simulation time: 20 hr 0 min 29 sec) 

Region of Interest Statistics
cpu0_DTLB TOTAL     ACCESS:  486431665  HIT:  481879032  MISS:    4552633
cpu0_DTLB LOAD      ACCESS:  341036882  HIT:  336646255  MISS:    4390627
cpu0_DTLB RFO       ACCESS:  145394783  HIT:  145232777  MISS:     162006
cpu0_DTLB PREFETCH  ACCESS:          0  HIT:          0  MISS:          0
cpu0_DTLB WRITEBACK ACCESS:          0  HIT:          0  MISS:          0
cpu0_ITLB TOTAL     ACCESS:  140881551  HIT:  140881551  MISS:          0
cpu0_ITLB LOAD      ACCESS:  140881551  HIT:  140881551  MISS:          0
cpu0_ITLB RFO       ACCESS:          0  HIT:          0  MISS:          0
cpu0_ITLB PREFETCH  ACCESS:          0  HIT:          0  MISS:          0
cpu0_ITLB WRITEBACK ACCESS:          0  HIT:          0  MISS:          0
cpu0_L1I TOTAL     ACCESS:   97698034  HIT:   97698024  MISS:         10
cpu0_L1I LOAD      ACCESS:   97698034  HIT:   97698024  MISS:         10
cpu0_L1I RFO       ACCESS:          0  HIT:          0  MISS:          0
cpu0_L1I PREFETCH  ACCESS:          0  HIT:          0  MISS:          0
cpu0_L1I WRITEBACK ACCESS:          0  HIT:          0  MISS:          0
cpu0_STLB TOTAL     ACCESS:    4552633  HIT:    2699253  MISS:    1853380
cpu0_STLB LOAD      ACCESS:    4390627  HIT:    2592517  MISS:    1798110
cpu0_STLB RFO       ACCESS:     162006  HIT:     106736  MISS:      55270
cpu0_STLB PREFETCH  ACCESS:          0  HIT:          0  MISS:          0
cpu0_STLB WRITEBACK ACCESS:          0  HIT:          0  MISS:          0
cpu0_L1D TOTAL     ACCESS:  687076069  HIT:  613459873  MISS:   73616196
cpu0_L1D LOAD      ACCESS:  337509851  HIT:  267563653  MISS:   69946198
cpu0_L1D RFO       ACCESS:  347712847  HIT:  344118072  MISS:    3594775
cpu0_L1D PREFETCH  ACCESS:          0  HIT:          0  MISS:          0
cpu0_L1D WRITEBACK ACCESS:          0  HIT:          0  MISS:          0
cpu0_L2C TOTAL     ACCESS:   81060917  HIT:    8449363  MISS:   72611554
cpu0_L2C LOAD      ACCESS:   69946050  HIT:     925649  MISS:   69020401
cpu0_L2C RFO       ACCESS:    3594721  HIT:      61845  MISS:    3532876
cpu0_L2C PREFETCH  ACCESS:          0  HIT:          0  MISS:          0
cpu0_L2C WRITEBACK ACCESS:    7444923  HIT:    7406539  MISS:      38384
LLC TOTAL     ACCESS:   79303896  HIT:    1829993  MISS:   77473903
LLC LOAD      ACCESS:   69020400  HIT:      35094  MISS:   68985306
LLC RFO       ACCESS:    3532876  HIT:       2109  MISS:    3530767
LLC PREFETCH  ACCESS:          0  HIT:          0  MISS:          0
LLC WRITEBACK ACCESS:    6730727  HIT:    1792376  MISS:    4938351
Finished CPU 0 instructions: 1500000000 cycles: 5862443284 cumulative IPC: 0.255866 (Simulation time: 20 hr 0 min 29 sec) 

ChampSim completed all CPUs

Region of Interest Statistics

CPU 0 cumulative IPC: 0.255866 instructions: 1500000000 cycles: 5862443284
cpu0_DTLB TOTAL     ACCESS:  486431665  HIT:  481879032  MISS:    4552633
cpu0_DTLB LOAD      ACCESS:  341036882  HIT:  336646255  MISS:    4390627
cpu0_DTLB RFO       ACCESS:  145394783  HIT:  145232777  MISS:     162006
cpu0_DTLB PREFETCH  ACCESS:          0  HIT:          0  MISS:          0
cpu0_DTLB WRITEBACK ACCESS:          0  HIT:          0  MISS:          0
cpu0_DTLB TRANSLATION ACCESS:          0  HIT:          0  MISS:          0
cpu0_DTLB PREFETCH  REQUESTED:          0  ISSUED:          0  USEFUL:          0  USELESS:          0
cpu0_DTLB AVERAGE MISS LATENCY: 24.2321 cycles
cpu0_ITLB TOTAL     ACCESS:  140881551  HIT:  140881551  MISS:          0
cpu0_ITLB LOAD      ACCESS:  140881551  HIT:  140881551  MISS:          0
cpu0_ITLB RFO       ACCESS:          0  HIT:          0  MISS:          0
cpu0_ITLB PREFETCH  ACCESS:          0  HIT:          0  MISS:          0
cpu0_ITLB WRITEBACK ACCESS:          0  HIT:          0  MISS:          0
cpu0_ITLB TRANSLATION ACCESS:          0  HIT:          0  MISS:          0
cpu0_ITLB PREFETCH  REQUESTED:          0  ISSUED:          0  USEFUL:          0  USELESS:          0
cpu0_ITLB AVERAGE MISS LATENCY: -nan cycles
cpu0_L1I TOTAL     ACCESS:   97698034  HIT:   97698024  MISS:         10
cpu0_L1I LOAD      ACCESS:   97698034  HIT:   97698024  MISS:         10
cpu0_L1I RFO       ACCESS:          0  HIT:          0  MISS:          0
cpu0_L1I PREFETCH  ACCESS:          0  HIT:          0  MISS:          0
cpu0_L1I WRITEBACK ACCESS:          0  HIT:          0  MISS:          0
cpu0_L1I TRANSLATION ACCESS:          0  HIT:          0  MISS:          0
cpu0_L1I PREFETCH  REQUESTED:          0  ISSUED:          0  USEFUL:          0  USELESS:          0
cpu0_L1I AVERAGE MISS LATENCY: 210.3 cycles
cpu0_STLB TOTAL     ACCESS:    4552633  HIT:    2699253  MISS:    1853380
cpu0_STLB LOAD      ACCESS:    4390627  HIT:    2592517  MISS:    1798110
cpu0_STLB RFO       ACCESS:     162006  HIT:     106736  MISS:      55270
cpu0_STLB PREFETCH  ACCESS:          0  HIT:          0  MISS:          0
cpu0_STLB WRITEBACK ACCESS:          0  HIT:          0  MISS:          0
cpu0_STLB TRANSLATION ACCESS:          0  HIT:          0  MISS:          0
cpu0_STLB PREFETCH  REQUESTED:          0  ISSUED:          0  USEFUL:          0  USELESS:          0
cpu0_STLB AVERAGE MISS LATENCY: 37.4146 cycles
cpu0_L1D TOTAL     ACCESS:  687076071  HIT:  613459875  MISS:   73616196
cpu0_L1D LOAD      ACCESS:  337509853  HIT:  267563655  MISS:   69946198
cpu0_L1D RFO       ACCESS:  347712847  HIT:  344118072  MISS:    3594775
cpu0_L1D PREFETCH  ACCESS:          0  HIT:          0  MISS:          0
cpu0_L1D WRITEBACK ACCESS:          0  HIT:          0  MISS:          0
cpu0_L1D TRANSLATION ACCESS:    1853371  HIT:    1778148  MISS:      75223
cpu0_L1D PREFETCH  REQUESTED:          0  ISSUED:          0  USEFUL:          0  USELESS:          0
cpu0_L1D AVERAGE MISS LATENCY: 241.478 cycles
cpu0_L2C TOTAL     ACCESS:   81060917  HIT:    8449363  MISS:   72611554
cpu0_L2C LOAD      ACCESS:   69946050  HIT:     925649  MISS:   69020401
cpu0_L2C RFO       ACCESS:    3594721  HIT:      61845  MISS:    3532876
cpu0_L2C PREFETCH  ACCESS:          0  HIT:          0  MISS:          0
cpu0_L2C WRITEBACK ACCESS:    7444923  HIT:    7406539  MISS:      38384
cpu0_L2C TRANSLATION ACCESS:      75223  HIT:      55330  MISS:      19893
cpu0_L2C PREFETCH  REQUESTED:          0  ISSUED:          0  USEFUL:          0  USELESS:          0
cpu0_L2C AVERAGE MISS LATENCY: 233.526 cycles
LLC TOTAL     ACCESS:   79303896  HIT:    1829993  MISS:   77473903
LLC LOAD      ACCESS:   69020400  HIT:      35094  MISS:   68985306
LLC RFO       ACCESS:    3532876  HIT:       2109  MISS:    3530767
LLC PREFETCH  ACCESS:          0  HIT:          0  MISS:          0
LLC WRITEBACK ACCESS:    6730727  HIT:    1792376  MISS:    4938351
LLC TRANSLATION ACCESS:      19893  HIT:        414  MISS:      19479
LLC PREFETCH  REQUESTED:          0  ISSUED:          0  USEFUL:          0  USELESS:          0
LLC AVERAGE MISS LATENCY: 199.198 cycles
~~~~~~~~~~Reuse Distance Profiler output~~~~~~~~~~
0	0	0
1	0	0
2	0	0
3	0	0
4	0	0
5	0	0
6	0	0
7	0	0
8	0	0
9	0	0
10	0	0
11	0	0
12	0	0
13	0	0
14	0	0
15	0	0
16	0	0
17	0	0
18	0	0
19	0	0
20	0	0
21	0	0
22	0	0
23	0	0
24	0	0
25	0	0
26	0	0
27	0	0
28	0	0
29	0	0
30	0	0
31	0	0
32	0	0
33	0	0
34	0	0
35	0	0
36	0	0
37	0	0
38	0	0
39	0	0
40	0	0
41	0	0
42	0	0
43	0	0
44	0	0
45	0	0
46	0	0
47	0	0
48	0	0
49	0	0
50	0	0
51	0	0
52	0	0
53	0	0
54	0	0
55	0	0
56	0	0
57	0	0
58	0	0
59	0	0
60	0	0
61	0	0
62	0	0
63	0	0
64	0	0
66	0	0
68	0	0
70	0	0
72	0	0
74	0	0
76	0	0
78	0	0
80	0	0
82	0	0
84	0	0
86	0	0
88	0	0
90	0	0
92	0	0
94	0	0
96	0	0
98	0	0
100	0	0
102	0	0
104	0	0
106	0	0
108	0	0
110	0	0
112	0	0
114	0	0
116	0	0
118	0	0
120	0	0
122	0	0
124	0	0
126	0	0
128	0	0
132	0	0
136	0	0
140	0	0
144	0	0
148	0	0
152	0	0
156	0	0
160	0	0
164	0	0
168	0	0
172	0	0
176	0	0
180	0	0
184	0	0
188	0	0
192	0	0
196	0	0
200	0	0
204	0	0
208	0	0
212	0	0
216	0	0
220	0	0
224	0	0
228	0	0
232	0	0
236	0	0
240	0	0
244	0	0
248	0	0
252	0	0
256	0	0
264	0	0
272	0	0
280	0	0
288	0	0
296	0	0
304	0	0
312	0	0
320	0	0
328	0	0
336	0	0
344	0	0
352	0	0
360	0	0
368	0	0
376	0	0
384	0	0
392	0	0
400	0	0
408	0	0
416	0	0
424	0	0
432	0	0
440	0	0
448	0	0
456	0	0
464	0	0
472	0	0
480	0	0
488	0	0
496	0	0
504	0	0
512	0	0
528	0	0
544	0	0
560	0	0
576	0	0
592	0	0
608	0	0
624	0	0
640	0	0
656	0	0
672	0	0
688	0	0
704	0	0
720	0	0
736	0	0
752	0	0
768	0	0
784	0	0
800	0	0
816	0	0
832	0	0
848	0	0
864	0	0
880	0	0
896	0	0
912	0	0
928	0	0
944	0	0
960	0	0
976	0	0
992	0	0
1008	0	0
1024	0	0
1056	0	0
1088	0	0
1120	0	0
1152	0	0
1184	0	0
1216	0	0
1248	0	0
1280	0	0
1312	0	0
1344	0	0
1376	0	0
1408	0	0
1440	0	0
1472	0	0
1504	0	0
1536	0	0
1568	0	0
1600	0	0
1632	0	0
1664	0	0
1696	0	0
1728	0	0
1760	0	0
1792	0	0
1824	0	0
1856	0	0
1888	0	0
1920	0	0
1952	0	0
1984	0	0
2016	0	0
2048	0	0
2112	0	0
2176	0	0
2240	0	0
2304	0	0
2368	0	0
2432	0	0
2496	0	0
2560	0	0
2624	0	0
2688	0	0
2752	0	0
2816	0	0
2880	0	0
2944	0	0
3008	0	0
3072	0	0
3136	0	0
3200	0	0
3264	0	0
3328	0	0
3392	0	0
3456	0	0
3520	0	0
3584	0	0
3648	0	0
3712	0	0
3776	0	0
3840	0	0
3904	0	0
3968	0	0
4032	0	0
4096	0	0
4224	0	0
4352	0	0
4480	0	0
4608	0	0
4736	0	0
4864	0	0
4992	0	0
5120	0	0
5248	0	0
5376	0	0
5504	0	0
5632	0	0
5760	0	0
5888	0	0
6016	0	0
6144	0	0
6272	0	0
6400	0	0
6528	0	0
6656	0	0
6784	0	0
6912	0	0
7040	0	0
7168	0	0
7296	0	0
7424	0	0
7552	0	0
7680	0	0
7808	0	0
7936	0	0
8064	0	0
8192	0	0
8448	0	0
8704	0	0
8960	0	0
9216	0	0
9472	0	0
9728	0	0
9984	0	0
10240	0	0
10496	0	0
10752	0	0
11008	0	0
11264	0	0
11520	0	0
11776	0	0
12032	0	0
12288	0	0
12544	0	0
12800	0	0
13056	0	0
13312	0	0
13568	0	0
13824	0	0
14080	0	0
14336	0	0
14592	0	0
14848	0	0
15104	0	0
15360	0	0
15616	0	0
15872	0	0
16128	0	0
16384	0	0
16896	0	0
17408	0	0
17920	0	0
18432	0	0
18944	0	0
19456	0	0
19968	0	0
20480	0	0
20992	0	0
21504	0	0
22016	0	0
22528	0	0
23040	0	0
23552	0	0
24064	0	0
24576	0	0
25088	0	0
25600	0	0
26112	0	0
26624	0	0
27136	0	0
27648	0	0
28160	0	0
28672	0	0
29184	0	0
29696	0	0
30208	0	0
30720	0	0
31232	0	0
31744	0	0
32256	0	0
32768	0	0
33792	0	0
34816	0	0
35840	0	0
36864	0	0
37888	0	0
38912	0	0
39936	0	0
40960	0	0
41984	0	0
43008	0	0
44032	0	0
45056	0	0
46080	0	0
47104	0	0
48128	0	0
49152	0	0
50176	0	0
51200	0	0
52224	0	0
53248	0	0
54272	0	0
55296	0	0
56320	0	0
57344	0	0
58368	0	0
59392	0	0
60416	0	0
61440	0	0
62464	0	0
63488	0	0
64512	0	0
65536	0	0
67584	0	0
69632	0	0
71680	0	0
73728	0	0
75776	0	0
77824	0	0
79872	0	0
81920	0	0
83968	0	0
86016	0	0
88064	0	0
90112	0	0
92160	0	0
94208	0	0
96256	0	0
98304	0	0
100352	0	0
102400	0	0
104448	0	0
106496	0	0
108544	0	0
110592	0	0
112640	0	0
114688	0	0
116736	0	0
118784	0	0
120832	0	0
122880	0	0
124928	0	0
126976	0	0
129024	0	0
131072	0	0
135168	0	0
139264	0	0
143360	0	0
147456	0	0
151552	0	0
155648	0	0
159744	0	0
163840	0	0
167936	0	0
172032	0	0
176128	0	0
180224	0	0
184320	0	0
188416	0	0
192512	0	0
196608	0	0
200704	0	0
204800	0	0
208896	0	0
212992	0	0
217088	0	0
221184	0	0
225280	0	0
229376	0	0
233472	0	0
237568	0	0
241664	0	0
245760	0	0
249856	0	0
253952	0	0
258048	0	0
262144	0	0
270336	0	0
278528	0	0
286720	0	0
294912	0	0
303104	0	0
311296	0	0
319488	0	0
327680	0	0
335872	0	0
344064	0	0
352256	0	0
360448	0	0
368640	0	0
376832	0	0
385024	0	0
393216	0	0
401408	0	0
409600	0	0
417792	0	0
425984	0	0
434176	0	0
442368	0	0
450560	0	0
458752	0	0
466944	0	0
475136	0	0
483328	0	0
491520	0	0
499712	0	0
507904	0	0
516096	0	0
524288	0	0
540672	0	0
557056	0	0
573440	0	0
589824	0	0
606208	0	0
622592	0	0
638976	0	0
655360	0	0
671744	0	0
688128	0	0
704512	0	0
720896	0	0
737280	0	0
753664	0	0
770048	0	0
786432	0	0
802816	0	0
819200	0	0
835584	0	0
851968	0	0
868352	0	0
884736	0	0
901120	0	0
917504	0	0
933888	0	0
950272	0	0
966656	0	0
983040	0	0
999424	0	0
1015808	0	0
1032192	0	0
1048576	0	0
1081344	0	0
1114112	0	0
1146880	0	0
1179648	0	0
1212416	0	0
1245184	0	0
1277952	0	0
1310720	0	0
1343488	0	0
1376256	0	0
1409024	0	0
1441792	0	0
1474560	0	0
1507328	0	0
1540096	0	0
1572864	0	0
1605632	0	0
1638400	0	0
1671168	0	0
1703936	0	0
1736704	0	0
1769472	0	0
1802240	0	0
1835008	0	0
1867776	0	0
1900544	0	0
1933312	0	0
1966080	0	0
1998848	0	0
2031616	0	0
2064384	0	0
2097152	0	0
2162688	0	0
2228224	0	0
2293760	0	0
2359296	0	0
2424832	0	0
2490368	0	0
2555904	0	0
2621440	0	0
2686976	0	0
2752512	0	0
2818048	0	0
2883584	0	0
2949120	0	0
3014656	0	0
3080192	0	0
3145728	0	0
3211264	0	0
3276800	0	0
3342336	0	0
3407872	0	0
3473408	0	0
3538944	0	0
3604480	0	0
3670016	0	0
3735552	0	0
3801088	0	0
3866624	0	0
3932160	0	0
3997696	0	0
4063232	0	0
4128768	0	0
4194304	0	0
4325376	0	0
4456448	0	0
4587520	0	0
4718592	0	0
4849664	0	0
4980736	0	0
5111808	0	0
5242880	0	0
5373952	0	0
5505024	0	0
5636096	0	0
5767168	0	0
5898240	0	0
6029312	0	0
6160384	0	0
6291456	0	0
6422528	0	0
6553600	0	0
6684672	0	0
6815744	0	0
6946816	0	0
7077888	0	0
7208960	0	0
7340032	0	0
7471104	0	0
7602176	0	0
7733248	0	0
7864320	0	0
7995392	0	0
8126464	0	0
8257536	0	0
8388608	0	0
8650752	0	0
8912896	0	0
9175040	0	0
9437184	0	0
9699328	0	0
9961472	0	0
10223616	0	0
10485760	0	0
10747904	0	0
11010048	0	0
11272192	0	0
11534336	0	0
11796480	0	0
12058624	0	0
12320768	0	0
12582912	0	0
12845056	0	0
13107200	0	0
13369344	0	0
13631488	0	0
13893632	0	0
14155776	0	0
14417920	0	0
14680064	0	0
14942208	0	0
15204352	0	0
15466496	0	0
15728640	0	0
15990784	0	0
16252928	0	0
16515072	0	0
16777216	0	0
17301504	0	0
17825792	0	0
18350080	0	0
18874368	0	0
19398656	0	0
19922944	0	0
20447232	0	0
20971520	0	0
21495808	0	0
22020096	0	0
22544384	0	0
23068672	0	0
23592960	0	0
24117248	0	0
24641536	0	0
25165824	0	0
25690112	0	0
26214400	0	0
26738688	0	0
27262976	0	0
27787264	0	0
28311552	0	0
28835840	0	0
29360128	0	0
29884416	0	0
30408704	0	0
30932992	0	0
31457280	0	0
31981568	0	0
32505856	0	0
33030144	0	0
33554432	0	0
34603008	0	0
35651584	0	0
36700160	0	0
37748736	0	0
38797312	0	0
39845888	0	0
40894464	0	0
41943040	0	0
42991616	0	0
44040192	0	0
45088768	0	0
46137344	0	0
47185920	0	0
48234496	0	0
49283072	0	0
50331648	0	0
51380224	0	0
52428800	0	0
53477376	0	0
54525952	0	0
55574528	0	0
56623104	0	0
57671680	0	0
58720256	0	0
59768832	0	0
60817408	0	0
61865984	0	0
62914560	0	0
63963136	0	0
65011712	0	0
66060288	0	0
67108864	0	0
69206016	0	0
71303168	0	0
73400320	0	0
75497472	0	0
77594624	0	0
79691776	0	0
81788928	0	0
83886080	0	0
85983232	0	0
88080384	0	0
90177536	0	0
92274688	0	0
94371840	0	0
96468992	0	0
98566144	0	0
100663296	0	0
102760448	0	0
104857600	0	0
106954752	0	0
109051904	0	0
111149056	0	0
113246208	0	0
115343360	0	0
117440512	0	0
119537664	0	0
121634816	0	0
123731968	0	0
125829120	0	0
127926272	0	0
130023424	0	0
132120576	0	0
134217728	0	0
138412032	0	0
142606336	0	0
146800640	0	0
150994944	0	0
155189248	0	0
159383552	0	0
163577856	0	0
167772160	0	0
171966464	0	0
176160768	0	0
180355072	0	0
184549376	0	0
188743680	0	0
192937984	0	0
197132288	0	0
201326592	0	0
205520896	0	0
209715200	0	0
213909504	0	0
218103808	0	0
222298112	0	0
226492416	0	0
230686720	0	0
234881024	0	0
239075328	0	0
243269632	0	0
247463936	0	0
251658240	0	0
255852544	0	0
260046848	0	0
264241152	0	0
268435456	0	0
276824064	0	0
285212672	0	0
293601280	0	0
301989888	0	0
310378496	0	0
318767104	0	0
327155712	0	0
335544320	0	0
343932928	0	0
352321536	0	0
360710144	0	0
369098752	0	0
377487360	0	0
385875968	0	0
394264576	0	0
402653184	0	0
411041792	0	0
419430400	0	0
427819008	0	0
436207616	0	0
444596224	0	0
452984832	0	0
461373440	0	0
469762048	0	0
478150656	0	0
486539264	0	0
494927872	0	0
503316480	0	0
511705088	0	0
520093696	0	0
528482304	0	0
536870912	0	0
553648128	0	0
570425344	0	0
587202560	0	0
603979776	0	0
620756992	0	0
637534208	0	0
654311424	0	0
671088640	0	0
687865856	0	0
704643072	0	0
721420288	0	0
738197504	0	0
754974720	0	0
771751936	0	0
788529152	0	0
805306368	0	0
822083584	0	0
838860800	0	0
855638016	0	0
872415232	0	0
889192448	0	0
905969664	0	0
922746880	0	0
939524096	0	0
956301312	0	0
973078528	0	0
989855744	0	0
1006632960	0	0
1023410176	0	0
1040187392	0	0
1056964608	0	0
1073741824	0	0
1107296256	0	0
1140850688	0	0
1174405120	0	0
1207959552	0	0
1241513984	0	0
1275068416	0	0
1308622848	0	0
1342177280	0	0
1375731712	0	0
1409286144	0	0
1442840576	0	0
1476395008	0	0
1509949440	0	0
1543503872	0	0
1577058304	0	0
1610612736	0	0
1644167168	0	0
1677721600	0	0
1711276032	0	0
1744830464	0	0
1778384896	0	0
1811939328	0	0
1845493760	0	0
1879048192	0	0
1912602624	0	0
1946157056	0	0
1979711488	0	0
2013265920	0	0
2046820352	0	0
2080374784	0	0
2113929216	0	0
2147483648	0	0
2214592512	0	0
2281701376	0	0
2348810240	0	0
2415919104	0	0
2483027968	0	0
2550136832	0	0
2617245696	0	0
2684354560	0	0
2751463424	0	0
2818572288	0	0
2885681152	0	0
2952790016	0	0
3019898880	0	0
3087007744	0	0
3154116608	0	0
3221225472	0	0
3288334336	0	0
3355443200	0	0
3422552064	0	0
3489660928	0	0
3556769792	0	0
3623878656	0	0
3690987520	0	0
3758096384	0	0
3825205248	0	0
3892314112	0	0
3959422976	0	0
4026531840	0	0
4093640704	0	0
4160749568	0	0
4227858432	0	0
~~~~~~~~~~Reuse Distance Profiler output end~~~~~~~~~~


DRAM Statistics
 CHANNEL 0
 RQ ROW_BUFFER_HIT:   13943113  ROW_BUFFER_MISS:   58590341
 DBUS AVG_CONGESTED_CYCLE:    3.91025
 WQ ROW_BUFFER_HIT:    1256315  ROW_BUFFER_MISS:    5465042  FULL:          0


CPU 0 Branch Prediction Accuracy: 98.0254% MPKI: 2.37853 Average ROB Occupancy at Mispredict: 166.694
Branch type MPKI
BRANCH_DIRECT_JUMP: 0
BRANCH_INDIRECT: 0
BRANCH_CONDITIONAL: 2.37853
BRANCH_DIRECT_CALL: 6.66667e-07
BRANCH_INDIRECT_CALL: 0
BRANCH_RETURN: 6.66667e-07

