
*** ChampSim Multicore Out-of-Order Simulator ***

Warmup Instructions: 50000000
Simulation Instructions: 1500000000
Number of CPUs: 1
Off-chip DRAM Size: 4 GiB Channels: 1 Width: 64-bit Data Rate: 3200 MT/s

VirtualMemory physical capacity: 8588881920 num_ppages: 2096895
VirtualMemory page size: 4096 log2_page_size: 12

CPU 0 runs traces/605.mcf_s-472B.champsimtrace.xz
CPU 0 Bimodal branch predictor
Basic BTB sets: 1024 ways: 8 indirect buffer size: 4096 RAS size: 64
Initializing LRU.
Initializing LRU.
Initializing LRU.
Initializing LRU.
Initializing rdLRU.
Initializing LRU.
Initializing LRU.
Heartbeat CPU 0 instructions: 2000003 cycles: 657520 heartbeat IPC: 3.04174 cumulative IPC: 3.04174 (Simulation time: 0 hr 1 min 42 sec) 
Heartbeat CPU 0 instructions: 4000002 cycles: 1280891 heartbeat IPC: 3.20836 cumulative IPC: 3.12283 (Simulation time: 0 hr 3 min 25 sec) 
Heartbeat CPU 0 instructions: 6000001 cycles: 1936648 heartbeat IPC: 3.04991 cumulative IPC: 3.09814 (Simulation time: 0 hr 5 min 12 sec) 
Heartbeat CPU 0 instructions: 8000003 cycles: 2593163 heartbeat IPC: 3.04639 cumulative IPC: 3.08504 (Simulation time: 0 hr 6 min 58 sec) 
Heartbeat CPU 0 instructions: 10000000 cycles: 3251521 heartbeat IPC: 3.03786 cumulative IPC: 3.07548 (Simulation time: 0 hr 8 min 43 sec) 
Heartbeat CPU 0 instructions: 12000000 cycles: 3962482 heartbeat IPC: 2.81309 cumulative IPC: 3.0284 (Simulation time: 0 hr 10 min 34 sec) 
Heartbeat CPU 0 instructions: 14000004 cycles: 4625381 heartbeat IPC: 3.01706 cumulative IPC: 3.02678 (Simulation time: 0 hr 12 min 22 sec) 
Heartbeat CPU 0 instructions: 16000001 cycles: 5292726 heartbeat IPC: 2.99695 cumulative IPC: 3.02302 (Simulation time: 0 hr 14 min 6 sec) 
Heartbeat CPU 0 instructions: 18000000 cycles: 6068003 heartbeat IPC: 2.57972 cumulative IPC: 2.96638 (Simulation time: 0 hr 16 min 7 sec) 
Heartbeat CPU 0 instructions: 20000001 cycles: 6781240 heartbeat IPC: 2.80412 cumulative IPC: 2.94931 (Simulation time: 0 hr 18 min 1 sec) 
Heartbeat CPU 0 instructions: 22000004 cycles: 7447524 heartbeat IPC: 3.00173 cumulative IPC: 2.954 (Simulation time: 0 hr 19 min 47 sec) 
Heartbeat CPU 0 instructions: 24000002 cycles: 8270958 heartbeat IPC: 2.42885 cumulative IPC: 2.90172 (Simulation time: 0 hr 21 min 53 sec) 
Heartbeat CPU 0 instructions: 26000000 cycles: 9090347 heartbeat IPC: 2.44084 cumulative IPC: 2.86018 (Simulation time: 0 hr 24 min 0 sec) 
Heartbeat CPU 0 instructions: 28000002 cycles: 9817113 heartbeat IPC: 2.75192 cumulative IPC: 2.85216 (Simulation time: 0 hr 25 min 54 sec) 
Heartbeat CPU 0 instructions: 30000004 cycles: 10468929 heartbeat IPC: 3.06835 cumulative IPC: 2.86562 (Simulation time: 0 hr 27 min 34 sec) 
Heartbeat CPU 0 instructions: 32000004 cycles: 11099479 heartbeat IPC: 3.17183 cumulative IPC: 2.88302 (Simulation time: 0 hr 29 min 10 sec) 
Heartbeat CPU 0 instructions: 34000004 cycles: 11758183 heartbeat IPC: 3.03627 cumulative IPC: 2.8916 (Simulation time: 0 hr 30 min 48 sec) 
Heartbeat CPU 0 instructions: 36000004 cycles: 12415310 heartbeat IPC: 3.04355 cumulative IPC: 2.89965 (Simulation time: 0 hr 32 min 28 sec) 
Heartbeat CPU 0 instructions: 38000003 cycles: 13063801 heartbeat IPC: 3.08408 cumulative IPC: 2.9088 (Simulation time: 0 hr 34 min 7 sec) 
Heartbeat CPU 0 instructions: 40000002 cycles: 13749781 heartbeat IPC: 2.91554 cumulative IPC: 2.90914 (Simulation time: 0 hr 35 min 50 sec) 
Heartbeat CPU 0 instructions: 42000000 cycles: 14407021 heartbeat IPC: 3.04303 cumulative IPC: 2.91525 (Simulation time: 0 hr 37 min 28 sec) 
Heartbeat CPU 0 instructions: 44000003 cycles: 15065819 heartbeat IPC: 3.03584 cumulative IPC: 2.92052 (Simulation time: 0 hr 39 min 6 sec) 
Heartbeat CPU 0 instructions: 46000001 cycles: 15716497 heartbeat IPC: 3.07371 cumulative IPC: 2.92686 (Simulation time: 0 hr 40 min 46 sec) 
Heartbeat CPU 0 instructions: 48000002 cycles: 16349018 heartbeat IPC: 3.16195 cumulative IPC: 2.93596 (Simulation time: 0 hr 42 min 25 sec) 
Heartbeat CPU 0 instructions: 50000000 cycles: 17104962 heartbeat IPC: 2.6457 cumulative IPC: 2.92313 (Simulation time: 0 hr 44 min 15 sec) 

Warmup complete CPU 0 instructions: 50000005 cycles: 17104965 (Simulation time: 0 hr 44 min 15 sec) 

Heartbeat CPU 0 instructions: 52000000 cycles: 21563723 heartbeat IPC: 0.448555 cumulative IPC: 0.448554 (Simulation time: 0 hr 47 min 0 sec) 

Region of Interest Statistics
cpu0_DTLB TOTAL     ACCESS:     640927  HIT:     639292  MISS:       1635
cpu0_DTLB LOAD      ACCESS:     408176  HIT:     406646  MISS:       1530
cpu0_DTLB RFO       ACCESS:     232751  HIT:     232646  MISS:        105
cpu0_DTLB PREFETCH  ACCESS:          0  HIT:          0  MISS:          0
cpu0_DTLB WRITEBACK ACCESS:          0  HIT:          0  MISS:          0
cpu0_ITLB TOTAL     ACCESS:     181177  HIT:     181177  MISS:          0
cpu0_ITLB LOAD      ACCESS:     181177  HIT:     181177  MISS:          0
cpu0_ITLB RFO       ACCESS:          0  HIT:          0  MISS:          0
cpu0_ITLB PREFETCH  ACCESS:          0  HIT:          0  MISS:          0
cpu0_ITLB WRITEBACK ACCESS:          0  HIT:          0  MISS:          0
cpu0_L1I TOTAL     ACCESS:     101346  HIT:     101346  MISS:          0
cpu0_L1I LOAD      ACCESS:     101346  HIT:     101346  MISS:          0
cpu0_L1I RFO       ACCESS:          0  HIT:          0  MISS:          0
cpu0_L1I PREFETCH  ACCESS:          0  HIT:          0  MISS:          0
cpu0_L1I WRITEBACK ACCESS:          0  HIT:          0  MISS:          0
cpu0_STLB TOTAL     ACCESS:       1635  HIT:        997  MISS:        638
cpu0_STLB LOAD      ACCESS:       1530  HIT:        943  MISS:        587
cpu0_STLB RFO       ACCESS:        105  HIT:         54  MISS:         51
cpu0_STLB PREFETCH  ACCESS:          0  HIT:          0  MISS:          0
cpu0_STLB WRITEBACK ACCESS:          0  HIT:          0  MISS:          0
cpu0_L1D TOTAL     ACCESS:     968081  HIT:     942224  MISS:      25857
cpu0_L1D LOAD      ACCESS:     370411  HIT:     347866  MISS:      22545
cpu0_L1D RFO       ACCESS:     597032  HIT:     593806  MISS:       3226
cpu0_L1D PREFETCH  ACCESS:          0  HIT:          0  MISS:          0
cpu0_L1D WRITEBACK ACCESS:          0  HIT:          0  MISS:          0
cpu0_L2C TOTAL     ACCESS:      33198  HIT:       7690  MISS:      25508
cpu0_L2C LOAD      ACCESS:      22545  HIT:        291  MISS:      22254
cpu0_L2C RFO       ACCESS:       3225  HIT:          2  MISS:       3223
cpu0_L2C PREFETCH  ACCESS:          0  HIT:          0  MISS:          0
cpu0_L2C WRITEBACK ACCESS:       7342  HIT:       7328  MISS:         14
LLC TOTAL     ACCESS:      29506  HIT:         53  MISS:      29453
LLC LOAD      ACCESS:      22254  HIT:          9  MISS:      22245
LLC RFO       ACCESS:       3223  HIT:          1  MISS:       3222
LLC PREFETCH  ACCESS:          0  HIT:          0  MISS:          0
LLC WRITEBACK ACCESS:       4012  HIT:         43  MISS:       3969
Heartbeat CPU 0 instructions: 54000000 cycles: 28120392 heartbeat IPC: 0.305033 cumulative IPC: 0.363127 (Simulation time: 0 hr 50 min 50 sec) 

Region of Interest Statistics
cpu0_DTLB TOTAL     ACCESS:    1296598  HIT:    1291378  MISS:       5220
cpu0_DTLB LOAD      ACCESS:     849681  HIT:     844978  MISS:       4703
cpu0_DTLB RFO       ACCESS:     446917  HIT:     446400  MISS:        517
cpu0_DTLB PREFETCH  ACCESS:          0  HIT:          0  MISS:          0
cpu0_DTLB WRITEBACK ACCESS:          0  HIT:          0  MISS:          0
cpu0_ITLB TOTAL     ACCESS:     369188  HIT:     369188  MISS:          0
cpu0_ITLB LOAD      ACCESS:     369188  HIT:     369188  MISS:          0
cpu0_ITLB RFO       ACCESS:          0  HIT:          0  MISS:          0
cpu0_ITLB PREFETCH  ACCESS:          0  HIT:          0  MISS:          0
cpu0_ITLB WRITEBACK ACCESS:          0  HIT:          0  MISS:          0
cpu0_L1I TOTAL     ACCESS:     225350  HIT:     225350  MISS:          0
cpu0_L1I LOAD      ACCESS:     225350  HIT:     225350  MISS:          0
cpu0_L1I RFO       ACCESS:          0  HIT:          0  MISS:          0
cpu0_L1I PREFETCH  ACCESS:          0  HIT:          0  MISS:          0
cpu0_L1I WRITEBACK ACCESS:          0  HIT:          0  MISS:          0
cpu0_STLB TOTAL     ACCESS:       5220  HIT:       2795  MISS:       2425
cpu0_STLB LOAD      ACCESS:       4703  HIT:       2376  MISS:       2327
cpu0_STLB RFO       ACCESS:        517  HIT:        419  MISS:         98
cpu0_STLB PREFETCH  ACCESS:          0  HIT:          0  MISS:          0
cpu0_STLB WRITEBACK ACCESS:          0  HIT:          0  MISS:          0
cpu0_L1D TOTAL     ACCESS:    1909291  HIT:    1810319  MISS:      98972
cpu0_L1D LOAD      ACCESS:     792099  HIT:     699527  MISS:      92572
cpu0_L1D RFO       ACCESS:    1114767  HIT:    1108533  MISS:       6234
cpu0_L1D PREFETCH  ACCESS:          0  HIT:          0  MISS:          0
cpu0_L1D WRITEBACK ACCESS:          0  HIT:          0  MISS:          0
cpu0_L2C TOTAL     ACCESS:     114074  HIT:      16966  MISS:      97108
cpu0_L2C LOAD      ACCESS:      92572  HIT:       1673  MISS:      90899
cpu0_L2C RFO       ACCESS:       6232  HIT:        137  MISS:       6095
cpu0_L2C PREFETCH  ACCESS:          0  HIT:          0  MISS:          0
cpu0_L2C WRITEBACK ACCESS:      15104  HIT:      15032  MISS:         72
LLC TOTAL     ACCESS:     107542  HIT:        127  MISS:     107415
LLC LOAD      ACCESS:      90899  HIT:         59  MISS:      90840
LLC RFO       ACCESS:       6095  HIT:          7  MISS:       6088
LLC PREFETCH  ACCESS:          0  HIT:          0  MISS:          0
LLC WRITEBACK ACCESS:      10506  HIT:         61  MISS:      10445
Heartbeat CPU 0 instructions: 56000000 cycles: 36986221 heartbeat IPC: 0.225585 cumulative IPC: 0.301792 (Simulation time: 0 hr 56 min 7 sec) 

Region of Interest Statistics
cpu0_DTLB TOTAL     ACCESS:    1966768  HIT:    1955483  MISS:      11285
cpu0_DTLB LOAD      ACCESS:    1329342  HIT:    1319348  MISS:       9994
cpu0_DTLB RFO       ACCESS:     637426  HIT:     636135  MISS:       1291
cpu0_DTLB PREFETCH  ACCESS:          0  HIT:          0  MISS:          0
cpu0_DTLB WRITEBACK ACCESS:          0  HIT:          0  MISS:          0
cpu0_ITLB TOTAL     ACCESS:     562777  HIT:     562777  MISS:          0
cpu0_ITLB LOAD      ACCESS:     562777  HIT:     562777  MISS:          0
cpu0_ITLB RFO       ACCESS:          0  HIT:          0  MISS:          0
cpu0_ITLB PREFETCH  ACCESS:          0  HIT:          0  MISS:          0
cpu0_ITLB WRITEBACK ACCESS:          0  HIT:          0  MISS:          0
cpu0_L1I TOTAL     ACCESS:     372777  HIT:     372777  MISS:          0
cpu0_L1I LOAD      ACCESS:     372777  HIT:     372777  MISS:          0
cpu0_L1I RFO       ACCESS:          0  HIT:          0  MISS:          0
cpu0_L1I PREFETCH  ACCESS:          0  HIT:          0  MISS:          0
cpu0_L1I WRITEBACK ACCESS:          0  HIT:          0  MISS:          0
cpu0_STLB TOTAL     ACCESS:      11285  HIT:       5838  MISS:       5447
cpu0_STLB LOAD      ACCESS:       9994  HIT:       4732  MISS:       5262
cpu0_STLB RFO       ACCESS:       1291  HIT:       1106  MISS:        185
cpu0_STLB PREFETCH  ACCESS:          0  HIT:          0  MISS:          0
cpu0_STLB WRITEBACK ACCESS:          0  HIT:          0  MISS:          0
cpu0_L1D TOTAL     ACCESS:    2820100  HIT:    2598225  MISS:     221875
cpu0_L1D LOAD      ACCESS:    1271069  HIT:    1061333  MISS:     209736
cpu0_L1D RFO       ACCESS:    1543584  HIT:    1531691  MISS:      11893
cpu0_L1D PREFETCH  ACCESS:          0  HIT:          0  MISS:          0
cpu0_L1D WRITEBACK ACCESS:          0  HIT:          0  MISS:          0
cpu0_L2C TOTAL     ACCESS:     247146  HIT:      29005  MISS:     218141
cpu0_L2C LOAD      ACCESS:     209737  HIT:       3386  MISS:     206351
cpu0_L2C RFO       ACCESS:      11891  HIT:        341  MISS:      11550
cpu0_L2C PREFETCH  ACCESS:          0  HIT:          0  MISS:          0
cpu0_L2C WRITEBACK ACCESS:      25272  HIT:      25103  MISS:        169
LLC TOTAL     ACCESS:     240497  HIT:        233  MISS:     240264
LLC LOAD      ACCESS:     206351  HIT:        130  MISS:     206221
LLC RFO       ACCESS:      11550  HIT:         14  MISS:      11536
LLC PREFETCH  ACCESS:          0  HIT:          0  MISS:          0
LLC WRITEBACK ACCESS:      22525  HIT:         89  MISS:      22436
Heartbeat CPU 0 instructions: 58000000 cycles: 45001057 heartbeat IPC: 0.249537 cumulative IPC: 0.286778 (Simulation time: 1 hr 0 min 51 sec) 

Region of Interest Statistics
cpu0_DTLB TOTAL     ACCESS:    2631833  HIT:    2614849  MISS:      16984
cpu0_DTLB LOAD      ACCESS:    1794063  HIT:    1779233  MISS:      14830
cpu0_DTLB RFO       ACCESS:     837770  HIT:     835616  MISS:       2154
cpu0_DTLB PREFETCH  ACCESS:          0  HIT:          0  MISS:          0
cpu0_DTLB WRITEBACK ACCESS:          0  HIT:          0  MISS:          0
cpu0_ITLB TOTAL     ACCESS:     751069  HIT:     751069  MISS:          0
cpu0_ITLB LOAD      ACCESS:     751069  HIT:     751069  MISS:          0
cpu0_ITLB RFO       ACCESS:          0  HIT:          0  MISS:          0
cpu0_ITLB PREFETCH  ACCESS:          0  HIT:          0  MISS:          0
cpu0_ITLB WRITEBACK ACCESS:          0  HIT:          0  MISS:          0
cpu0_L1I TOTAL     ACCESS:     514764  HIT:     514764  MISS:          0
cpu0_L1I LOAD      ACCESS:     514764  HIT:     514764  MISS:          0
cpu0_L1I RFO       ACCESS:          0  HIT:          0  MISS:          0
cpu0_L1I PREFETCH  ACCESS:          0  HIT:          0  MISS:          0
cpu0_L1I WRITEBACK ACCESS:          0  HIT:          0  MISS:          0
cpu0_STLB TOTAL     ACCESS:      16984  HIT:       8963  MISS:       8021
cpu0_STLB LOAD      ACCESS:      14830  HIT:       7078  MISS:       7752
cpu0_STLB RFO       ACCESS:       2154  HIT:       1885  MISS:        269
cpu0_STLB PREFETCH  ACCESS:          0  HIT:          0  MISS:          0
cpu0_STLB WRITEBACK ACCESS:          0  HIT:          0  MISS:          0
cpu0_L1D TOTAL     ACCESS:    3742383  HIT:    3418575  MISS:     323808
cpu0_L1D LOAD      ACCESS:    1724656  HIT:    1418627  MISS:     306029
cpu0_L1D RFO       ACCESS:    2009706  HIT:    1992271  MISS:      17435
cpu0_L1D PREFETCH  ACCESS:          0  HIT:          0  MISS:          0
cpu0_L1D WRITEBACK ACCESS:          0  HIT:          0  MISS:          0
cpu0_L2C TOTAL     ACCESS:     358209  HIT:      38875  MISS:     319334
cpu0_L2C LOAD      ACCESS:     306029  HIT:       4023  MISS:     302006
cpu0_L2C RFO       ACCESS:      17433  HIT:        410  MISS:      17023
cpu0_L2C PREFETCH  ACCESS:          0  HIT:          0  MISS:          0
cpu0_L2C WRITEBACK ACCESS:      34403  HIT:      34202  MISS:        201
LLC TOTAL     ACCESS:     347417  HIT:        333  MISS:     347084
LLC LOAD      ACCESS:     302006  HIT:        149  MISS:     301857
LLC RFO       ACCESS:      17023  HIT:         18  MISS:      17005
LLC PREFETCH  ACCESS:          0  HIT:          0  MISS:          0
LLC WRITEBACK ACCESS:      28284  HIT:        166  MISS:      28118
Heartbeat CPU 0 instructions: 60000001 cycles: 55653393 heartbeat IPC: 0.187752 cumulative IPC: 0.259414 (Simulation time: 1 hr 6 min 54 sec) 

Region of Interest Statistics
cpu0_DTLB TOTAL     ACCESS:    3306285  HIT:    3280196  MISS:      26089
cpu0_DTLB LOAD      ACCESS:    2287590  HIT:    2264508  MISS:      23082
cpu0_DTLB RFO       ACCESS:    1018695  HIT:    1015688  MISS:       3007
cpu0_DTLB PREFETCH  ACCESS:          0  HIT:          0  MISS:          0
cpu0_DTLB WRITEBACK ACCESS:          0  HIT:          0  MISS:          0
cpu0_ITLB TOTAL     ACCESS:     945196  HIT:     945196  MISS:          0
cpu0_ITLB LOAD      ACCESS:     945196  HIT:     945196  MISS:          0
cpu0_ITLB RFO       ACCESS:          0  HIT:          0  MISS:          0
cpu0_ITLB PREFETCH  ACCESS:          0  HIT:          0  MISS:          0
cpu0_ITLB WRITEBACK ACCESS:          0  HIT:          0  MISS:          0
cpu0_L1I TOTAL     ACCESS:     675082  HIT:     675082  MISS:          0
cpu0_L1I LOAD      ACCESS:     675082  HIT:     675082  MISS:          0
cpu0_L1I RFO       ACCESS:          0  HIT:          0  MISS:          0
cpu0_L1I PREFETCH  ACCESS:          0  HIT:          0  MISS:          0
cpu0_L1I WRITEBACK ACCESS:          0  HIT:          0  MISS:          0
cpu0_STLB TOTAL     ACCESS:      26089  HIT:      14074  MISS:      12015
cpu0_STLB LOAD      ACCESS:      23082  HIT:      11427  MISS:      11655
cpu0_STLB RFO       ACCESS:       3007  HIT:       2647  MISS:        360
cpu0_STLB PREFETCH  ACCESS:          0  HIT:          0  MISS:          0
cpu0_STLB WRITEBACK ACCESS:          0  HIT:          0  MISS:          0
cpu0_L1D TOTAL     ACCESS:    4642943  HIT:    4172514  MISS:     470429
cpu0_L1D LOAD      ACCESS:    2224201  HIT:    1777924  MISS:     446277
cpu0_L1D RFO       ACCESS:    2406727  HIT:    2383093  MISS:      23634
cpu0_L1D PREFETCH  ACCESS:          0  HIT:          0  MISS:          0
cpu0_L1D WRITEBACK ACCESS:          0  HIT:          0  MISS:          0
cpu0_L2C TOTAL     ACCESS:     517618  HIT:      53885  MISS:     463733
cpu0_L2C LOAD      ACCESS:     446277  HIT:       5988  MISS:     440289
cpu0_L2C RFO       ACCESS:      23632  HIT:        624  MISS:      23008
cpu0_L2C PREFETCH  ACCESS:          0  HIT:          0  MISS:          0
cpu0_L2C WRITEBACK ACCESS:      47191  HIT:      46911  MISS:        280
LLC TOTAL     ACCESS:     503115  HIT:        520  MISS:     502595
LLC LOAD      ACCESS:     440289  HIT:        220  MISS:     440069
LLC RFO       ACCESS:      23008  HIT:         28  MISS:      22980
LLC PREFETCH  ACCESS:          0  HIT:          0  MISS:          0
LLC WRITEBACK ACCESS:      39662  HIT:        272  MISS:      39390
Heartbeat CPU 0 instructions: 62000000 cycles: 63016003 heartbeat IPC: 0.271643 cumulative IPC: 0.261375 (Simulation time: 1 hr 11 min 8 sec) 

Region of Interest Statistics
cpu0_DTLB TOTAL     ACCESS:    3959500  HIT:    3927413  MISS:      32087
cpu0_DTLB LOAD      ACCESS:    2731486  HIT:    2702726  MISS:      28760
cpu0_DTLB RFO       ACCESS:    1228014  HIT:    1224687  MISS:       3327
cpu0_DTLB PREFETCH  ACCESS:          0  HIT:          0  MISS:          0
cpu0_DTLB WRITEBACK ACCESS:          0  HIT:          0  MISS:          0
cpu0_ITLB TOTAL     ACCESS:    1130874  HIT:    1130874  MISS:          0
cpu0_ITLB LOAD      ACCESS:    1130874  HIT:    1130874  MISS:          0
cpu0_ITLB RFO       ACCESS:          0  HIT:          0  MISS:          0
cpu0_ITLB PREFETCH  ACCESS:          0  HIT:          0  MISS:          0
cpu0_ITLB WRITEBACK ACCESS:          0  HIT:          0  MISS:          0
cpu0_L1I TOTAL     ACCESS:     807410  HIT:     807410  MISS:          0
cpu0_L1I LOAD      ACCESS:     807410  HIT:     807410  MISS:          0
cpu0_L1I RFO       ACCESS:          0  HIT:          0  MISS:          0
cpu0_L1I PREFETCH  ACCESS:          0  HIT:          0  MISS:          0
cpu0_L1I WRITEBACK ACCESS:          0  HIT:          0  MISS:          0
cpu0_STLB TOTAL     ACCESS:      32087  HIT:      17995  MISS:      14092
cpu0_STLB LOAD      ACCESS:      28760  HIT:      15089  MISS:      13671
cpu0_STLB RFO       ACCESS:       3327  HIT:       2906  MISS:        421
cpu0_STLB PREFETCH  ACCESS:          0  HIT:          0  MISS:          0
cpu0_STLB WRITEBACK ACCESS:          0  HIT:          0  MISS:          0
cpu0_L1D TOTAL     ACCESS:    5589473  HIT:    5039967  MISS:     549506
cpu0_L1D LOAD      ACCESS:    2659389  HIT:    2137926  MISS:     521463
cpu0_L1D RFO       ACCESS:    2915992  HIT:    2888592  MISS:      27400
cpu0_L1D PREFETCH  ACCESS:          0  HIT:          0  MISS:          0
cpu0_L1D WRITEBACK ACCESS:          0  HIT:          0  MISS:          0
cpu0_L2C TOTAL     ACCESS:     606467  HIT:      65405  MISS:     541062
cpu0_L2C LOAD      ACCESS:     521463  HIT:       7649  MISS:     513814
cpu0_L2C RFO       ACCESS:      27398  HIT:        675  MISS:      26723
cpu0_L2C PREFETCH  ACCESS:          0  HIT:          0  MISS:          0
cpu0_L2C WRITEBACK ACCESS:      56963  HIT:      56628  MISS:        335
LLC TOTAL     ACCESS:     590716  HIT:        624  MISS:     590092
LLC LOAD      ACCESS:     513814  HIT:        296  MISS:     513518
LLC RFO       ACCESS:      26723  HIT:         30  MISS:      26693
LLC PREFETCH  ACCESS:          0  HIT:          0  MISS:          0
LLC WRITEBACK ACCESS:      49989  HIT:        298  MISS:      49691
Heartbeat CPU 0 instructions: 64000003 cycles: 70241144 heartbeat IPC: 0.276812 cumulative IPC: 0.263474 (Simulation time: 1 hr 15 min 19 sec) 

Region of Interest Statistics
cpu0_DTLB TOTAL     ACCESS:    4612960  HIT:    4576512  MISS:      36448
cpu0_DTLB LOAD      ACCESS:    3175886  HIT:    3143013  MISS:      32873
cpu0_DTLB RFO       ACCESS:    1437074  HIT:    1433499  MISS:       3575
cpu0_DTLB PREFETCH  ACCESS:          0  HIT:          0  MISS:          0
cpu0_DTLB WRITEBACK ACCESS:          0  HIT:          0  MISS:          0
cpu0_ITLB TOTAL     ACCESS:    1320719  HIT:    1320719  MISS:          0
cpu0_ITLB LOAD      ACCESS:    1320719  HIT:    1320719  MISS:          0
cpu0_ITLB RFO       ACCESS:          0  HIT:          0  MISS:          0
cpu0_ITLB PREFETCH  ACCESS:          0  HIT:          0  MISS:          0
cpu0_ITLB WRITEBACK ACCESS:          0  HIT:          0  MISS:          0
cpu0_L1I TOTAL     ACCESS:     932273  HIT:     932273  MISS:          0
cpu0_L1I LOAD      ACCESS:     932273  HIT:     932273  MISS:          0
cpu0_L1I RFO       ACCESS:          0  HIT:          0  MISS:          0
cpu0_L1I PREFETCH  ACCESS:          0  HIT:          0  MISS:          0
cpu0_L1I WRITEBACK ACCESS:          0  HIT:          0  MISS:          0
cpu0_STLB TOTAL     ACCESS:      36448  HIT:      20193  MISS:      16255
cpu0_STLB LOAD      ACCESS:      32873  HIT:      17100  MISS:      15773
cpu0_STLB RFO       ACCESS:       3575  HIT:       3093  MISS:        482
cpu0_STLB PREFETCH  ACCESS:          0  HIT:          0  MISS:          0
cpu0_STLB WRITEBACK ACCESS:          0  HIT:          0  MISS:          0
cpu0_L1D TOTAL     ACCESS:    6535975  HIT:    5908211  MISS:     627764
cpu0_L1D LOAD      ACCESS:    3097358  HIT:    2501746  MISS:     595612
cpu0_L1D RFO       ACCESS:    3422362  HIT:    3390979  MISS:      31383
cpu0_L1D PREFETCH  ACCESS:          0  HIT:          0  MISS:          0
cpu0_L1D WRITEBACK ACCESS:          0  HIT:          0  MISS:          0
cpu0_L2C TOTAL     ACCESS:     693099  HIT:      75062  MISS:     618037
cpu0_L2C LOAD      ACCESS:     595611  HIT:       8855  MISS:     586756
cpu0_L2C RFO       ACCESS:      31381  HIT:        720  MISS:      30661
cpu0_L2C PREFETCH  ACCESS:          0  HIT:          0  MISS:          0
cpu0_L2C WRITEBACK ACCESS:      65338  HIT:      64944  MISS:        394
LLC TOTAL     ACCESS:     674804  HIT:        721  MISS:     674083
LLC LOAD      ACCESS:     586756  HIT:        347  MISS:     586409
LLC RFO       ACCESS:      30661  HIT:         31  MISS:      30630
LLC PREFETCH  ACCESS:          0  HIT:          0  MISS:          0
LLC WRITEBACK ACCESS:      57161  HIT:        343  MISS:      56818
Heartbeat CPU 0 instructions: 66000002 cycles: 77359485 heartbeat IPC: 0.280964 cumulative IPC: 0.26554 (Simulation time: 1 hr 19 min 31 sec) 

Region of Interest Statistics
cpu0_DTLB TOTAL     ACCESS:    5265938  HIT:    5221116  MISS:      44822
cpu0_DTLB LOAD      ACCESS:    3620083  HIT:    3579116  MISS:      40967
cpu0_DTLB RFO       ACCESS:    1645855  HIT:    1642000  MISS:       3855
cpu0_DTLB PREFETCH  ACCESS:          0  HIT:          0  MISS:          0
cpu0_DTLB WRITEBACK ACCESS:          0  HIT:          0  MISS:          0
cpu0_ITLB TOTAL     ACCESS:    1509478  HIT:    1509478  MISS:          0
cpu0_ITLB LOAD      ACCESS:    1509478  HIT:    1509478  MISS:          0
cpu0_ITLB RFO       ACCESS:          0  HIT:          0  MISS:          0
cpu0_ITLB PREFETCH  ACCESS:          0  HIT:          0  MISS:          0
cpu0_ITLB WRITEBACK ACCESS:          0  HIT:          0  MISS:          0
cpu0_L1I TOTAL     ACCESS:    1059046  HIT:    1059046  MISS:          0
cpu0_L1I LOAD      ACCESS:    1059046  HIT:    1059046  MISS:          0
cpu0_L1I RFO       ACCESS:          0  HIT:          0  MISS:          0
cpu0_L1I PREFETCH  ACCESS:          0  HIT:          0  MISS:          0
cpu0_L1I WRITEBACK ACCESS:          0  HIT:          0  MISS:          0
cpu0_STLB TOTAL     ACCESS:      44822  HIT:      26496  MISS:      18326
cpu0_STLB LOAD      ACCESS:      40967  HIT:      23181  MISS:      17786
cpu0_STLB RFO       ACCESS:       3855  HIT:       3315  MISS:        540
cpu0_STLB PREFETCH  ACCESS:          0  HIT:          0  MISS:          0
cpu0_STLB WRITEBACK ACCESS:          0  HIT:          0  MISS:          0
cpu0_L1D TOTAL     ACCESS:    7482375  HIT:    6777030  MISS:     705345
cpu0_L1D LOAD      ACCESS:    3534788  HIT:    2865619  MISS:     669169
cpu0_L1D RFO       ACCESS:    3929261  HIT:    3893959  MISS:      35302
cpu0_L1D PREFETCH  ACCESS:          0  HIT:          0  MISS:          0
cpu0_L1D WRITEBACK ACCESS:          0  HIT:          0  MISS:          0
cpu0_L2C TOTAL     ACCESS:     778843  HIT:      84566  MISS:     694277
cpu0_L2C LOAD      ACCESS:     669168  HIT:      10122  MISS:     659046
cpu0_L2C RFO       ACCESS:      35300  HIT:        769  MISS:      34531
cpu0_L2C PREFETCH  ACCESS:          0  HIT:          0  MISS:          0
cpu0_L2C WRITEBACK ACCESS:      73501  HIT:      73054  MISS:        447
LLC TOTAL     ACCESS:     758260  HIT:        791  MISS:     757469
LLC LOAD      ACCESS:     659046  HIT:        400  MISS:     658646
LLC RFO       ACCESS:      34531  HIT:         34  MISS:      34497
LLC PREFETCH  ACCESS:          0  HIT:          0  MISS:          0
LLC WRITEBACK ACCESS:      64430  HIT:        357  MISS:      64073
Heartbeat CPU 0 instructions: 68000000 cycles: 85775134 heartbeat IPC: 0.237652 cumulative IPC: 0.262122 (Simulation time: 1 hr 24 min 22 sec) 

Region of Interest Statistics
cpu0_DTLB TOTAL     ACCESS:    5929630  HIT:    5878232  MISS:      51398
cpu0_DTLB LOAD      ACCESS:    4090921  HIT:    4043709  MISS:      47212
cpu0_DTLB RFO       ACCESS:    1838709  HIT:    1834523  MISS:       4186
cpu0_DTLB PREFETCH  ACCESS:          0  HIT:          0  MISS:          0
cpu0_DTLB WRITEBACK ACCESS:          0  HIT:          0  MISS:          0
cpu0_ITLB TOTAL     ACCESS:    1701644  HIT:    1701644  MISS:          0
cpu0_ITLB LOAD      ACCESS:    1701644  HIT:    1701644  MISS:          0
cpu0_ITLB RFO       ACCESS:          0  HIT:          0  MISS:          0
cpu0_ITLB PREFETCH  ACCESS:          0  HIT:          0  MISS:          0
cpu0_ITLB WRITEBACK ACCESS:          0  HIT:          0  MISS:          0
cpu0_L1I TOTAL     ACCESS:    1199595  HIT:    1199595  MISS:          0
cpu0_L1I LOAD      ACCESS:    1199595  HIT:    1199595  MISS:          0
cpu0_L1I RFO       ACCESS:          0  HIT:          0  MISS:          0
cpu0_L1I PREFETCH  ACCESS:          0  HIT:          0  MISS:          0
cpu0_L1I WRITEBACK ACCESS:          0  HIT:          0  MISS:          0
cpu0_STLB TOTAL     ACCESS:      51398  HIT:      30355  MISS:      21043
cpu0_STLB LOAD      ACCESS:      47212  HIT:      26809  MISS:      20403
cpu0_STLB RFO       ACCESS:       4186  HIT:       3546  MISS:        640
cpu0_STLB PREFETCH  ACCESS:          0  HIT:          0  MISS:          0
cpu0_STLB WRITEBACK ACCESS:          0  HIT:          0  MISS:          0
cpu0_L1D TOTAL     ACCESS:    8406705  HIT:    7591147  MISS:     815558
cpu0_L1D LOAD      ACCESS:    4008077  HIT:    3235098  MISS:     772979
cpu0_L1D RFO       ACCESS:    4377585  HIT:    4335970  MISS:      41615
cpu0_L1D PREFETCH  ACCESS:          0  HIT:          0  MISS:          0
cpu0_L1D WRITEBACK ACCESS:          0  HIT:          0  MISS:          0
cpu0_L2C TOTAL     ACCESS:     898970  HIT:      96109  MISS:     802861
cpu0_L2C LOAD      ACCESS:     772978  HIT:      11680  MISS:     761298
cpu0_L2C RFO       ACCESS:      41613  HIT:        868  MISS:      40745
cpu0_L2C PREFETCH  ACCESS:          0  HIT:          0  MISS:          0
cpu0_L2C WRITEBACK ACCESS:      83415  HIT:      82871  MISS:        544
LLC TOTAL     ACCESS:     876652  HIT:        883  MISS:     875769
LLC LOAD      ACCESS:     761298  HIT:        434  MISS:     760864
LLC RFO       ACCESS:      40745  HIT:         38  MISS:      40707
LLC PREFETCH  ACCESS:          0  HIT:          0  MISS:          0
LLC WRITEBACK ACCESS:      74335  HIT:        411  MISS:      73924
Heartbeat CPU 0 instructions: 70000003 cycles: 91329481 heartbeat IPC: 0.360079 cumulative IPC: 0.269453 (Simulation time: 1 hr 27 min 35 sec) 

Region of Interest Statistics
cpu0_DTLB TOTAL     ACCESS:    6575245  HIT:    6516518  MISS:      58727
cpu0_DTLB LOAD      ACCESS:    4515766  HIT:    4461563  MISS:      54203
cpu0_DTLB RFO       ACCESS:    2059479  HIT:    2054955  MISS:       4524
cpu0_DTLB PREFETCH  ACCESS:          0  HIT:          0  MISS:          0
cpu0_DTLB WRITEBACK ACCESS:          0  HIT:          0  MISS:          0
cpu0_ITLB TOTAL     ACCESS:    1888184  HIT:    1888184  MISS:          0
cpu0_ITLB LOAD      ACCESS:    1888184  HIT:    1888184  MISS:          0
cpu0_ITLB RFO       ACCESS:          0  HIT:          0  MISS:          0
cpu0_ITLB PREFETCH  ACCESS:          0  HIT:          0  MISS:          0
cpu0_ITLB WRITEBACK ACCESS:          0  HIT:          0  MISS:          0
cpu0_L1I TOTAL     ACCESS:    1308331  HIT:    1308331  MISS:          0
cpu0_L1I LOAD      ACCESS:    1308331  HIT:    1308331  MISS:          0
cpu0_L1I RFO       ACCESS:          0  HIT:          0  MISS:          0
cpu0_L1I PREFETCH  ACCESS:          0  HIT:          0  MISS:          0
cpu0_L1I WRITEBACK ACCESS:          0  HIT:          0  MISS:          0
cpu0_STLB TOTAL     ACCESS:      58727  HIT:      36382  MISS:      22345
cpu0_STLB LOAD      ACCESS:      54203  HIT:      32543  MISS:      21660
cpu0_STLB RFO       ACCESS:       4524  HIT:       3839  MISS:        685
cpu0_STLB PREFETCH  ACCESS:          0  HIT:          0  MISS:          0
cpu0_STLB WRITEBACK ACCESS:          0  HIT:          0  MISS:          0
cpu0_L1D TOTAL     ACCESS:    9368890  HIT:    8503386  MISS:     865504
cpu0_L1D LOAD      ACCESS:    4410110  HIT:    3590293  MISS:     819817
cpu0_L1D RFO       ACCESS:    4936435  HIT:    4891789  MISS:      44646
cpu0_L1D PREFETCH  ACCESS:          0  HIT:          0  MISS:          0
cpu0_L1D WRITEBACK ACCESS:          0  HIT:          0  MISS:          0
cpu0_L2C TOTAL     ACCESS:     957028  HIT:     104615  MISS:     852413
cpu0_L2C LOAD      ACCESS:     819816  HIT:      12002  MISS:     807814
cpu0_L2C RFO       ACCESS:      44644  HIT:        890  MISS:      43754
cpu0_L2C PREFETCH  ACCESS:          0  HIT:          0  MISS:          0
cpu0_L2C WRITEBACK ACCESS:      91527  HIT:      90975  MISS:        552
LLC TOTAL     ACCESS:     930312  HIT:        908  MISS:     929404
LLC LOAD      ACCESS:     807814  HIT:        450  MISS:     807364
LLC RFO       ACCESS:      43754  HIT:         40  MISS:      43714
LLC PREFETCH  ACCESS:          0  HIT:          0  MISS:          0
LLC WRITEBACK ACCESS:      78451  HIT:        418  MISS:      78033
Heartbeat CPU 0 instructions: 72000001 cycles: 98779538 heartbeat IPC: 0.268454 cumulative IPC: 0.269362 (Simulation time: 1 hr 31 min 42 sec) 

Region of Interest Statistics
cpu0_DTLB TOTAL     ACCESS:    7227749  HIT:    7159621  MISS:      68128
cpu0_DTLB LOAD      ACCESS:    4957501  HIT:    4894167  MISS:      63334
cpu0_DTLB RFO       ACCESS:    2270248  HIT:    2265454  MISS:       4794
cpu0_DTLB PREFETCH  ACCESS:          0  HIT:          0  MISS:          0
cpu0_DTLB WRITEBACK ACCESS:          0  HIT:          0  MISS:          0
cpu0_ITLB TOTAL     ACCESS:    2077205  HIT:    2077205  MISS:          0
cpu0_ITLB LOAD      ACCESS:    2077205  HIT:    2077205  MISS:          0
cpu0_ITLB RFO       ACCESS:          0  HIT:          0  MISS:          0
cpu0_ITLB PREFETCH  ACCESS:          0  HIT:          0  MISS:          0
cpu0_ITLB WRITEBACK ACCESS:          0  HIT:          0  MISS:          0
cpu0_L1I TOTAL     ACCESS:    1430743  HIT:    1430743  MISS:          0
cpu0_L1I LOAD      ACCESS:    1430743  HIT:    1430743  MISS:          0
cpu0_L1I RFO       ACCESS:          0  HIT:          0  MISS:          0
cpu0_L1I PREFETCH  ACCESS:          0  HIT:          0  MISS:          0
cpu0_L1I WRITEBACK ACCESS:          0  HIT:          0  MISS:          0
cpu0_STLB TOTAL     ACCESS:      68128  HIT:      43716  MISS:      24412
cpu0_STLB LOAD      ACCESS:      63334  HIT:      39661  MISS:      23673
cpu0_STLB RFO       ACCESS:       4794  HIT:       4055  MISS:        739
cpu0_STLB PREFETCH  ACCESS:          0  HIT:          0  MISS:          0
cpu0_STLB WRITEBACK ACCESS:          0  HIT:          0  MISS:          0
cpu0_L1D TOTAL     ACCESS:   10317841  HIT:    9375061  MISS:     942780
cpu0_L1D LOAD      ACCESS:    4840670  HIT:    3947109  MISS:     893561
cpu0_L1D RFO       ACCESS:    5452759  HIT:    5404712  MISS:      48047
cpu0_L1D PREFETCH  ACCESS:          0  HIT:          0  MISS:          0
cpu0_L1D WRITEBACK ACCESS:          0  HIT:          0  MISS:          0
cpu0_L2C TOTAL     ACCESS:    1045505  HIT:     117519  MISS:     927986
cpu0_L2C LOAD      ACCESS:     893559  HIT:      13599  MISS:     879960
cpu0_L2C RFO       ACCESS:      48045  HIT:        947  MISS:      47098
cpu0_L2C PREFETCH  ACCESS:          0  HIT:          0  MISS:          0
cpu0_L2C WRITEBACK ACCESS:     102729  HIT:     102121  MISS:        608
LLC TOTAL     ACCESS:    1017390  HIT:       1001  MISS:    1016389
LLC LOAD      ACCESS:     879960  HIT:        511  MISS:     879449
LLC RFO       ACCESS:      47098  HIT:         44  MISS:      47054
LLC PREFETCH  ACCESS:          0  HIT:          0  MISS:          0
LLC WRITEBACK ACCESS:      90012  HIT:        446  MISS:      89566
Heartbeat CPU 0 instructions: 74000003 cycles: 110317913 heartbeat IPC: 0.173335 cumulative IPC: 0.257475 (Simulation time: 1 hr 38 min 14 sec) 

Region of Interest Statistics
cpu0_DTLB TOTAL     ACCESS:    7908628  HIT:    7831835  MISS:      76793
cpu0_DTLB LOAD      ACCESS:    5472474  HIT:    5400799  MISS:      71675
cpu0_DTLB RFO       ACCESS:    2436154  HIT:    2431036  MISS:       5118
cpu0_DTLB PREFETCH  ACCESS:          0  HIT:          0  MISS:          0
cpu0_DTLB WRITEBACK ACCESS:          0  HIT:          0  MISS:          0
cpu0_ITLB TOTAL     ACCESS:    2280480  HIT:    2280480  MISS:          0
cpu0_ITLB LOAD      ACCESS:    2280480  HIT:    2280480  MISS:          0
cpu0_ITLB RFO       ACCESS:          0  HIT:          0  MISS:          0
cpu0_ITLB PREFETCH  ACCESS:          0  HIT:          0  MISS:          0
cpu0_ITLB WRITEBACK ACCESS:          0  HIT:          0  MISS:          0
cpu0_L1I TOTAL     ACCESS:    1590831  HIT:    1590831  MISS:          0
cpu0_L1I LOAD      ACCESS:    1590831  HIT:    1590831  MISS:          0
cpu0_L1I RFO       ACCESS:          0  HIT:          0  MISS:          0
cpu0_L1I PREFETCH  ACCESS:          0  HIT:          0  MISS:          0
cpu0_L1I WRITEBACK ACCESS:          0  HIT:          0  MISS:          0
cpu0_STLB TOTAL     ACCESS:      76793  HIT:      48005  MISS:      28788
cpu0_STLB LOAD      ACCESS:      71675  HIT:      43752  MISS:      27923
cpu0_STLB RFO       ACCESS:       5118  HIT:       4253  MISS:        865
cpu0_STLB PREFETCH  ACCESS:          0  HIT:          0  MISS:          0
cpu0_STLB WRITEBACK ACCESS:          0  HIT:          0  MISS:          0
cpu0_L1D TOTAL     ACCESS:   11207118  HIT:   10093046  MISS:    1114072
cpu0_L1D LOAD      ACCESS:    5378515  HIT:    4321887  MISS:    1056628
cpu0_L1D RFO       ACCESS:    5799815  HIT:    5743671  MISS:      56144
cpu0_L1D PREFETCH  ACCESS:          0  HIT:          0  MISS:          0
cpu0_L1D WRITEBACK ACCESS:          0  HIT:          0  MISS:          0
cpu0_L2C TOTAL     ACCESS:    1229091  HIT:     132046  MISS:    1097045
cpu0_L2C LOAD      ACCESS:    1056626  HIT:      15704  MISS:    1040922
cpu0_L2C RFO       ACCESS:      56142  HIT:       1066  MISS:      55076
cpu0_L2C PREFETCH  ACCESS:          0  HIT:          0  MISS:          0
cpu0_L2C WRITEBACK ACCESS:     115023  HIT:     114343  MISS:        680
LLC TOTAL     ACCESS:    1199186  HIT:       1140  MISS:    1198046
LLC LOAD      ACCESS:    1040922  HIT:        578  MISS:    1040344
LLC RFO       ACCESS:      55076  HIT:         49  MISS:      55027
LLC PREFETCH  ACCESS:          0  HIT:          0  MISS:          0
LLC WRITEBACK ACCESS:     102821  HIT:        513  MISS:     102308
Heartbeat CPU 0 instructions: 76000000 cycles: 117834211 heartbeat IPC: 0.266088 cumulative IPC: 0.258118 (Simulation time: 1 hr 42 min 42 sec) 

Region of Interest Statistics
cpu0_DTLB TOTAL     ACCESS:    8564630  HIT:    8482517  MISS:      82113
cpu0_DTLB LOAD      ACCESS:    5924222  HIT:    5847588  MISS:      76634
cpu0_DTLB RFO       ACCESS:    2640408  HIT:    2634929  MISS:       5479
cpu0_DTLB PREFETCH  ACCESS:          0  HIT:          0  MISS:          0
cpu0_DTLB WRITEBACK ACCESS:          0  HIT:          0  MISS:          0
cpu0_ITLB TOTAL     ACCESS:    2470575  HIT:    2470575  MISS:          0
cpu0_ITLB LOAD      ACCESS:    2470575  HIT:    2470575  MISS:          0
cpu0_ITLB RFO       ACCESS:          0  HIT:          0  MISS:          0
cpu0_ITLB PREFETCH  ACCESS:          0  HIT:          0  MISS:          0
cpu0_ITLB WRITEBACK ACCESS:          0  HIT:          0  MISS:          0
cpu0_L1I TOTAL     ACCESS:    1723335  HIT:    1723335  MISS:          0
cpu0_L1I LOAD      ACCESS:    1723335  HIT:    1723335  MISS:          0
cpu0_L1I RFO       ACCESS:          0  HIT:          0  MISS:          0
cpu0_L1I PREFETCH  ACCESS:          0  HIT:          0  MISS:          0
cpu0_L1I WRITEBACK ACCESS:          0  HIT:          0  MISS:          0
cpu0_STLB TOTAL     ACCESS:      82113  HIT:      50966  MISS:      31147
cpu0_STLB LOAD      ACCESS:      76634  HIT:      46411  MISS:      30223
cpu0_STLB RFO       ACCESS:       5479  HIT:       4555  MISS:        924
cpu0_STLB PREFETCH  ACCESS:          0  HIT:          0  MISS:          0
cpu0_STLB WRITEBACK ACCESS:          0  HIT:          0  MISS:          0
cpu0_L1D TOTAL     ACCESS:   12146049  HIT:   10944917  MISS:    1201132
cpu0_L1D LOAD      ACCESS:    5825921  HIT:    4686257  MISS:    1139664
cpu0_L1D RFO       ACCESS:    6288981  HIT:    6228915  MISS:      60066
cpu0_L1D PREFETCH  ACCESS:          0  HIT:          0  MISS:          0
cpu0_L1D WRITEBACK ACCESS:          0  HIT:          0  MISS:          0
cpu0_L2C TOTAL     ACCESS:    1323705  HIT:     140282  MISS:    1183423
cpu0_L2C LOAD      ACCESS:    1139662  HIT:      16326  MISS:    1123336
cpu0_L2C RFO       ACCESS:      60064  HIT:       1103  MISS:      58961
cpu0_L2C PREFETCH  ACCESS:          0  HIT:          0  MISS:          0
cpu0_L2C WRITEBACK ACCESS:     122577  HIT:     121845  MISS:        732
LLC TOTAL     ACCESS:    1292573  HIT:       1206  MISS:    1291367
LLC LOAD      ACCESS:    1123336  HIT:        590  MISS:    1122746
LLC RFO       ACCESS:      58961  HIT:         51  MISS:      58910
LLC PREFETCH  ACCESS:          0  HIT:          0  MISS:          0
LLC WRITEBACK ACCESS:     109882  HIT:        565  MISS:     109317
Heartbeat CPU 0 instructions: 78000003 cycles: 126502884 heartbeat IPC: 0.230716 cumulative IPC: 0.255946 (Simulation time: 1 hr 47 min 53 sec) 

Region of Interest Statistics
cpu0_DTLB TOTAL     ACCESS:    9230812  HIT:    9144200  MISS:      86612
cpu0_DTLB LOAD      ACCESS:    6397715  HIT:    6316800  MISS:      80915
cpu0_DTLB RFO       ACCESS:    2833097  HIT:    2827400  MISS:       5697
cpu0_DTLB PREFETCH  ACCESS:          0  HIT:          0  MISS:          0
cpu0_DTLB WRITEBACK ACCESS:          0  HIT:          0  MISS:          0
cpu0_ITLB TOTAL     ACCESS:    2661120  HIT:    2661120  MISS:          0
cpu0_ITLB LOAD      ACCESS:    2661120  HIT:    2661120  MISS:          0
cpu0_ITLB RFO       ACCESS:          0  HIT:          0  MISS:          0
cpu0_ITLB PREFETCH  ACCESS:          0  HIT:          0  MISS:          0
cpu0_ITLB WRITEBACK ACCESS:          0  HIT:          0  MISS:          0
cpu0_L1I TOTAL     ACCESS:    1871442  HIT:    1871442  MISS:          0
cpu0_L1I LOAD      ACCESS:    1871442  HIT:    1871442  MISS:          0
cpu0_L1I RFO       ACCESS:          0  HIT:          0  MISS:          0
cpu0_L1I PREFETCH  ACCESS:          0  HIT:          0  MISS:          0
cpu0_L1I WRITEBACK ACCESS:          0  HIT:          0  MISS:          0
cpu0_STLB TOTAL     ACCESS:      86612  HIT:      52391  MISS:      34221
cpu0_STLB LOAD      ACCESS:      80915  HIT:      47709  MISS:      33206
cpu0_STLB RFO       ACCESS:       5697  HIT:       4682  MISS:       1015
cpu0_STLB PREFETCH  ACCESS:          0  HIT:          0  MISS:          0
cpu0_STLB WRITEBACK ACCESS:          0  HIT:          0  MISS:          0
cpu0_L1D TOTAL     ACCESS:   13068503  HIT:   11752359  MISS:    1316144
cpu0_L1D LOAD      ACCESS:    6302534  HIT:    5053742  MISS:    1248792
cpu0_L1D RFO       ACCESS:    6731748  HIT:    6665939  MISS:      65809
cpu0_L1D PREFETCH  ACCESS:          0  HIT:          0  MISS:          0
cpu0_L1D WRITEBACK ACCESS:          0  HIT:          0  MISS:          0
cpu0_L2C TOTAL     ACCESS:    1448205  HIT:     151003  MISS:    1297202
cpu0_L2C LOAD      ACCESS:    1248790  HIT:      17436  MISS:    1231354
cpu0_L2C RFO       ACCESS:      65807  HIT:       1158  MISS:      64649
cpu0_L2C PREFETCH  ACCESS:          0  HIT:          0  MISS:          0
cpu0_L2C WRITEBACK ACCESS:     132065  HIT:     131297  MISS:        768
LLC TOTAL     ACCESS:    1412438  HIT:       1275  MISS:    1411163
LLC LOAD      ACCESS:    1231354  HIT:        632  MISS:    1230722
LLC RFO       ACCESS:      64649  HIT:         57  MISS:      64592
LLC PREFETCH  ACCESS:          0  HIT:          0  MISS:          0
LLC WRITEBACK ACCESS:     116004  HIT:        586  MISS:     115418
Heartbeat CPU 0 instructions: 80000004 cycles: 139325863 heartbeat IPC: 0.15597 cumulative IPC: 0.245457 (Simulation time: 1 hr 55 min 32 sec) 

Region of Interest Statistics
cpu0_DTLB TOTAL     ACCESS:    9923217  HIT:    9830481  MISS:      92736
cpu0_DTLB LOAD      ACCESS:    6941055  HIT:    6854190  MISS:      86865
cpu0_DTLB RFO       ACCESS:    2982162  HIT:    2976291  MISS:       5871
cpu0_DTLB PREFETCH  ACCESS:          0  HIT:          0  MISS:          0
cpu0_DTLB WRITEBACK ACCESS:          0  HIT:          0  MISS:          0
cpu0_ITLB TOTAL     ACCESS:    2864739  HIT:    2864739  MISS:          0
cpu0_ITLB LOAD      ACCESS:    2864739  HIT:    2864739  MISS:          0
cpu0_ITLB RFO       ACCESS:          0  HIT:          0  MISS:          0
cpu0_ITLB PREFETCH  ACCESS:          0  HIT:          0  MISS:          0
cpu0_ITLB WRITEBACK ACCESS:          0  HIT:          0  MISS:          0
cpu0_L1I TOTAL     ACCESS:    2058470  HIT:    2058470  MISS:          0
cpu0_L1I LOAD      ACCESS:    2058470  HIT:    2058470  MISS:          0
cpu0_L1I RFO       ACCESS:          0  HIT:          0  MISS:          0
cpu0_L1I PREFETCH  ACCESS:          0  HIT:          0  MISS:          0
cpu0_L1I WRITEBACK ACCESS:          0  HIT:          0  MISS:          0
cpu0_STLB TOTAL     ACCESS:      92736  HIT:      53247  MISS:      39489
cpu0_STLB LOAD      ACCESS:      86865  HIT:      48515  MISS:      38350
cpu0_STLB RFO       ACCESS:       5871  HIT:       4732  MISS:       1139
cpu0_STLB PREFETCH  ACCESS:          0  HIT:          0  MISS:          0
cpu0_STLB WRITEBACK ACCESS:          0  HIT:          0  MISS:          0
cpu0_L1D TOTAL     ACCESS:   13932051  HIT:   12407730  MISS:    1524321
cpu0_L1D LOAD      ACCESS:    6877187  HIT:    5428750  MISS:    1448437
cpu0_L1D RFO       ACCESS:    7015375  HIT:    6941170  MISS:      74205
cpu0_L1D PREFETCH  ACCESS:          0  HIT:          0  MISS:          0
cpu0_L1D WRITEBACK ACCESS:          0  HIT:          0  MISS:          0
cpu0_L2C TOTAL     ACCESS:    1667904  HIT:     164680  MISS:    1503224
cpu0_L2C LOAD      ACCESS:    1448435  HIT:      19381  MISS:    1429054
cpu0_L2C RFO       ACCESS:      74203  HIT:       1404  MISS:      72799
cpu0_L2C PREFETCH  ACCESS:          0  HIT:          0  MISS:          0
cpu0_L2C WRITEBACK ACCESS:     143587  HIT:     142703  MISS:        884
LLC TOTAL     ACCESS:    1630402  HIT:       1447  MISS:    1628955
LLC LOAD      ACCESS:    1429054  HIT:        690  MISS:    1428364
LLC RFO       ACCESS:      72799  HIT:         70  MISS:      72729
LLC PREFETCH  ACCESS:          0  HIT:          0  MISS:          0
LLC WRITEBACK ACCESS:     128062  HIT:        687  MISS:     127375
Heartbeat CPU 0 instructions: 82000000 cycles: 143448464 heartbeat IPC: 0.48513 cumulative IPC: 0.253278 (Simulation time: 1 hr 57 min 59 sec) 

Region of Interest Statistics
cpu0_DTLB TOTAL     ACCESS:   10560200  HIT:   10465258  MISS:      94942
cpu0_DTLB LOAD      ACCESS:    7343980  HIT:    7255218  MISS:      88762
cpu0_DTLB RFO       ACCESS:    3216220  HIT:    3210040  MISS:       6180
cpu0_DTLB PREFETCH  ACCESS:          0  HIT:          0  MISS:          0
cpu0_DTLB WRITEBACK ACCESS:          0  HIT:          0  MISS:          0
cpu0_ITLB TOTAL     ACCESS:    3045801  HIT:    3045801  MISS:          0
cpu0_ITLB LOAD      ACCESS:    3045801  HIT:    3045801  MISS:          0
cpu0_ITLB RFO       ACCESS:          0  HIT:          0  MISS:          0
cpu0_ITLB PREFETCH  ACCESS:          0  HIT:          0  MISS:          0
cpu0_ITLB WRITEBACK ACCESS:          0  HIT:          0  MISS:          0
cpu0_L1I TOTAL     ACCESS:    2155811  HIT:    2155811  MISS:          0
cpu0_L1I LOAD      ACCESS:    2155811  HIT:    2155811  MISS:          0
cpu0_L1I RFO       ACCESS:          0  HIT:          0  MISS:          0
cpu0_L1I PREFETCH  ACCESS:          0  HIT:          0  MISS:          0
cpu0_L1I WRITEBACK ACCESS:          0  HIT:          0  MISS:          0
cpu0_STLB TOTAL     ACCESS:      94942  HIT:      55066  MISS:      39876
cpu0_STLB LOAD      ACCESS:      88762  HIT:      50076  MISS:      38686
cpu0_STLB RFO       ACCESS:       6180  HIT:       4990  MISS:       1190
cpu0_STLB PREFETCH  ACCESS:          0  HIT:          0  MISS:          0
cpu0_STLB WRITEBACK ACCESS:          0  HIT:          0  MISS:          0
cpu0_L1D TOTAL     ACCESS:   14913086  HIT:   13370665  MISS:    1542421
cpu0_L1D LOAD      ACCESS:    7249577  HIT:    5786419  MISS:    1463158
cpu0_L1D RFO       ACCESS:    7623633  HIT:    7546111  MISS:      77522
cpu0_L1D PREFETCH  ACCESS:          0  HIT:          0  MISS:          0
cpu0_L1D WRITEBACK ACCESS:          0  HIT:          0  MISS:          0
cpu0_L2C TOTAL     ACCESS:    1693541  HIT:     172556  MISS:    1520985
cpu0_L2C LOAD      ACCESS:    1463156  HIT:      19663  MISS:    1443493
cpu0_L2C RFO       ACCESS:      77520  HIT:       1409  MISS:      76111
cpu0_L2C PREFETCH  ACCESS:          0  HIT:          0  MISS:          0
cpu0_L2C WRITEBACK ACCESS:     151124  HIT:     150232  MISS:        892
LLC TOTAL     ACCESS:    1652992  HIT:       1475  MISS:    1651517
LLC LOAD      ACCESS:    1443493  HIT:        704  MISS:    1442789
LLC RFO       ACCESS:      76111  HIT:         70  MISS:      76041
LLC PREFETCH  ACCESS:          0  HIT:          0  MISS:          0
LLC WRITEBACK ACCESS:     132899  HIT:        701  MISS:     132198
Heartbeat CPU 0 instructions: 84000002 cycles: 152294095 heartbeat IPC: 0.226101 cumulative IPC: 0.251499 (Simulation time: 2 hr 3 min 45 sec) 

Region of Interest Statistics
cpu0_DTLB TOTAL     ACCESS:   11230237  HIT:   11129884  MISS:     100353
cpu0_DTLB LOAD      ACCESS:    7832661  HIT:    7738649  MISS:      94012
cpu0_DTLB RFO       ACCESS:    3397576  HIT:    3391235  MISS:       6341
cpu0_DTLB PREFETCH  ACCESS:          0  HIT:          0  MISS:          0
cpu0_DTLB WRITEBACK ACCESS:          0  HIT:          0  MISS:          0
cpu0_ITLB TOTAL     ACCESS:    3235062  HIT:    3235062  MISS:          0
cpu0_ITLB LOAD      ACCESS:    3235062  HIT:    3235062  MISS:          0
cpu0_ITLB RFO       ACCESS:          0  HIT:          0  MISS:          0
cpu0_ITLB PREFETCH  ACCESS:          0  HIT:          0  MISS:          0
cpu0_ITLB WRITEBACK ACCESS:          0  HIT:          0  MISS:          0
cpu0_L1I TOTAL     ACCESS:    2334759  HIT:    2334759  MISS:          0
cpu0_L1I LOAD      ACCESS:    2334759  HIT:    2334759  MISS:          0
cpu0_L1I RFO       ACCESS:          0  HIT:          0  MISS:          0
cpu0_L1I PREFETCH  ACCESS:          0  HIT:          0  MISS:          0
cpu0_L1I WRITEBACK ACCESS:          0  HIT:          0  MISS:          0
cpu0_STLB TOTAL     ACCESS:     100353  HIT:      57063  MISS:      43290
cpu0_STLB LOAD      ACCESS:      94012  HIT:      51948  MISS:      42064
cpu0_STLB RFO       ACCESS:       6341  HIT:       5115  MISS:       1226
cpu0_STLB PREFETCH  ACCESS:          0  HIT:          0  MISS:          0
cpu0_STLB WRITEBACK ACCESS:          0  HIT:          0  MISS:          0
cpu0_L1D TOTAL     ACCESS:   15821548  HIT:   14143254  MISS:    1678294
cpu0_L1D LOAD      ACCESS:    7748526  HIT:    6151981  MISS:    1596545
cpu0_L1D RFO       ACCESS:    8029732  HIT:    7949794  MISS:      79938
cpu0_L1D PREFETCH  ACCESS:          0  HIT:          0  MISS:          0
cpu0_L1D WRITEBACK ACCESS:          0  HIT:          0  MISS:          0
cpu0_L2C TOTAL     ACCESS:    1835034  HIT:     179899  MISS:    1655135
cpu0_L2C LOAD      ACCESS:    1596542  HIT:      21334  MISS:    1575208
cpu0_L2C RFO       ACCESS:      79935  HIT:       1473  MISS:      78462
cpu0_L2C PREFETCH  ACCESS:          0  HIT:          0  MISS:          0
cpu0_L2C WRITEBACK ACCESS:     156746  HIT:     155803  MISS:        943
LLC TOTAL     ACCESS:    1792143  HIT:       1543  MISS:    1790600
LLC LOAD      ACCESS:    1575208  HIT:        760  MISS:    1574448
LLC RFO       ACCESS:      78462  HIT:         73  MISS:      78389
LLC PREFETCH  ACCESS:          0  HIT:          0  MISS:          0
LLC WRITEBACK ACCESS:     137951  HIT:        710  MISS:     137241
Heartbeat CPU 0 instructions: 86000001 cycles: 159071245 heartbeat IPC: 0.295109 cumulative IPC: 0.253581 (Simulation time: 2 hr 7 min 44 sec) 

Region of Interest Statistics
cpu0_DTLB TOTAL     ACCESS:   11883133  HIT:   11777137  MISS:     105996
cpu0_DTLB LOAD      ACCESS:    8276763  HIT:    8177381  MISS:      99382
cpu0_DTLB RFO       ACCESS:    3606370  HIT:    3599756  MISS:       6614
cpu0_DTLB PREFETCH  ACCESS:          0  HIT:          0  MISS:          0
cpu0_DTLB WRITEBACK ACCESS:          0  HIT:          0  MISS:          0
cpu0_ITLB TOTAL     ACCESS:    3421976  HIT:    3421976  MISS:          0
cpu0_ITLB LOAD      ACCESS:    3421976  HIT:    3421976  MISS:          0
cpu0_ITLB RFO       ACCESS:          0  HIT:          0  MISS:          0
cpu0_ITLB PREFETCH  ACCESS:          0  HIT:          0  MISS:          0
cpu0_ITLB WRITEBACK ACCESS:          0  HIT:          0  MISS:          0
cpu0_L1I TOTAL     ACCESS:    2464428  HIT:    2464428  MISS:          0
cpu0_L1I LOAD      ACCESS:    2464428  HIT:    2464428  MISS:          0
cpu0_L1I RFO       ACCESS:          0  HIT:          0  MISS:          0
cpu0_L1I PREFETCH  ACCESS:          0  HIT:          0  MISS:          0
cpu0_L1I WRITEBACK ACCESS:          0  HIT:          0  MISS:          0
cpu0_STLB TOTAL     ACCESS:     105996  HIT:      60809  MISS:      45187
cpu0_STLB LOAD      ACCESS:      99382  HIT:      55477  MISS:      43905
cpu0_STLB RFO       ACCESS:       6614  HIT:       5332  MISS:       1282
cpu0_STLB PREFETCH  ACCESS:          0  HIT:          0  MISS:          0
cpu0_STLB WRITEBACK ACCESS:          0  HIT:          0  MISS:          0
cpu0_L1D TOTAL     ACCESS:   16767263  HIT:   15013445  MISS:    1753818
cpu0_L1D LOAD      ACCESS:    8183389  HIT:    6515070  MISS:    1668319
cpu0_L1D RFO       ACCESS:    8538687  HIT:    8455068  MISS:      83619
cpu0_L1D PREFETCH  ACCESS:          0  HIT:          0  MISS:          0
cpu0_L1D WRITEBACK ACCESS:          0  HIT:          0  MISS:          0
cpu0_L2C TOTAL     ACCESS:    1917786  HIT:     188340  MISS:    1729446
cpu0_L2C LOAD      ACCESS:    1668316  HIT:      22492  MISS:    1645824
cpu0_L2C RFO       ACCESS:      83616  HIT:       1544  MISS:      82072
cpu0_L2C PREFETCH  ACCESS:          0  HIT:          0  MISS:          0
cpu0_L2C WRITEBACK ACCESS:     163974  HIT:     162967  MISS:       1007
LLC TOTAL     ACCESS:    1872887  HIT:       1590  MISS:    1871297
LLC LOAD      ACCESS:    1645824  HIT:        795  MISS:    1645029
LLC RFO       ACCESS:      82072  HIT:         77  MISS:      81995
LLC PREFETCH  ACCESS:          0  HIT:          0  MISS:          0
LLC WRITEBACK ACCESS:     144448  HIT:        718  MISS:     143730
Heartbeat CPU 0 instructions: 88000001 cycles: 169414197 heartbeat IPC: 0.193368 cumulative IPC: 0.249492 (Simulation time: 2 hr 13 min 42 sec) 

Region of Interest Statistics
cpu0_DTLB TOTAL     ACCESS:   12556329  HIT:   12445086  MISS:     111243
cpu0_DTLB LOAD      ACCESS:    8770715  HIT:    8666259  MISS:     104456
cpu0_DTLB RFO       ACCESS:    3785614  HIT:    3778827  MISS:       6787
cpu0_DTLB PREFETCH  ACCESS:          0  HIT:          0  MISS:          0
cpu0_DTLB WRITEBACK ACCESS:          0  HIT:          0  MISS:          0
cpu0_ITLB TOTAL     ACCESS:    3618527  HIT:    3618527  MISS:          0
cpu0_ITLB LOAD      ACCESS:    3618527  HIT:    3618527  MISS:          0
cpu0_ITLB RFO       ACCESS:          0  HIT:          0  MISS:          0
cpu0_ITLB PREFETCH  ACCESS:          0  HIT:          0  MISS:          0
cpu0_ITLB WRITEBACK ACCESS:          0  HIT:          0  MISS:          0
cpu0_L1I TOTAL     ACCESS:    2620401  HIT:    2620401  MISS:          0
cpu0_L1I LOAD      ACCESS:    2620401  HIT:    2620401  MISS:          0
cpu0_L1I RFO       ACCESS:          0  HIT:          0  MISS:          0
cpu0_L1I PREFETCH  ACCESS:          0  HIT:          0  MISS:          0
cpu0_L1I WRITEBACK ACCESS:          0  HIT:          0  MISS:          0
cpu0_STLB TOTAL     ACCESS:     111243  HIT:      62170  MISS:      49073
cpu0_STLB LOAD      ACCESS:     104456  HIT:      56761  MISS:      47695
cpu0_STLB RFO       ACCESS:       6787  HIT:       5409  MISS:       1378
cpu0_STLB PREFETCH  ACCESS:          0  HIT:          0  MISS:          0
cpu0_STLB WRITEBACK ACCESS:          0  HIT:          0  MISS:          0
cpu0_L1D TOTAL     ACCESS:   17673009  HIT:   15774429  MISS:    1898580
cpu0_L1D LOAD      ACCESS:    8689528  HIT:    6882731  MISS:    1806797
cpu0_L1D RFO       ACCESS:    8934408  HIT:    8844674  MISS:      89734
cpu0_L1D PREFETCH  ACCESS:          0  HIT:          0  MISS:          0
cpu0_L1D WRITEBACK ACCESS:          0  HIT:          0  MISS:          0
cpu0_L2C TOTAL     ACCESS:    2073680  HIT:     201103  MISS:    1872577
cpu0_L2C LOAD      ACCESS:    1806794  HIT:      23992  MISS:    1782802
cpu0_L2C RFO       ACCESS:      89731  HIT:       1646  MISS:      88085
cpu0_L2C PREFETCH  ACCESS:          0  HIT:          0  MISS:          0
cpu0_L2C WRITEBACK ACCESS:     175106  HIT:     174010  MISS:       1096
LLC TOTAL     ACCESS:    2026570  HIT:       1708  MISS:    2024862
LLC LOAD      ACCESS:    1782802  HIT:        869  MISS:    1781933
LLC RFO       ACCESS:      88085  HIT:         80  MISS:      88005
LLC PREFETCH  ACCESS:          0  HIT:          0  MISS:          0
LLC WRITEBACK ACCESS:     155089  HIT:        759  MISS:     154330
Heartbeat CPU 0 instructions: 90000000 cycles: 174310941 heartbeat IPC: 0.408434 cumulative IPC: 0.254443 (Simulation time: 2 hr 16 min 26 sec) 

Region of Interest Statistics
cpu0_DTLB TOTAL     ACCESS:   13194183  HIT:   13079980  MISS:     114203
cpu0_DTLB LOAD      ACCESS:    9175162  HIT:    9068028  MISS:     107134
cpu0_DTLB RFO       ACCESS:    4019021  HIT:    4011952  MISS:       7069
cpu0_DTLB PREFETCH  ACCESS:          0  HIT:          0  MISS:          0
cpu0_DTLB WRITEBACK ACCESS:          0  HIT:          0  MISS:          0
cpu0_ITLB TOTAL     ACCESS:    3795790  HIT:    3795790  MISS:          0
cpu0_ITLB LOAD      ACCESS:    3795790  HIT:    3795790  MISS:          0
cpu0_ITLB RFO       ACCESS:          0  HIT:          0  MISS:          0
cpu0_ITLB PREFETCH  ACCESS:          0  HIT:          0  MISS:          0
cpu0_ITLB WRITEBACK ACCESS:          0  HIT:          0  MISS:          0
cpu0_L1I TOTAL     ACCESS:    2728461  HIT:    2728461  MISS:          0
cpu0_L1I LOAD      ACCESS:    2728461  HIT:    2728461  MISS:          0
cpu0_L1I RFO       ACCESS:          0  HIT:          0  MISS:          0
cpu0_L1I PREFETCH  ACCESS:          0  HIT:          0  MISS:          0
cpu0_L1I WRITEBACK ACCESS:          0  HIT:          0  MISS:          0
cpu0_STLB TOTAL     ACCESS:     114203  HIT:      64426  MISS:      49777
cpu0_STLB LOAD      ACCESS:     107134  HIT:      58792  MISS:      48342
cpu0_STLB RFO       ACCESS:       7069  HIT:       5634  MISS:       1435
cpu0_STLB PREFETCH  ACCESS:          0  HIT:          0  MISS:          0
cpu0_STLB WRITEBACK ACCESS:          0  HIT:          0  MISS:          0
cpu0_L1D TOTAL     ACCESS:   18651812  HIT:   16729887  MISS:    1921925
cpu0_L1D LOAD      ACCESS:    9065534  HIT:    7239013  MISS:    1826521
cpu0_L1D RFO       ACCESS:    9536501  HIT:    9443230  MISS:      93271
cpu0_L1D PREFETCH  ACCESS:          0  HIT:          0  MISS:          0
cpu0_L1D WRITEBACK ACCESS:          0  HIT:          0  MISS:          0
cpu0_L2C TOTAL     ACCESS:    2106704  HIT:     211180  MISS:    1895524
cpu0_L2C LOAD      ACCESS:    1826518  HIT:      24320  MISS:    1802198
cpu0_L2C RFO       ACCESS:      93268  HIT:       1647  MISS:      91621
cpu0_L2C PREFETCH  ACCESS:          0  HIT:          0  MISS:          0
cpu0_L2C WRITEBACK ACCESS:     184785  HIT:     183682  MISS:       1103
LLC TOTAL     ACCESS:    2058008  HIT:       1803  MISS:    2056205
LLC LOAD      ACCESS:    1802198  HIT:        891  MISS:    1801307
LLC RFO       ACCESS:      91621  HIT:         80  MISS:      91541
LLC PREFETCH  ACCESS:          0  HIT:          0  MISS:          0
LLC WRITEBACK ACCESS:     163587  HIT:        832  MISS:     162755
Heartbeat CPU 0 instructions: 92000002 cycles: 180678084 heartbeat IPC: 0.314113 cumulative IPC: 0.256766 (Simulation time: 2 hr 20 min 31 sec) 

Region of Interest Statistics
cpu0_DTLB TOTAL     ACCESS:   13845482  HIT:   13727202  MISS:     118280
cpu0_DTLB LOAD      ACCESS:    9616121  HIT:    9505050  MISS:     111071
cpu0_DTLB RFO       ACCESS:    4229361  HIT:    4222152  MISS:       7209
cpu0_DTLB PREFETCH  ACCESS:          0  HIT:          0  MISS:          0
cpu0_DTLB WRITEBACK ACCESS:          0  HIT:          0  MISS:          0
cpu0_ITLB TOTAL     ACCESS:    3978026  HIT:    3978026  MISS:          0
cpu0_ITLB LOAD      ACCESS:    3978026  HIT:    3978026  MISS:          0
cpu0_ITLB RFO       ACCESS:          0  HIT:          0  MISS:          0
cpu0_ITLB PREFETCH  ACCESS:          0  HIT:          0  MISS:          0
cpu0_ITLB WRITEBACK ACCESS:          0  HIT:          0  MISS:          0
cpu0_L1I TOTAL     ACCESS:    2865956  HIT:    2865956  MISS:          0
cpu0_L1I LOAD      ACCESS:    2865956  HIT:    2865956  MISS:          0
cpu0_L1I RFO       ACCESS:          0  HIT:          0  MISS:          0
cpu0_L1I PREFETCH  ACCESS:          0  HIT:          0  MISS:          0
cpu0_L1I WRITEBACK ACCESS:          0  HIT:          0  MISS:          0
cpu0_STLB TOTAL     ACCESS:     118280  HIT:      66730  MISS:      51550
cpu0_STLB LOAD      ACCESS:     111071  HIT:      61002  MISS:      50069
cpu0_STLB RFO       ACCESS:       7209  HIT:       5728  MISS:       1481
cpu0_STLB PREFETCH  ACCESS:          0  HIT:          0  MISS:          0
cpu0_STLB WRITEBACK ACCESS:          0  HIT:          0  MISS:          0
cpu0_L1D TOTAL     ACCESS:   19598820  HIT:   17605592  MISS:    1993228
cpu0_L1D LOAD      ACCESS:    9495555  HIT:    7600797  MISS:    1894758
cpu0_L1D RFO       ACCESS:   10051715  HIT:    9955453  MISS:      96262
cpu0_L1D PREFETCH  ACCESS:          0  HIT:          0  MISS:          0
cpu0_L1D WRITEBACK ACCESS:          0  HIT:          0  MISS:          0
cpu0_L2C TOTAL     ACCESS:    2184377  HIT:     218844  MISS:    1965533
cpu0_L2C LOAD      ACCESS:    1894755  HIT:      25565  MISS:    1869190
cpu0_L2C RFO       ACCESS:      96259  HIT:       1696  MISS:      94563
cpu0_L2C PREFETCH  ACCESS:          0  HIT:          0  MISS:          0
cpu0_L2C WRITEBACK ACCESS:     191155  HIT:     190000  MISS:       1155
LLC TOTAL     ACCESS:    2133176  HIT:       1856  MISS:    2131320
LLC LOAD      ACCESS:    1869190  HIT:        932  MISS:    1868258
LLC RFO       ACCESS:      94563  HIT:         84  MISS:      94479
LLC PREFETCH  ACCESS:          0  HIT:          0  MISS:          0
LLC WRITEBACK ACCESS:     168798  HIT:        840  MISS:     167958
Heartbeat CPU 0 instructions: 94000001 cycles: 193392336 heartbeat IPC: 0.157304 cumulative IPC: 0.249592 (Simulation time: 2 hr 28 min 8 sec) 

Region of Interest Statistics
cpu0_DTLB TOTAL     ACCESS:   14536731  HIT:   14410680  MISS:     126051
cpu0_DTLB LOAD      ACCESS:   10158344  HIT:   10039767  MISS:     118577
cpu0_DTLB RFO       ACCESS:    4378387  HIT:    4370913  MISS:       7474
cpu0_DTLB PREFETCH  ACCESS:          0  HIT:          0  MISS:          0
cpu0_DTLB WRITEBACK ACCESS:          0  HIT:          0  MISS:          0
cpu0_ITLB TOTAL     ACCESS:    4181926  HIT:    4181926  MISS:          0
cpu0_ITLB LOAD      ACCESS:    4181926  HIT:    4181926  MISS:          0
cpu0_ITLB RFO       ACCESS:          0  HIT:          0  MISS:          0
cpu0_ITLB PREFETCH  ACCESS:          0  HIT:          0  MISS:          0
cpu0_ITLB WRITEBACK ACCESS:          0  HIT:          0  MISS:          0
cpu0_L1I TOTAL     ACCESS:    3054013  HIT:    3054013  MISS:          0
cpu0_L1I LOAD      ACCESS:    3054013  HIT:    3054013  MISS:          0
cpu0_L1I RFO       ACCESS:          0  HIT:          0  MISS:          0
cpu0_L1I PREFETCH  ACCESS:          0  HIT:          0  MISS:          0
cpu0_L1I WRITEBACK ACCESS:          0  HIT:          0  MISS:          0
cpu0_STLB TOTAL     ACCESS:     126051  HIT:      69311  MISS:      56740
cpu0_STLB LOAD      ACCESS:     118577  HIT:      63432  MISS:      55145
cpu0_STLB RFO       ACCESS:       7474  HIT:       5879  MISS:       1595
cpu0_STLB PREFETCH  ACCESS:          0  HIT:          0  MISS:          0
cpu0_STLB WRITEBACK ACCESS:          0  HIT:          0  MISS:          0
cpu0_L1D TOTAL     ACCESS:   20465074  HIT:   18264490  MISS:    2200584
cpu0_L1D LOAD      ACCESS:   10070783  HIT:    7976157  MISS:    2094626
cpu0_L1D RFO       ACCESS:   10337551  HIT:   10233907  MISS:     103644
cpu0_L1D PREFETCH  ACCESS:          0  HIT:          0  MISS:          0
cpu0_L1D WRITEBACK ACCESS:          0  HIT:          0  MISS:          0
cpu0_L2C TOTAL     ACCESS:    2402358  HIT:     231942  MISS:    2170416
cpu0_L2C LOAD      ACCESS:    2094623  HIT:      27948  MISS:    2066675
cpu0_L2C RFO       ACCESS:     103641  HIT:       1804  MISS:     101837
cpu0_L2C PREFETCH  ACCESS:          0  HIT:          0  MISS:          0
cpu0_L2C WRITEBACK ACCESS:     201780  HIT:     200552  MISS:       1228
LLC TOTAL     ACCESS:    2348703  HIT:       1980  MISS:    2346723
LLC LOAD      ACCESS:    2066675  HIT:        987  MISS:    2065688
LLC RFO       ACCESS:     101837  HIT:         90  MISS:     101747
LLC PREFETCH  ACCESS:          0  HIT:          0  MISS:          0
LLC WRITEBACK ACCESS:     179515  HIT:        903  MISS:     178612
Heartbeat CPU 0 instructions: 96000004 cycles: 201472132 heartbeat IPC: 0.247531 cumulative IPC: 0.249502 (Simulation time: 2 hr 32 min 47 sec) 

Region of Interest Statistics
cpu0_DTLB TOTAL     ACCESS:   15196788  HIT:   15065354  MISS:     131434
cpu0_DTLB LOAD      ACCESS:   10618411  HIT:   10494729  MISS:     123682
cpu0_DTLB RFO       ACCESS:    4578377  HIT:    4570625  MISS:       7752
cpu0_DTLB PREFETCH  ACCESS:          0  HIT:          0  MISS:          0
cpu0_DTLB WRITEBACK ACCESS:          0  HIT:          0  MISS:          0
cpu0_ITLB TOTAL     ACCESS:    4373623  HIT:    4373623  MISS:          0
cpu0_ITLB LOAD      ACCESS:    4373623  HIT:    4373623  MISS:          0
cpu0_ITLB RFO       ACCESS:          0  HIT:          0  MISS:          0
cpu0_ITLB PREFETCH  ACCESS:          0  HIT:          0  MISS:          0
cpu0_ITLB WRITEBACK ACCESS:          0  HIT:          0  MISS:          0
cpu0_L1I TOTAL     ACCESS:    3183923  HIT:    3183923  MISS:          0
cpu0_L1I LOAD      ACCESS:    3183923  HIT:    3183923  MISS:          0
cpu0_L1I RFO       ACCESS:          0  HIT:          0  MISS:          0
cpu0_L1I PREFETCH  ACCESS:          0  HIT:          0  MISS:          0
cpu0_L1I WRITEBACK ACCESS:          0  HIT:          0  MISS:          0
cpu0_STLB TOTAL     ACCESS:     131434  HIT:      72213  MISS:      59221
cpu0_STLB LOAD      ACCESS:     123682  HIT:      66158  MISS:      57524
cpu0_STLB RFO       ACCESS:       7752  HIT:       6055  MISS:       1697
cpu0_STLB PREFETCH  ACCESS:          0  HIT:          0  MISS:          0
cpu0_STLB WRITEBACK ACCESS:          0  HIT:          0  MISS:          0
cpu0_L1D TOTAL     ACCESS:   21398369  HIT:   19101194  MISS:    2297175
cpu0_L1D LOAD      ACCESS:   10528684  HIT:    8344141  MISS:    2184543
cpu0_L1D RFO       ACCESS:   10810464  HIT:   10700266  MISS:     110198
cpu0_L1D PREFETCH  ACCESS:          0  HIT:          0  MISS:          0
cpu0_L1D WRITEBACK ACCESS:          0  HIT:          0  MISS:          0
cpu0_L2C TOTAL     ACCESS:    2509731  HIT:     244250  MISS:    2265481
cpu0_L2C LOAD      ACCESS:    2184540  HIT:      29418  MISS:    2155122
cpu0_L2C RFO       ACCESS:     110195  HIT:       1871  MISS:     108324
cpu0_L2C PREFETCH  ACCESS:          0  HIT:          0  MISS:          0
cpu0_L2C WRITEBACK ACCESS:     212562  HIT:     211236  MISS:       1326
LLC TOTAL     ACCESS:    2453576  HIT:       2072  MISS:    2451504
LLC LOAD      ACCESS:    2155122  HIT:       1021  MISS:    2154101
LLC RFO       ACCESS:     108324  HIT:         94  MISS:     108230
LLC PREFETCH  ACCESS:          0  HIT:          0  MISS:          0
LLC WRITEBACK ACCESS:     189421  HIT:        957  MISS:     188464
Heartbeat CPU 0 instructions: 98000003 cycles: 211267532 heartbeat IPC: 0.204177 cumulative IPC: 0.247216 (Simulation time: 2 hr 38 min 31 sec) 

Region of Interest Statistics
cpu0_DTLB TOTAL     ACCESS:   15866754  HIT:   15729720  MISS:     137034
cpu0_DTLB LOAD      ACCESS:   11104971  HIT:   10975935  MISS:     129036
cpu0_DTLB RFO       ACCESS:    4761783  HIT:    4753785  MISS:       7998
cpu0_DTLB PREFETCH  ACCESS:          0  HIT:          0  MISS:          0
cpu0_DTLB WRITEBACK ACCESS:          0  HIT:          0  MISS:          0
cpu0_ITLB TOTAL     ACCESS:    4568630  HIT:    4568630  MISS:          0
cpu0_ITLB LOAD      ACCESS:    4568630  HIT:    4568630  MISS:          0
cpu0_ITLB RFO       ACCESS:          0  HIT:          0  MISS:          0
cpu0_ITLB PREFETCH  ACCESS:          0  HIT:          0  MISS:          0
cpu0_ITLB WRITEBACK ACCESS:          0  HIT:          0  MISS:          0
cpu0_L1I TOTAL     ACCESS:    3334896  HIT:    3334896  MISS:          0
cpu0_L1I LOAD      ACCESS:    3334896  HIT:    3334896  MISS:          0
cpu0_L1I RFO       ACCESS:          0  HIT:          0  MISS:          0
cpu0_L1I PREFETCH  ACCESS:          0  HIT:          0  MISS:          0
cpu0_L1I WRITEBACK ACCESS:          0  HIT:          0  MISS:          0
cpu0_STLB TOTAL     ACCESS:     137034  HIT:      74368  MISS:      62666
cpu0_STLB LOAD      ACCESS:     129036  HIT:      68152  MISS:      60884
cpu0_STLB RFO       ACCESS:       7998  HIT:       6216  MISS:       1782
cpu0_STLB PREFETCH  ACCESS:          0  HIT:          0  MISS:          0
cpu0_STLB WRITEBACK ACCESS:          0  HIT:          0  MISS:          0
cpu0_L1D TOTAL     ACCESS:   22307525  HIT:   19874974  MISS:    2432551
cpu0_L1D LOAD      ACCESS:   11017716  HIT:    8703414  MISS:    2314302
cpu0_L1D RFO       ACCESS:   11227143  HIT:   11111448  MISS:     115695
cpu0_L1D PREFETCH  ACCESS:          0  HIT:          0  MISS:          0
cpu0_L1D WRITEBACK ACCESS:          0  HIT:          0  MISS:          0
cpu0_L2C TOTAL     ACCESS:    2657008  HIT:     257107  MISS:    2399901
cpu0_L2C LOAD      ACCESS:    2314299  HIT:      30248  MISS:    2284051
cpu0_L2C RFO       ACCESS:     115692  HIT:       1941  MISS:     113751
cpu0_L2C PREFETCH  ACCESS:          0  HIT:          0  MISS:          0
cpu0_L2C WRITEBACK ACCESS:     224463  HIT:     223106  MISS:       1357
LLC TOTAL     ACCESS:    2595504  HIT:       2147  MISS:    2593357
LLC LOAD      ACCESS:    2284051  HIT:       1037  MISS:    2283014
LLC RFO       ACCESS:     113751  HIT:         99  MISS:     113652
LLC PREFETCH  ACCESS:          0  HIT:          0  MISS:          0
LLC WRITEBACK ACCESS:     196960  HIT:       1011  MISS:     195949
Heartbeat CPU 0 instructions: 100000002 cycles: 218626612 heartbeat IPC: 0.271773 cumulative IPC: 0.248112 (Simulation time: 2 hr 42 min 39 sec) 

Region of Interest Statistics
cpu0_DTLB TOTAL     ACCESS:   16518955  HIT:   16376674  MISS:     142281
cpu0_DTLB LOAD      ACCESS:   11546243  HIT:   11412231  MISS:     134012
cpu0_DTLB RFO       ACCESS:    4972712  HIT:    4964443  MISS:       8269
cpu0_DTLB PREFETCH  ACCESS:          0  HIT:          0  MISS:          0
cpu0_DTLB WRITEBACK ACCESS:          0  HIT:          0  MISS:          0
cpu0_ITLB TOTAL     ACCESS:    4757857  HIT:    4757857  MISS:          0
cpu0_ITLB LOAD      ACCESS:    4757857  HIT:    4757857  MISS:          0
cpu0_ITLB RFO       ACCESS:          0  HIT:          0  MISS:          0
cpu0_ITLB PREFETCH  ACCESS:          0  HIT:          0  MISS:          0
cpu0_ITLB WRITEBACK ACCESS:          0  HIT:          0  MISS:          0
cpu0_L1I TOTAL     ACCESS:    3455444  HIT:    3455444  MISS:          0
cpu0_L1I LOAD      ACCESS:    3455444  HIT:    3455444  MISS:          0
cpu0_L1I RFO       ACCESS:          0  HIT:          0  MISS:          0
cpu0_L1I PREFETCH  ACCESS:          0  HIT:          0  MISS:          0
cpu0_L1I WRITEBACK ACCESS:          0  HIT:          0  MISS:          0
cpu0_STLB TOTAL     ACCESS:     142281  HIT:      77518  MISS:      64763
cpu0_STLB LOAD      ACCESS:     134012  HIT:      71085  MISS:      62927
cpu0_STLB RFO       ACCESS:       8269  HIT:       6433  MISS:       1836
cpu0_STLB PREFETCH  ACCESS:          0  HIT:          0  MISS:          0
cpu0_STLB WRITEBACK ACCESS:          0  HIT:          0  MISS:          0
cpu0_L1D TOTAL     ACCESS:   23250831  HIT:   20741280  MISS:    2509551
cpu0_L1D LOAD      ACCESS:   11439214  HIT:    9051347  MISS:    2387867
cpu0_L1D RFO       ACCESS:   11746854  HIT:   11627837  MISS:     119017
cpu0_L1D PREFETCH  ACCESS:          0  HIT:          0  MISS:          0
cpu0_L1D WRITEBACK ACCESS:          0  HIT:          0  MISS:          0
cpu0_L2C TOTAL     ACCESS:    2746028  HIT:     270878  MISS:    2475150
cpu0_L2C LOAD      ACCESS:    2387864  HIT:      31843  MISS:    2356021
cpu0_L2C RFO       ACCESS:     119014  HIT:       2065  MISS:     116949
cpu0_L2C PREFETCH  ACCESS:          0  HIT:          0  MISS:          0
cpu0_L2C WRITEBACK ACCESS:     236483  HIT:     235071  MISS:       1412
LLC TOTAL     ACCESS:    2685269  HIT:       2210  MISS:    2683059
LLC LOAD      ACCESS:    2356021  HIT:       1079  MISS:    2354942
LLC RFO       ACCESS:     116949  HIT:        105  MISS:     116844
LLC PREFETCH  ACCESS:          0  HIT:          0  MISS:          0
LLC WRITEBACK ACCESS:     211531  HIT:       1026  MISS:     210505
Heartbeat CPU 0 instructions: 102000000 cycles: 224468128 heartbeat IPC: 0.342377 cumulative IPC: 0.250768 (Simulation time: 2 hr 45 min 40 sec) 

Region of Interest Statistics
cpu0_DTLB TOTAL     ACCESS:   17158408  HIT:   17010162  MISS:     148246
cpu0_DTLB LOAD      ACCESS:   11950447  HIT:   11810632  MISS:     139815
cpu0_DTLB RFO       ACCESS:    5207961  HIT:    5199530  MISS:       8431
cpu0_DTLB PREFETCH  ACCESS:          0  HIT:          0  MISS:          0
cpu0_DTLB WRITEBACK ACCESS:          0  HIT:          0  MISS:          0
cpu0_ITLB TOTAL     ACCESS:    4937143  HIT:    4937143  MISS:          0
cpu0_ITLB LOAD      ACCESS:    4937143  HIT:    4937143  MISS:          0
cpu0_ITLB RFO       ACCESS:          0  HIT:          0  MISS:          0
cpu0_ITLB PREFETCH  ACCESS:          0  HIT:          0  MISS:          0
cpu0_ITLB WRITEBACK ACCESS:          0  HIT:          0  MISS:          0
cpu0_L1I TOTAL     ACCESS:    3557829  HIT:    3557829  MISS:          0
cpu0_L1I LOAD      ACCESS:    3557829  HIT:    3557829  MISS:          0
cpu0_L1I RFO       ACCESS:          0  HIT:          0  MISS:          0
cpu0_L1I PREFETCH  ACCESS:          0  HIT:          0  MISS:          0
cpu0_L1I WRITEBACK ACCESS:          0  HIT:          0  MISS:          0
cpu0_STLB TOTAL     ACCESS:     148246  HIT:      82267  MISS:      65979
cpu0_STLB LOAD      ACCESS:     139815  HIT:      75727  MISS:      64088
cpu0_STLB RFO       ACCESS:       8431  HIT:       6540  MISS:       1891
cpu0_STLB PREFETCH  ACCESS:          0  HIT:          0  MISS:          0
cpu0_STLB WRITEBACK ACCESS:          0  HIT:          0  MISS:          0
cpu0_L1D TOTAL     ACCESS:   24230959  HIT:   21693221  MISS:    2537738
cpu0_L1D LOAD      ACCESS:   11812820  HIT:    9400512  MISS:    2412308
cpu0_L1D RFO       ACCESS:   12352160  HIT:   12229515  MISS:     122645
cpu0_L1D PREFETCH  ACCESS:          0  HIT:          0  MISS:          0
cpu0_L1D WRITEBACK ACCESS:          0  HIT:          0  MISS:          0
cpu0_L2C TOTAL     ACCESS:    2788186  HIT:     285431  MISS:    2502755
cpu0_L2C LOAD      ACCESS:    2412305  HIT:      32326  MISS:    2379979
cpu0_L2C RFO       ACCESS:     122642  HIT:       2068  MISS:     120574
cpu0_L2C PREFETCH  ACCESS:          0  HIT:          0  MISS:          0
cpu0_L2C WRITEBACK ACCESS:     250454  HIT:     249031  MISS:       1423
LLC TOTAL     ACCESS:    2723245  HIT:       2242  MISS:    2721003
LLC LOAD      ACCESS:    2379979  HIT:       1094  MISS:    2378885
LLC RFO       ACCESS:     120574  HIT:        105  MISS:     120469
LLC PREFETCH  ACCESS:          0  HIT:          0  MISS:          0
LLC WRITEBACK ACCESS:     221913  HIT:       1043  MISS:     220870
Heartbeat CPU 0 instructions: 104000001 cycles: 231517592 heartbeat IPC: 0.28371 cumulative IPC: 0.251851 (Simulation time: 2 hr 49 min 52 sec) 

Region of Interest Statistics
cpu0_DTLB TOTAL     ACCESS:   17811392  HIT:   17658569  MISS:     152823
cpu0_DTLB LOAD      ACCESS:   12392305  HIT:   12248094  MISS:     144211
cpu0_DTLB RFO       ACCESS:    5419087  HIT:    5410475  MISS:       8612
cpu0_DTLB PREFETCH  ACCESS:          0  HIT:          0  MISS:          0
cpu0_DTLB WRITEBACK ACCESS:          0  HIT:          0  MISS:          0
cpu0_ITLB TOTAL     ACCESS:    5121553  HIT:    5121553  MISS:          0
cpu0_ITLB LOAD      ACCESS:    5121553  HIT:    5121553  MISS:          0
cpu0_ITLB RFO       ACCESS:          0  HIT:          0  MISS:          0
cpu0_ITLB PREFETCH  ACCESS:          0  HIT:          0  MISS:          0
cpu0_ITLB WRITEBACK ACCESS:          0  HIT:          0  MISS:          0
cpu0_L1I TOTAL     ACCESS:    3690534  HIT:    3690534  MISS:          0
cpu0_L1I LOAD      ACCESS:    3690534  HIT:    3690534  MISS:          0
cpu0_L1I RFO       ACCESS:          0  HIT:          0  MISS:          0
cpu0_L1I PREFETCH  ACCESS:          0  HIT:          0  MISS:          0
cpu0_L1I WRITEBACK ACCESS:          0  HIT:          0  MISS:          0
cpu0_STLB TOTAL     ACCESS:     152823  HIT:      84849  MISS:      67974
cpu0_STLB LOAD      ACCESS:     144211  HIT:      78174  MISS:      66037
cpu0_STLB RFO       ACCESS:       8612  HIT:       6675  MISS:       1937
cpu0_STLB PREFETCH  ACCESS:          0  HIT:          0  MISS:          0
cpu0_STLB WRITEBACK ACCESS:          0  HIT:          0  MISS:          0
cpu0_L1D TOTAL     ACCESS:   25177354  HIT:   22564100  MISS:    2613254
cpu0_L1D LOAD      ACCESS:   12241751  HIT:    9757182  MISS:    2484569
cpu0_L1D RFO       ACCESS:   12867629  HIT:   12741846  MISS:     125783
cpu0_L1D PREFETCH  ACCESS:          0  HIT:          0  MISS:          0
cpu0_L1D WRITEBACK ACCESS:          0  HIT:          0  MISS:          0
cpu0_L2C TOTAL     ACCESS:    2872721  HIT:     295913  MISS:    2576808
cpu0_L2C LOAD      ACCESS:    2484566  HIT:      33667  MISS:    2450899
cpu0_L2C RFO       ACCESS:     125780  HIT:       2165  MISS:     123615
cpu0_L2C PREFETCH  ACCESS:          0  HIT:          0  MISS:          0
cpu0_L2C WRITEBACK ACCESS:     259473  HIT:     257989  MISS:       1484
LLC TOTAL     ACCESS:    2805473  HIT:       2324  MISS:    2803149
LLC LOAD      ACCESS:    2450899  HIT:       1149  MISS:    2449750
LLC RFO       ACCESS:     123615  HIT:        111  MISS:     123504
LLC PREFETCH  ACCESS:          0  HIT:          0  MISS:          0
LLC WRITEBACK ACCESS:     230149  HIT:       1064  MISS:     229085
Heartbeat CPU 0 instructions: 106000001 cycles: 238467929 heartbeat IPC: 0.287756 cumulative IPC: 0.252978 (Simulation time: 2 hr 53 min 50 sec) 

Region of Interest Statistics
cpu0_DTLB TOTAL     ACCESS:   18464440  HIT:   18308709  MISS:     155731
cpu0_DTLB LOAD      ACCESS:   12835575  HIT:   12688602  MISS:     146973
cpu0_DTLB RFO       ACCESS:    5628865  HIT:    5620107  MISS:       8758
cpu0_DTLB PREFETCH  ACCESS:          0  HIT:          0  MISS:          0
cpu0_DTLB WRITEBACK ACCESS:          0  HIT:          0  MISS:          0
cpu0_ITLB TOTAL     ACCESS:    5313923  HIT:    5313923  MISS:          0
cpu0_ITLB LOAD      ACCESS:    5313923  HIT:    5313923  MISS:          0
cpu0_ITLB RFO       ACCESS:          0  HIT:          0  MISS:          0
cpu0_ITLB PREFETCH  ACCESS:          0  HIT:          0  MISS:          0
cpu0_ITLB WRITEBACK ACCESS:          0  HIT:          0  MISS:          0
cpu0_L1I TOTAL     ACCESS:    3804996  HIT:    3804996  MISS:          0
cpu0_L1I LOAD      ACCESS:    3804996  HIT:    3804996  MISS:          0
cpu0_L1I RFO       ACCESS:          0  HIT:          0  MISS:          0
cpu0_L1I PREFETCH  ACCESS:          0  HIT:          0  MISS:          0
cpu0_L1I WRITEBACK ACCESS:          0  HIT:          0  MISS:          0
cpu0_STLB TOTAL     ACCESS:     155731  HIT:      85904  MISS:      69827
cpu0_STLB LOAD      ACCESS:     146973  HIT:      79137  MISS:      67836
cpu0_STLB RFO       ACCESS:       8758  HIT:       6767  MISS:       1991
cpu0_STLB PREFETCH  ACCESS:          0  HIT:          0  MISS:          0
cpu0_STLB WRITEBACK ACCESS:          0  HIT:          0  MISS:          0
cpu0_L1D TOTAL     ACCESS:   26125192  HIT:   23435562  MISS:    2689630
cpu0_L1D LOAD      ACCESS:   12671789  HIT:   10114451  MISS:    2557338
cpu0_L1D RFO       ACCESS:   13383576  HIT:   13254293  MISS:     129283
cpu0_L1D PREFETCH  ACCESS:          0  HIT:          0  MISS:          0
cpu0_L1D WRITEBACK ACCESS:          0  HIT:          0  MISS:          0
cpu0_L2C TOTAL     ACCESS:    2958734  HIT:     307189  MISS:    2651545
cpu0_L2C LOAD      ACCESS:    2557335  HIT:      35193  MISS:    2522142
cpu0_L2C RFO       ACCESS:     129280  HIT:       2256  MISS:     127024
cpu0_L2C PREFETCH  ACCESS:          0  HIT:          0  MISS:          0
[...]
cpu0_DTLB TOTAL     ACCESS:  485768656  HIT:  481220405  MISS:    4548251
cpu0_DTLB LOAD      ACCESS:  340577659  HIT:  336191124  MISS:    4386535
cpu0_DTLB RFO       ACCESS:  145190997  HIT:  145029281  MISS:     161716
cpu0_DTLB PREFETCH  ACCESS:          0  HIT:          0  MISS:          0
cpu0_DTLB WRITEBACK ACCESS:          0  HIT:          0  MISS:          0
cpu0_ITLB TOTAL     ACCESS:  140694824  HIT:  140694824  MISS:          0
cpu0_ITLB LOAD      ACCESS:  140694824  HIT:  140694824  MISS:          0
cpu0_ITLB RFO       ACCESS:          0  HIT:          0  MISS:          0
cpu0_ITLB PREFETCH  ACCESS:          0  HIT:          0  MISS:          0
cpu0_ITLB WRITEBACK ACCESS:          0  HIT:          0  MISS:          0
cpu0_L1I TOTAL     ACCESS:   97563602  HIT:   97563592  MISS:         10
cpu0_L1I LOAD      ACCESS:   97563602  HIT:   97563592  MISS:         10
cpu0_L1I RFO       ACCESS:          0  HIT:          0  MISS:          0
cpu0_L1I PREFETCH  ACCESS:          0  HIT:          0  MISS:          0
cpu0_L1I WRITEBACK ACCESS:          0  HIT:          0  MISS:          0
cpu0_STLB TOTAL     ACCESS:    4548251  HIT:    2697416  MISS:    1850835
cpu0_STLB LOAD      ACCESS:    4386535  HIT:    2590871  MISS:    1795664
cpu0_STLB RFO       ACCESS:     161716  HIT:     106545  MISS:      55171
cpu0_STLB PREFETCH  ACCESS:          0  HIT:          0  MISS:          0
cpu0_STLB WRITEBACK ACCESS:          0  HIT:          0  MISS:          0
cpu0_L1D TOTAL     ACCESS:  686156703  HIT:  612633220  MISS:   73523483
cpu0_L1D LOAD      ACCESS:  337073735  HIT:  267213532  MISS:   69860203
cpu0_L1D RFO       ACCESS:  347232142  HIT:  343643940  MISS:    3588202
cpu0_L1D PREFETCH  ACCESS:          0  HIT:          0  MISS:          0
cpu0_L1D WRITEBACK ACCESS:          0  HIT:          0  MISS:          0
cpu0_L2C TOTAL     ACCESS:   80955232  HIT:    8435477  MISS:   72519755
cpu0_L2C LOAD      ACCESS:   69860057  HIT:     924873  MISS:   68935184
cpu0_L2C RFO       ACCESS:    3588148  HIT:      61790  MISS:    3526358
cpu0_L2C PREFETCH  ACCESS:          0  HIT:          0  MISS:          0
cpu0_L2C WRITEBACK ACCESS:    7431949  HIT:    7393595  MISS:      38354
LLC TOTAL     ACCESS:   79203079  HIT:      60298  MISS:   79142781
LLC LOAD      ACCESS:   68935182  HIT:      29617  MISS:   68905565
LLC RFO       ACCESS:    3526358  HIT:       2086  MISS:    3524272
LLC PREFETCH  ACCESS:          0  HIT:          0  MISS:          0
LLC WRITEBACK ACCESS:    6721680  HIT:      28586  MISS:    6693094
Heartbeat CPU 0 instructions: 1550000000 cycles: 5860268780 heartbeat IPC: 0.243778 cumulative IPC: 0.25671 (Simulation time: 26 hr 12 min 19 sec) 

Region of Interest Statistics
cpu0_DTLB TOTAL     ACCESS:  486429414  HIT:  481876774  MISS:    4552640
cpu0_DTLB LOAD      ACCESS:  341033393  HIT:  336642762  MISS:    4390631
cpu0_DTLB RFO       ACCESS:  145396021  HIT:  145234012  MISS:     162009
cpu0_DTLB PREFETCH  ACCESS:          0  HIT:          0  MISS:          0
cpu0_DTLB WRITEBACK ACCESS:          0  HIT:          0  MISS:          0
cpu0_ITLB TOTAL     ACCESS:  140881721  HIT:  140881721  MISS:          0
cpu0_ITLB LOAD      ACCESS:  140881721  HIT:  140881721  MISS:          0
cpu0_ITLB RFO       ACCESS:          0  HIT:          0  MISS:          0
cpu0_ITLB PREFETCH  ACCESS:          0  HIT:          0  MISS:          0
cpu0_ITLB WRITEBACK ACCESS:          0  HIT:          0  MISS:          0
cpu0_L1I TOTAL     ACCESS:   97697707  HIT:   97697697  MISS:         10
cpu0_L1I LOAD      ACCESS:   97697707  HIT:   97697697  MISS:         10
cpu0_L1I RFO       ACCESS:          0  HIT:          0  MISS:          0
cpu0_L1I PREFETCH  ACCESS:          0  HIT:          0  MISS:          0
cpu0_L1I WRITEBACK ACCESS:          0  HIT:          0  MISS:          0
cpu0_STLB TOTAL     ACCESS:    4552640  HIT:    2699261  MISS:    1853379
cpu0_STLB LOAD      ACCESS:    4390631  HIT:    2592522  MISS:    1798109
cpu0_STLB RFO       ACCESS:     162009  HIT:     106739  MISS:      55270
cpu0_STLB PREFETCH  ACCESS:          0  HIT:          0  MISS:          0
cpu0_STLB WRITEBACK ACCESS:          0  HIT:          0  MISS:          0
cpu0_L1D TOTAL     ACCESS:  687088328  HIT:  613472116  MISS:   73616212
cpu0_L1D LOAD      ACCESS:  337516541  HIT:  267570344  MISS:   69946197
cpu0_L1D RFO       ACCESS:  347718417  HIT:  344123625  MISS:    3594792
cpu0_L1D PREFETCH  ACCESS:          0  HIT:          0  MISS:          0
cpu0_L1D WRITEBACK ACCESS:          0  HIT:          0  MISS:          0
cpu0_L2C TOTAL     ACCESS:   81060955  HIT:    8449394  MISS:   72611561
cpu0_L2C LOAD      ACCESS:   69946050  HIT:     925647  MISS:   69020403
cpu0_L2C RFO       ACCESS:    3594738  HIT:      61858  MISS:    3532880
cpu0_L2C PREFETCH  ACCESS:          0  HIT:          0  MISS:          0
cpu0_L2C WRITEBACK ACCESS:    7444944  HIT:    7406559  MISS:      38385
LLC TOTAL     ACCESS:   79303905  HIT:      60372  MISS:   79243533
LLC LOAD      ACCESS:   69020401  HIT:      29648  MISS:   68990753
LLC RFO       ACCESS:    3532880  HIT:       2089  MISS:    3530791
LLC PREFETCH  ACCESS:          0  HIT:          0  MISS:          0
LLC WRITEBACK ACCESS:    6730731  HIT:      28626  MISS:    6702105
Finished CPU 0 instructions: 1500000000 cycles: 5843163819 cumulative IPC: 0.25671 (Simulation time: 26 hr 12 min 19 sec) 

ChampSim completed all CPUs

Region of Interest Statistics

CPU 0 cumulative IPC: 0.25671 instructions: 1500000000 cycles: 5843163819
cpu0_DTLB TOTAL     ACCESS:  486429414  HIT:  481876774  MISS:    4552640
cpu0_DTLB LOAD      ACCESS:  341033393  HIT:  336642762  MISS:    4390631
cpu0_DTLB RFO       ACCESS:  145396021  HIT:  145234012  MISS:     162009
cpu0_DTLB PREFETCH  ACCESS:          0  HIT:          0  MISS:          0
cpu0_DTLB WRITEBACK ACCESS:          0  HIT:          0  MISS:          0
cpu0_DTLB TRANSLATION ACCESS:          0  HIT:          0  MISS:          0
cpu0_DTLB PREFETCH  REQUESTED:          0  ISSUED:          0  USEFUL:          0  USELESS:          0
cpu0_DTLB AVERAGE MISS LATENCY: 24.2458 cycles
cpu0_ITLB TOTAL     ACCESS:  140881721  HIT:  140881721  MISS:          0
cpu0_ITLB LOAD      ACCESS:  140881721  HIT:  140881721  MISS:          0
cpu0_ITLB RFO       ACCESS:          0  HIT:          0  MISS:          0
cpu0_ITLB PREFETCH  ACCESS:          0  HIT:          0  MISS:          0
cpu0_ITLB WRITEBACK ACCESS:          0  HIT:          0  MISS:          0
cpu0_ITLB TRANSLATION ACCESS:          0  HIT:          0  MISS:          0
cpu0_ITLB PREFETCH  REQUESTED:          0  ISSUED:          0  USEFUL:          0  USELESS:          0
cpu0_ITLB AVERAGE MISS LATENCY: -nan cycles
cpu0_L1I TOTAL     ACCESS:   97697707  HIT:   97697697  MISS:         10
cpu0_L1I LOAD      ACCESS:   97697707  HIT:   97697697  MISS:         10
cpu0_L1I RFO       ACCESS:          0  HIT:          0  MISS:          0
cpu0_L1I PREFETCH  ACCESS:          0  HIT:          0  MISS:          0
cpu0_L1I WRITEBACK ACCESS:          0  HIT:          0  MISS:          0
cpu0_L1I TRANSLATION ACCESS:          0  HIT:          0  MISS:          0
cpu0_L1I PREFETCH  REQUESTED:          0  ISSUED:          0  USEFUL:          0  USELESS:          0
cpu0_L1I AVERAGE MISS LATENCY: 210.4 cycles
cpu0_STLB TOTAL     ACCESS:    4552640  HIT:    2699261  MISS:    1853379
cpu0_STLB LOAD      ACCESS:    4390631  HIT:    2592522  MISS:    1798109
cpu0_STLB RFO       ACCESS:     162009  HIT:     106739  MISS:      55270
cpu0_STLB PREFETCH  ACCESS:          0  HIT:          0  MISS:          0
cpu0_STLB WRITEBACK ACCESS:          0  HIT:          0  MISS:          0
cpu0_STLB TRANSLATION ACCESS:          0  HIT:          0  MISS:          0
cpu0_STLB PREFETCH  REQUESTED:          0  ISSUED:          0  USEFUL:          0  USELESS:          0
cpu0_STLB AVERAGE MISS LATENCY: 37.4481 cycles
cpu0_L1D TOTAL     ACCESS:  687088330  HIT:  613472118  MISS:   73616212
cpu0_L1D LOAD      ACCESS:  337516543  HIT:  267570346  MISS:   69946197
cpu0_L1D RFO       ACCESS:  347718417  HIT:  344123625  MISS:    3594792
cpu0_L1D PREFETCH  ACCESS:          0  HIT:          0  MISS:          0
cpu0_L1D WRITEBACK ACCESS:          0  HIT:          0  MISS:          0
cpu0_L1D TRANSLATION ACCESS:    1853370  HIT:    1778147  MISS:      75223
cpu0_L1D PREFETCH  REQUESTED:          0  ISSUED:          0  USEFUL:          0  USELESS:          0
cpu0_L1D AVERAGE MISS LATENCY: 239.577 cycles
cpu0_L2C TOTAL     ACCESS:   81060955  HIT:    8449394  MISS:   72611561
cpu0_L2C LOAD      ACCESS:   69946050  HIT:     925647  MISS:   69020403
cpu0_L2C RFO       ACCESS:    3594738  HIT:      61858  MISS:    3532880
cpu0_L2C PREFETCH  ACCESS:          0  HIT:          0  MISS:          0
cpu0_L2C WRITEBACK ACCESS:    7444944  HIT:    7406559  MISS:      38385
cpu0_L2C TRANSLATION ACCESS:      75223  HIT:      55330  MISS:      19893
cpu0_L2C PREFETCH  REQUESTED:          0  ISSUED:          0  USEFUL:          0  USELESS:          0
cpu0_L2C AVERAGE MISS LATENCY: 231.598 cycles
LLC TOTAL     ACCESS:   79303905  HIT:      60372  MISS:   79243533
LLC LOAD      ACCESS:   69020401  HIT:      29648  MISS:   68990753
LLC RFO       ACCESS:    3532880  HIT:       2089  MISS:    3530791
LLC PREFETCH  ACCESS:          0  HIT:          0  MISS:          0
LLC WRITEBACK ACCESS:    6730731  HIT:      28626  MISS:    6702105
LLC TRANSLATION ACCESS:      19893  HIT:          9  MISS:      19884
LLC PREFETCH  REQUESTED:          0  ISSUED:          0  USEFUL:          0  USELESS:          0
LLC AVERAGE MISS LATENCY: 192.983 cycles
~~~~~~~~~~Reuse Distance Profiler output~~~~~~~~~~
0	0	0
1	0	0
2	0	0
3	0	0
4	0	0
5	0	0
6	0	0
7	0	0
8	0	0
9	0	0
10	0	0
11	0	0
12	0	0
13	0	0
14	0	0
15	0	0
16	0	0
17	0	0
18	0	0
19	0	0
20	0	0
21	0	0
22	0	0
23	0	0
24	0	0
25	0	0
26	0	0
27	0	0
28	0	0
29	0	0
30	0	0
31	0	0
32	0	0
33	0	0
34	0	0
35	0	0
36	0	0
37	0	0
38	0	0
39	0	0
40	0	0
41	0	0
42	0	0
43	0	0
44	0	0
45	0	0
46	0	0
47	0	0
48	0	0
49	0	0
50	0	0
51	0	0
52	0	0
53	0	0
54	0	0
55	0	0
56	0	0
57	0	0
58	0	0
59	0	0
60	0	0
61	0	0
62	0	0
63	0	0
64	0	0
66	0	0
68	0	0
70	0	0
72	0	0
74	0	0
76	0	0
78	0	0
80	0	0
82	0	0
84	0	0
86	0	0
88	0	0
90	0	0
92	0	0
94	0	0
96	0	0
98	0	0
100	0	0
102	0	0
104	0	0
106	0	0
108	0	0
110	0	0
112	0	0
114	0	0
116	0	0
118	0	0
120	0	0
122	0	0
124	0	0
126	0	0
128	0	0
132	0	0
136	0	0
140	0	0
144	0	0
148	0	0
152	0	0
156	0	0
160	0	0
164	0	0
168	0	0
172	0	0
176	0	0
180	0	0
184	0	0
188	0	0
192	0	0
196	0	0
200	0	0
204	0	0
208	0	0
212	0	0
216	0	0
220	0	0
224	0	0
228	0	0
232	0	0
236	0	0
240	0	0
244	0	0
248	0	0
252	0	0
256	0	0
264	0	0
272	0	0
280	0	0
288	0	0
296	0	0
304	0	0
312	0	0
320	0	0
328	0	0
336	0	0
344	0	0
352	0	0
360	0	0
368	0	0
376	0	0
384	0	0
392	0	0
400	0	0
408	0	0
416	0	0
424	0	0
432	0	0
440	0	0
448	0	0
456	0	0
464	0	0
472	0	0
480	0	0
488	0	0
496	0	0
504	0	0
512	0	0
528	0	0
544	0	0
560	0	0
576	0	0
592	0	0
608	0	0
624	0	0
640	0	0
656	0	0
672	0	0
688	0	0
704	0	0
720	0	0
736	0	0
752	0	0
768	0	0
784	0	0
800	0	0
816	0	0
832	0	0
848	0	0
864	0	0
880	0	0
896	0	0
912	0	0
928	0	0
944	0	0
960	0	0
976	0	0
992	0	0
1008	0	0
1024	0	0
1056	0	0
1088	0	0
1120	0	0
1152	0	0
1184	0	0
1216	0	0
1248	0	0
1280	0	0
1312	0	0
1344	0	0
1376	0	0
1408	0	0
1440	0	0
1472	0	0
1504	0	0
1536	0	0
1568	0	0
1600	0	0
1632	0	0
1664	0	0
1696	0	0
1728	0	0
1760	0	0
1792	0	0
1824	0	0
1856	0	0
1888	0	0
1920	0	0
1952	0	0
1984	0	0
2016	0	0
2048	0	0
2112	0	0
2176	0	0
2240	0	0
2304	0	0
2368	0	0
2432	0	0
2496	0	0
2560	0	0
2624	0	0
2688	0	0
2752	0	0
2816	0	0
2880	0	0
2944	0	0
3008	0	0
3072	0	0
3136	0	0
3200	0	0
3264	0	0
3328	0	0
3392	0	0
3456	0	0
3520	0	0
3584	0	0
3648	0	0
3712	0	0
3776	0	0
3840	0	0
3904	0	0
3968	0	0
4032	0	0
4096	0	0
4224	0	0
4352	0	0
4480	0	0
4608	0	0
4736	0	0
4864	0	0
4992	0	0
5120	0	0
5248	0	0
5376	0	0
5504	0	0
5632	0	0
5760	0	0
5888	0	0
6016	0	0
6144	0	0
6272	0	0
6400	0	0
6528	0	0
6656	0	0
6784	0	0
6912	0	0
7040	0	0
7168	0	0
7296	0	0
7424	0	0
7552	0	0
7680	0	0
7808	0	0
7936	0	0
8064	0	0
8192	0	0
8448	0	0
8704	0	0
8960	0	0
9216	0	0
9472	0	0
9728	0	0
9984	0	0
10240	0	0
10496	0	0
10752	0	0
11008	0	0
11264	0	0
11520	0	0
11776	0	0
12032	0	0
12288	0	0
12544	0	0
12800	0	0
13056	0	0
13312	0	0
13568	0	0
13824	0	0
14080	0	0
14336	0	0
14592	0	0
14848	0	0
15104	0	0
15360	0	0
15616	0	0
15872	0	0
16128	0	0
16384	0	0
16896	0	0
17408	0	0
17920	0	0
18432	0	0
18944	0	0
19456	0	0
19968	0	0
20480	0	0
20992	0	0
21504	0	0
22016	0	0
22528	0	0
23040	0	0
23552	0	0
24064	0	0
24576	0	0
25088	0	0
25600	0	0
26112	0	0
26624	0	0
27136	0	0
27648	0	0
28160	0	0
28672	0	0
29184	0	0
29696	0	0
30208	0	0
30720	0	0
31232	0	0
31744	0	0
32256	0	0
32768	0	0
33792	0	0
34816	0	0
35840	0	0
36864	0	0
37888	0	0
38912	0	0
39936	0	0
40960	0	0
41984	0	0
43008	0	0
44032	0	0
45056	0	0
46080	0	0
47104	0	0
48128	0	0
49152	0	0
50176	0	0
51200	0	0
52224	0	0
53248	0	0
54272	0	0
55296	0	0
56320	0	0
57344	0	0
58368	0	0
59392	0	0
60416	0	0
61440	0	0
62464	0	0
63488	0	0
64512	0	0
65536	0	0
67584	0	0
69632	0	0
71680	0	0
73728	0	0
75776	0	0
77824	0	0
79872	0	0
81920	0	0
83968	0	0
86016	0	0
88064	0	0
90112	0	0
92160	0	0
94208	0	0
96256	0	0
98304	0	0
100352	0	0
102400	0	0
104448	0	0
106496	0	0
108544	0	0
110592	0	0
112640	0	0
114688	0	0
116736	0	0
118784	0	0
120832	0	0
122880	0	0
124928	0	0
126976	0	0
129024	0	0
131072	0	0
135168	0	0
139264	0	0
143360	0	0
147456	0	0
151552	0	0
155648	0	0
159744	0	0
163840	0	0
167936	0	0
172032	0	0
176128	0	0
180224	0	0
184320	0	0
188416	0	0
192512	0	0
196608	0	0
200704	0	0
204800	0	0
208896	0	0
212992	0	0
217088	0	0
221184	0	0
225280	0	0
229376	0	0
233472	0	0
237568	0	0
241664	0	0
245760	0	0
249856	0	0
253952	0	0
258048	0	0
262144	0	0
270336	0	0
278528	0	0
286720	0	0
294912	0	0
303104	0	0
311296	0	0
319488	0	0
327680	0	0
335872	0	0
344064	0	0
352256	0	0
360448	0	0
368640	0	0
376832	0	0
385024	0	0
393216	0	0
401408	0	0
409600	0	0
417792	0	0
425984	0	0
434176	0	0
442368	0	0
450560	0	0
458752	0	0
466944	0	0
475136	0	0
483328	0	0
491520	0	0
499712	0	0
507904	0	0
516096	0	0
524288	0	0
540672	0	0
557056	0	0
573440	0	0
589824	0	0
606208	0	0
622592	0	0
638976	0	0
655360	0	0
671744	0	0
688128	0	0
704512	0	0
720896	0	0
737280	0	0
753664	0	0
770048	0	0
786432	0	0
802816	0	0
819200	0	0
835584	0	0
851968	0	0
868352	0	0
884736	0	0
901120	0	0
917504	0	0
933888	0	0
950272	0	0
966656	0	0
983040	0	0
999424	0	0
1015808	0	0
1032192	0	0
1048576	0	0
1081344	0	0
1114112	0	0
1146880	0	0
1179648	0	0
1212416	0	0
1245184	0	0
1277952	0	0
1310720	0	0
1343488	0	0
1376256	0	0
1409024	0	0
1441792	0	0
1474560	0	0
1507328	0	0
1540096	0	0
1572864	0	0
1605632	0	0
1638400	0	0
1671168	0	0
1703936	0	0
1736704	0	0
1769472	0	0
1802240	0	0
1835008	0	0
1867776	0	0
1900544	0	0
1933312	0	0
1966080	0	0
1998848	0	0
2031616	0	0
2064384	0	0
2097152	0	0
2162688	0	0
2228224	0	0
2293760	0	0
2359296	0	0
2424832	0	0
2490368	0	0
2555904	0	0
2621440	0	0
2686976	0	0
2752512	0	0
2818048	0	0
2883584	0	0
2949120	0	0
3014656	0	0
3080192	0	0
3145728	0	0
3211264	0	0
3276800	0	0
3342336	0	0
3407872	0	0
3473408	0	0
3538944	0	0
3604480	0	0
3670016	0	0
3735552	0	0
3801088	0	0
3866624	0	0
3932160	0	0
3997696	0	0
4063232	0	0
4128768	0	0
4194304	0	0
4325376	0	0
4456448	0	0
4587520	0	0
4718592	0	0
4849664	0	0
4980736	0	0
5111808	0	0
5242880	0	0
5373952	0	0
5505024	0	0
5636096	0	0
5767168	0	0
5898240	0	0
6029312	0	0
6160384	0	0
6291456	0	0
6422528	0	0
6553600	0	0
6684672	0	0
6815744	0	0
6946816	0	0
7077888	0	0
7208960	0	0
7340032	0	0
7471104	0	0
7602176	0	0
7733248	0	0
7864320	0	0
7995392	0	0
8126464	0	0
8257536	0	0
8388608	0	0
8650752	0	0
8912896	0	0
9175040	0	0
9437184	0	0
9699328	0	0
9961472	0	0
10223616	0	0
10485760	0	0
10747904	0	0
11010048	0	0
11272192	0	0
11534336	0	0
11796480	0	0
12058624	0	0
12320768	0	0
12582912	0	0
12845056	0	0
13107200	0	0
13369344	0	0
13631488	0	0
13893632	0	0
14155776	0	0
14417920	0	0
14680064	0	0
14942208	0	0
15204352	0	0
15466496	0	0
15728640	0	0
15990784	0	0
16252928	0	0
16515072	0	0
16777216	0	0
17301504	0	0
17825792	0	0
18350080	0	0
18874368	0	0
19398656	0	0
19922944	0	0
20447232	0	0
20971520	0	0
21495808	0	0
22020096	0	0
22544384	0	0
23068672	0	0
23592960	0	0
24117248	0	0
24641536	0	0
25165824	0	0
25690112	0	0
26214400	0	0
26738688	0	0
27262976	0	0
27787264	0	0
28311552	0	0
28835840	0	0
29360128	0	0
29884416	0	0
30408704	0	0
30932992	0	0
31457280	0	0
31981568	0	0
32505856	0	0
33030144	0	0
33554432	0	0
34603008	0	0
35651584	0	0
36700160	0	0
37748736	0	0
38797312	0	0
39845888	0	0
40894464	0	0
41943040	0	0
42991616	0	0
44040192	0	0
45088768	0	0
46137344	0	0
47185920	0	0
48234496	0	0
49283072	0	0
50331648	0	0
51380224	0	0
52428800	0	0
53477376	0	0
54525952	0	0
55574528	0	0
56623104	0	0
57671680	0	0
58720256	0	0
59768832	0	0
60817408	0	0
61865984	0	0
62914560	0	0
63963136	0	0
65011712	0	0
66060288	0	0
67108864	0	0
69206016	0	0
71303168	0	0
73400320	0	0
75497472	0	0
77594624	0	0
79691776	0	0
81788928	0	0
83886080	0	0
85983232	0	0
88080384	0	0
90177536	0	0
92274688	0	0
94371840	0	0
96468992	0	0
98566144	0	0
100663296	0	0
102760448	0	0
104857600	0	0
106954752	0	0
109051904	0	0
111149056	0	0
113246208	0	0
115343360	0	0
117440512	0	0
119537664	0	0
121634816	0	0
123731968	0	0
125829120	0	0
127926272	0	0
130023424	0	0
132120576	0	0
134217728	0	0
138412032	0	0
142606336	0	0
146800640	0	0
150994944	0	0
155189248	0	0
159383552	0	0
163577856	0	0
167772160	0	0
171966464	0	0
176160768	0	0
180355072	0	0
184549376	0	0
188743680	0	0
192937984	0	0
197132288	0	0
201326592	0	0
205520896	0	0
209715200	0	0
213909504	0	0
218103808	0	0
222298112	0	0
226492416	0	0
230686720	0	0
234881024	0	0
239075328	0	0
243269632	0	0
247463936	0	0
251658240	0	0
255852544	0	0
260046848	0	0
264241152	0	0
268435456	0	0
276824064	0	0
285212672	0	0
293601280	0	0
301989888	0	0
310378496	0	0
318767104	0	0
327155712	0	0
335544320	0	0
343932928	0	0
352321536	0	0
360710144	0	0
369098752	0	0
377487360	0	0
385875968	0	0
394264576	0	0
402653184	0	0
411041792	0	0
419430400	0	0
427819008	0	0
436207616	0	0
444596224	0	0
452984832	0	0
461373440	0	0
469762048	0	0
478150656	0	0
486539264	0	0
494927872	0	0
503316480	0	0
511705088	0	0
520093696	0	0
528482304	0	0
536870912	0	0
553648128	0	0
570425344	0	0
587202560	0	0
603979776	0	0
620756992	0	0
637534208	0	0
654311424	0	0
671088640	0	0
687865856	0	0
704643072	0	0
721420288	0	0
738197504	0	0
754974720	0	0
771751936	0	0
788529152	0	0
805306368	0	0
822083584	0	0
838860800	0	0
855638016	0	0
872415232	0	0
889192448	0	0
905969664	0	0
922746880	0	0
939524096	0	0
956301312	0	0
973078528	0	0
989855744	0	0
1006632960	0	0
1023410176	0	0
1040187392	0	0
1056964608	0	0
1073741824	0	0
1107296256	0	0
1140850688	0	0
1174405120	0	0
1207959552	0	0
1241513984	0	0
1275068416	0	0
1308622848	0	0
1342177280	0	0
1375731712	0	0
1409286144	0	0
1442840576	0	0
1476395008	0	0
1509949440	0	0
1543503872	0	0
1577058304	0	0
1610612736	0	0
1644167168	0	0
1677721600	0	0
1711276032	0	0
1744830464	0	0
1778384896	0	0
1811939328	0	0
1845493760	0	0
1879048192	0	0
1912602624	0	0
1946157056	0	0
1979711488	0	0
2013265920	0	0
2046820352	0	0
2080374784	0	0
2113929216	0	0
2147483648	0	0
2214592512	0	0
2281701376	0	0
2348810240	0	0
2415919104	0	0
2483027968	0	0
2550136832	0	0
2617245696	0	0
2684354560	0	0
2751463424	0	0
2818572288	0	0
2885681152	0	0
2952790016	0	0
3019898880	0	0
3087007744	0	0
3154116608	0	0
3221225472	0	0
3288334336	0	0
3355443200	0	0
3422552064	0	0
3489660928	0	0
3556769792	0	0
3623878656	0	0
3690987520	0	0
3758096384	0	0
3825205248	0	0
3892314112	0	0
3959422976	0	0
4026531840	0	0
4093640704	0	0
4160749568	0	0
4227858432	0	0
~~~~~~~~~~Reuse Distance Profiler output end~~~~~~~~~~


DRAM Statistics
 CHANNEL 0
 RQ ROW_BUFFER_HIT:   13997501  ROW_BUFFER_MISS:   58541484
 DBUS AVG_CONGESTED_CYCLE:    3.90947
 WQ ROW_BUFFER_HIT:    1398318  ROW_BUFFER_MISS:    5330781  FULL:          0


CPU 0 Branch Prediction Accuracy: 98.0254% MPKI: 2.37853 Average ROB Occupancy at Mispredict: 166.693
Branch type MPKI
BRANCH_DIRECT_JUMP: 0
BRANCH_INDIRECT: 0
BRANCH_CONDITIONAL: 2.37853
BRANCH_DIRECT_CALL: 6.66667e-07
BRANCH_INDIRECT_CALL: 0
BRANCH_RETURN: 6.66667e-07

