
*** ChampSim Multicore Out-of-Order Simulator ***

Warmup Instructions: 50000000
Simulation Instructions: 1500000000
Number of CPUs: 1
Off-chip DRAM Size: 4 GiB Channels: 1 Width: 64-bit Data Rate: 3200 MT/s

VirtualMemory physical capacity: 8588881920 num_ppages: 2096895
VirtualMemory page size: 4096 log2_page_size: 12

CPU 0 runs traces/605.mcf_s-1644B.champsimtrace.xz
CPU 0 Bimodal branch predictor
Basic BTB sets: 1024 ways: 8 indirect buffer size: 4096 RAS size: 64
Initializing LRU.
Initializing LRU.
Initializing LRU.
Initializing LRU.
Initializing rdLRU.
Initializing LRU.
Initializing LRU.
Heartbeat CPU 0 instructions: 2000000 cycles: 700141 heartbeat IPC: 2.85657 cumulative IPC: 2.85657 (Simulation time: 0 hr 1 min 23 sec) 
Heartbeat CPU 0 instructions: 4000000 cycles: 1398898 heartbeat IPC: 2.86223 cumulative IPC: 2.85939 (Simulation time: 0 hr 2 min 40 sec) 
Heartbeat CPU 0 instructions: 6000004 cycles: 2099083 heartbeat IPC: 2.85639 cumulative IPC: 2.85839 (Simulation time: 0 hr 4 min 5 sec) 
Heartbeat CPU 0 instructions: 8000002 cycles: 2799313 heartbeat IPC: 2.8562 cumulative IPC: 2.85784 (Simulation time: 0 hr 5 min 35 sec) 
Heartbeat CPU 0 instructions: 10000004 cycles: 3499471 heartbeat IPC: 2.8565 cumulative IPC: 2.85758 (Simulation time: 0 hr 7 min 3 sec) 
Heartbeat CPU 0 instructions: 12000000 cycles: 4198956 heartbeat IPC: 2.85924 cumulative IPC: 2.85785 (Simulation time: 0 hr 8 min 26 sec) 
Heartbeat CPU 0 instructions: 14000003 cycles: 4898779 heartbeat IPC: 2.85787 cumulative IPC: 2.85786 (Simulation time: 0 hr 9 min 49 sec) 
Heartbeat CPU 0 instructions: 16000004 cycles: 5599609 heartbeat IPC: 2.85376 cumulative IPC: 2.85734 (Simulation time: 0 hr 11 min 12 sec) 
Heartbeat CPU 0 instructions: 18000000 cycles: 6297590 heartbeat IPC: 2.8654 cumulative IPC: 2.85824 (Simulation time: 0 hr 12 min 31 sec) 
Heartbeat CPU 0 instructions: 20000003 cycles: 6997680 heartbeat IPC: 2.85678 cumulative IPC: 2.85809 (Simulation time: 0 hr 13 min 54 sec) 
Heartbeat CPU 0 instructions: 22000001 cycles: 7696716 heartbeat IPC: 2.86108 cumulative IPC: 2.85836 (Simulation time: 0 hr 15 min 7 sec) 
Heartbeat CPU 0 instructions: 24000004 cycles: 8397623 heartbeat IPC: 2.85345 cumulative IPC: 2.85795 (Simulation time: 0 hr 16 min 23 sec) 
Heartbeat CPU 0 instructions: 26000001 cycles: 9097591 heartbeat IPC: 2.85727 cumulative IPC: 2.8579 (Simulation time: 0 hr 17 min 43 sec) 
Heartbeat CPU 0 instructions: 28000001 cycles: 9795019 heartbeat IPC: 2.86768 cumulative IPC: 2.8586 (Simulation time: 0 hr 19 min 0 sec) 
Heartbeat CPU 0 instructions: 30000000 cycles: 10496357 heartbeat IPC: 2.85169 cumulative IPC: 2.85813 (Simulation time: 0 hr 20 min 19 sec) 
Heartbeat CPU 0 instructions: 32000000 cycles: 11195029 heartbeat IPC: 2.86257 cumulative IPC: 2.85841 (Simulation time: 0 hr 21 min 38 sec) 
Heartbeat CPU 0 instructions: 34000001 cycles: 11895702 heartbeat IPC: 2.8544 cumulative IPC: 2.85818 (Simulation time: 0 hr 22 min 54 sec) 
Heartbeat CPU 0 instructions: 36000001 cycles: 12595164 heartbeat IPC: 2.85934 cumulative IPC: 2.85824 (Simulation time: 0 hr 24 min 10 sec) 
Heartbeat CPU 0 instructions: 38000000 cycles: 13292619 heartbeat IPC: 2.86757 cumulative IPC: 2.85873 (Simulation time: 0 hr 25 min 28 sec) 
Heartbeat CPU 0 instructions: 40000002 cycles: 13995032 heartbeat IPC: 2.84733 cumulative IPC: 2.85816 (Simulation time: 0 hr 26 min 47 sec) 
Heartbeat CPU 0 instructions: 42000001 cycles: 14692880 heartbeat IPC: 2.86595 cumulative IPC: 2.85853 (Simulation time: 0 hr 28 min 2 sec) 
Heartbeat CPU 0 instructions: 44000003 cycles: 15391299 heartbeat IPC: 2.86361 cumulative IPC: 2.85876 (Simulation time: 0 hr 29 min 11 sec) 
Heartbeat CPU 0 instructions: 46000002 cycles: 16092975 heartbeat IPC: 2.85032 cumulative IPC: 2.85839 (Simulation time: 0 hr 30 min 26 sec) 
Heartbeat CPU 0 instructions: 48000004 cycles: 16793864 heartbeat IPC: 2.85352 cumulative IPC: 2.85819 (Simulation time: 0 hr 31 min 46 sec) 
Heartbeat CPU 0 instructions: 50000004 cycles: 17493508 heartbeat IPC: 2.8586 cumulative IPC: 2.8582 (Simulation time: 0 hr 33 min 3 sec) 

Warmup complete CPU 0 instructions: 50000004 cycles: 17493508 (Simulation time: 0 hr 33 min 3 sec) 

Heartbeat CPU 0 instructions: 52000004 cycles: 34959263 heartbeat IPC: 0.11451 cumulative IPC: 0.11451 (Simulation time: 0 hr 38 min 19 sec) 

Region of Interest Statistics
cpu0_DTLB TOTAL     ACCESS:    1174897  HIT:    1116976  MISS:      57921
cpu0_DTLB LOAD      ACCESS:     563859  HIT:     550310  MISS:      13549
cpu0_DTLB RFO       ACCESS:     611038  HIT:     566666  MISS:      44372
cpu0_DTLB PREFETCH  ACCESS:          0  HIT:          0  MISS:          0
cpu0_DTLB WRITEBACK ACCESS:          0  HIT:          0  MISS:          0
cpu0_ITLB TOTAL     ACCESS:     200394  HIT:     200394  MISS:          0
cpu0_ITLB LOAD      ACCESS:     200394  HIT:     200394  MISS:          0
cpu0_ITLB RFO       ACCESS:          0  HIT:          0  MISS:          0
cpu0_ITLB PREFETCH  ACCESS:          0  HIT:          0  MISS:          0
cpu0_ITLB WRITEBACK ACCESS:          0  HIT:          0  MISS:          0
cpu0_L1I TOTAL     ACCESS:      28810  HIT:      28810  MISS:          0
cpu0_L1I LOAD      ACCESS:      28810  HIT:      28810  MISS:          0
cpu0_L1I RFO       ACCESS:          0  HIT:          0  MISS:          0
cpu0_L1I PREFETCH  ACCESS:          0  HIT:          0  MISS:          0
cpu0_L1I WRITEBACK ACCESS:          0  HIT:          0  MISS:          0
cpu0_STLB TOTAL     ACCESS:      57921  HIT:      10011  MISS:      47910
cpu0_STLB LOAD      ACCESS:      13549  HIT:       9841  MISS:       3708
cpu0_STLB RFO       ACCESS:      44372  HIT:        170  MISS:      44202
cpu0_STLB PREFETCH  ACCESS:          0  HIT:          0  MISS:          0
cpu0_STLB WRITEBACK ACCESS:          0  HIT:          0  MISS:          0
cpu0_L1D TOTAL     ACCESS:    1050514  HIT:     867732  MISS:     182782
cpu0_L1D LOAD      ACCESS:     609522  HIT:     517218  MISS:      92304
cpu0_L1D RFO       ACCESS:     393109  HIT:     305782  MISS:      87327
cpu0_L1D PREFETCH  ACCESS:          0  HIT:          0  MISS:          0
cpu0_L1D WRITEBACK ACCESS:          0  HIT:          0  MISS:          0
cpu0_L2C TOTAL     ACCESS:     362435  HIT:     194577  MISS:     167858
cpu0_L2C LOAD      ACCESS:      92302  HIT:      12015  MISS:      80287
cpu0_L2C RFO       ACCESS:      87327  HIT:          2  MISS:      87325
cpu0_L2C PREFETCH  ACCESS:          0  HIT:          0  MISS:          0
cpu0_L2C WRITEBACK ACCESS:     179655  HIT:     179614  MISS:         41
LLC TOTAL     ACCESS:     335440  HIT:     176156  MISS:     159284
LLC LOAD      ACCESS:      80283  HIT:       9974  MISS:      70309
LLC RFO       ACCESS:      87325  HIT:         45  MISS:      87280
LLC PREFETCH  ACCESS:          0  HIT:          0  MISS:          0
LLC WRITEBACK ACCESS:     167627  HIT:     166096  MISS:       1531
Heartbeat CPU 0 instructions: 54000001 cycles: 52491217 heartbeat IPC: 0.114077 cumulative IPC: 0.114293 (Simulation time: 0 hr 43 min 32 sec) 

Region of Interest Statistics
cpu0_DTLB TOTAL     ACCESS:    2349891  HIT:    2234608  MISS:     115283
cpu0_DTLB LOAD      ACCESS:    1128094  HIT:    1101555  MISS:      26539
cpu0_DTLB RFO       ACCESS:    1221797  HIT:    1133053  MISS:      88744
cpu0_DTLB PREFETCH  ACCESS:          0  HIT:          0  MISS:          0
cpu0_DTLB WRITEBACK ACCESS:          0  HIT:          0  MISS:          0
cpu0_ITLB TOTAL     ACCESS:     398593  HIT:     398593  MISS:          0
cpu0_ITLB LOAD      ACCESS:     398593  HIT:     398593  MISS:          0
cpu0_ITLB RFO       ACCESS:          0  HIT:          0  MISS:          0
cpu0_ITLB PREFETCH  ACCESS:          0  HIT:          0  MISS:          0
cpu0_ITLB WRITEBACK ACCESS:          0  HIT:          0  MISS:          0
cpu0_L1I TOTAL     ACCESS:      60935  HIT:      60935  MISS:          0
cpu0_L1I LOAD      ACCESS:      60935  HIT:      60935  MISS:          0
cpu0_L1I RFO       ACCESS:          0  HIT:          0  MISS:          0
cpu0_L1I PREFETCH  ACCESS:          0  HIT:          0  MISS:          0
cpu0_L1I WRITEBACK ACCESS:          0  HIT:          0  MISS:          0
cpu0_STLB TOTAL     ACCESS:     115283  HIT:      19744  MISS:      95539
cpu0_STLB LOAD      ACCESS:      26539  HIT:      19442  MISS:       7097
cpu0_STLB RFO       ACCESS:      88744  HIT:        302  MISS:      88442
cpu0_STLB PREFETCH  ACCESS:          0  HIT:          0  MISS:          0
cpu0_STLB WRITEBACK ACCESS:          0  HIT:          0  MISS:          0
cpu0_L1D TOTAL     ACCESS:    2099190  HIT:    1733607  MISS:     365583
cpu0_L1D LOAD      ACCESS:    1217747  HIT:    1032955  MISS:     184792
cpu0_L1D RFO       ACCESS:     785969  HIT:     611363  MISS:     174606
cpu0_L1D PREFETCH  ACCESS:          0  HIT:          0  MISS:          0
cpu0_L1D WRITEBACK ACCESS:          0  HIT:          0  MISS:          0
cpu0_L2C TOTAL     ACCESS:     724999  HIT:     389465  MISS:     335534
cpu0_L2C LOAD      ACCESS:     184788  HIT:      24347  MISS:     160441
cpu0_L2C RFO       ACCESS:     174606  HIT:          2  MISS:     174604
cpu0_L2C PREFETCH  ACCESS:          0  HIT:          0  MISS:          0
cpu0_L2C WRITEBACK ACCESS:     359420  HIT:     359335  MISS:         85
LLC TOTAL     ACCESS:     670510  HIT:     351694  MISS:     318816
LLC LOAD      ACCESS:     160436  HIT:      19532  MISS:     140904
LLC RFO       ACCESS:     174604  HIT:         56  MISS:     174548
LLC PREFETCH  ACCESS:          0  HIT:          0  MISS:          0
LLC WRITEBACK ACCESS:     335066  HIT:     332032  MISS:       3034
Heartbeat CPU 0 instructions: 56000001 cycles: 70118717 heartbeat IPC: 0.113459 cumulative IPC: 0.114014 (Simulation time: 0 hr 48 min 23 sec) 

Region of Interest Statistics
cpu0_DTLB TOTAL     ACCESS:    3525158  HIT:    3352581  MISS:     172577
cpu0_DTLB LOAD      ACCESS:    1691506  HIT:    1652148  MISS:      39358
cpu0_DTLB RFO       ACCESS:    1833652  HIT:    1700433  MISS:     133219
cpu0_DTLB PREFETCH  ACCESS:          0  HIT:          0  MISS:          0
cpu0_DTLB WRITEBACK ACCESS:          0  HIT:          0  MISS:          0
cpu0_ITLB TOTAL     ACCESS:     601055  HIT:     601055  MISS:          0
cpu0_ITLB LOAD      ACCESS:     601055  HIT:     601055  MISS:          0
cpu0_ITLB RFO       ACCESS:          0  HIT:          0  MISS:          0
cpu0_ITLB PREFETCH  ACCESS:          0  HIT:          0  MISS:          0
cpu0_ITLB WRITEBACK ACCESS:          0  HIT:          0  MISS:          0
cpu0_L1I TOTAL     ACCESS:      86733  HIT:      86733  MISS:          0
cpu0_L1I LOAD      ACCESS:      86733  HIT:      86733  MISS:          0
cpu0_L1I RFO       ACCESS:          0  HIT:          0  MISS:          0
cpu0_L1I PREFETCH  ACCESS:          0  HIT:          0  MISS:          0
cpu0_L1I WRITEBACK ACCESS:          0  HIT:          0  MISS:          0
cpu0_STLB TOTAL     ACCESS:     172577  HIT:      29223  MISS:     143354
cpu0_STLB LOAD      ACCESS:      39358  HIT:      28653  MISS:      10705
cpu0_STLB RFO       ACCESS:     133219  HIT:        570  MISS:     132649
cpu0_STLB PREFETCH  ACCESS:          0  HIT:          0  MISS:          0
cpu0_STLB WRITEBACK ACCESS:          0  HIT:          0  MISS:          0
cpu0_L1D TOTAL     ACCESS:    3150620  HIT:    2601693  MISS:     548927
cpu0_L1D LOAD      ACCESS:    1827641  HIT:    1550063  MISS:     277578
cpu0_L1D RFO       ACCESS:    1179715  HIT:     917673  MISS:     262042
cpu0_L1D PREFETCH  ACCESS:          0  HIT:          0  MISS:          0
cpu0_L1D WRITEBACK ACCESS:          0  HIT:          0  MISS:          0
cpu0_L2C TOTAL     ACCESS:    1088564  HIT:     583729  MISS:     504835
cpu0_L2C LOAD      ACCESS:     277572  HIT:      35529  MISS:     242043
cpu0_L2C RFO       ACCESS:     262042  HIT:          5  MISS:     262037
cpu0_L2C PREFETCH  ACCESS:          0  HIT:          0  MISS:          0
cpu0_L2C WRITEBACK ACCESS:     539643  HIT:     539510  MISS:        133
LLC TOTAL     ACCESS:    1008805  HIT:     529924  MISS:     478881
LLC LOAD      ACCESS:     242033  HIT:      30078  MISS:     211955
LLC RFO       ACCESS:     262037  HIT:        211  MISS:     261826
LLC PREFETCH  ACCESS:          0  HIT:          0  MISS:          0
LLC WRITEBACK ACCESS:     504113  HIT:     499522  MISS:       4591
Heartbeat CPU 0 instructions: 58000002 cycles: 87655235 heartbeat IPC: 0.114048 cumulative IPC: 0.114022 (Simulation time: 0 hr 53 min 11 sec) 

Region of Interest Statistics
cpu0_DTLB TOTAL     ACCESS:    4705404  HIT:    4474853  MISS:     230551
cpu0_DTLB LOAD      ACCESS:    2258740  HIT:    2205991  MISS:      52749
cpu0_DTLB RFO       ACCESS:    2446664  HIT:    2268862  MISS:     177802
cpu0_DTLB PREFETCH  ACCESS:          0  HIT:          0  MISS:          0
cpu0_DTLB WRITEBACK ACCESS:          0  HIT:          0  MISS:          0
cpu0_ITLB TOTAL     ACCESS:     806573  HIT:     806573  MISS:          0
cpu0_ITLB LOAD      ACCESS:     806573  HIT:     806573  MISS:          0
cpu0_ITLB RFO       ACCESS:          0  HIT:          0  MISS:          0
cpu0_ITLB PREFETCH  ACCESS:          0  HIT:          0  MISS:          0
cpu0_ITLB WRITEBACK ACCESS:          0  HIT:          0  MISS:          0
cpu0_L1I TOTAL     ACCESS:     108276  HIT:     108276  MISS:          0
cpu0_L1I LOAD      ACCESS:     108276  HIT:     108276  MISS:          0
cpu0_L1I RFO       ACCESS:          0  HIT:          0  MISS:          0
cpu0_L1I PREFETCH  ACCESS:          0  HIT:          0  MISS:          0
cpu0_L1I WRITEBACK ACCESS:          0  HIT:          0  MISS:          0
cpu0_STLB TOTAL     ACCESS:     230551  HIT:      39160  MISS:     191391
cpu0_STLB LOAD      ACCESS:      52749  HIT:      38435  MISS:      14314
cpu0_STLB RFO       ACCESS:     177802  HIT:        725  MISS:     177077
cpu0_STLB PREFETCH  ACCESS:          0  HIT:          0  MISS:          0
cpu0_STLB WRITEBACK ACCESS:          0  HIT:          0  MISS:          0
cpu0_L1D TOTAL     ACCESS:    4208643  HIT:    3476316  MISS:     732327
cpu0_L1D LOAD      ACCESS:    2443127  HIT:    2072807  MISS:     370320
cpu0_L1D RFO       ACCESS:    1574245  HIT:    1224593  MISS:     349652
cpu0_L1D PREFETCH  ACCESS:          0  HIT:          0  MISS:          0
cpu0_L1D WRITEBACK ACCESS:          0  HIT:          0  MISS:          0
cpu0_L2C TOTAL     ACCESS:    1452314  HIT:     779974  MISS:     672340
cpu0_L2C LOAD      ACCESS:     370314  HIT:      48640  MISS:     321674
cpu0_L2C RFO       ACCESS:     349652  HIT:         20  MISS:     349632
cpu0_L2C PREFETCH  ACCESS:          0  HIT:          0  MISS:          0
cpu0_L2C WRITEBACK ACCESS:     719993  HIT:     719816  MISS:        177
LLC TOTAL     ACCESS:    1343497  HIT:     705906  MISS:     637591
LLC LOAD      ACCESS:     321663  HIT:      40150  MISS:     281513
LLC RFO       ACCESS:     349632  HIT:        498  MISS:     349134
LLC PREFETCH  ACCESS:          0  HIT:          0  MISS:          0
LLC WRITEBACK ACCESS:     671345  HIT:     665095  MISS:       6250
Heartbeat CPU 0 instructions: 60000002 cycles: 105008552 heartbeat IPC: 0.115252 cumulative IPC: 0.114266 (Simulation time: 0 hr 58 min 11 sec) 

Region of Interest Statistics
cpu0_DTLB TOTAL     ACCESS:    5882950  HIT:    5594416  MISS:     288534
cpu0_DTLB LOAD      ACCESS:    2824034  HIT:    2757651  MISS:      66383
cpu0_DTLB RFO       ACCESS:    3058916  HIT:    2836765  MISS:     222151
cpu0_DTLB PREFETCH  ACCESS:          0  HIT:          0  MISS:          0
cpu0_DTLB WRITEBACK ACCESS:          0  HIT:          0  MISS:          0
cpu0_ITLB TOTAL     ACCESS:    1004418  HIT:    1004418  MISS:          0
cpu0_ITLB LOAD      ACCESS:    1004418  HIT:    1004418  MISS:          0
cpu0_ITLB RFO       ACCESS:          0  HIT:          0  MISS:          0
cpu0_ITLB PREFETCH  ACCESS:          0  HIT:          0  MISS:          0
cpu0_ITLB WRITEBACK ACCESS:          0  HIT:          0  MISS:          0
cpu0_L1I TOTAL     ACCESS:     141994  HIT:     141994  MISS:          0
cpu0_L1I LOAD      ACCESS:     141994  HIT:     141994  MISS:          0
cpu0_L1I RFO       ACCESS:          0  HIT:          0  MISS:          0
cpu0_L1I PREFETCH  ACCESS:          0  HIT:          0  MISS:          0
cpu0_L1I WRITEBACK ACCESS:          0  HIT:          0  MISS:          0
cpu0_STLB TOTAL     ACCESS:     288534  HIT:      49518  MISS:     239016
cpu0_STLB LOAD      ACCESS:      66383  HIT:      48617  MISS:      17766
cpu0_STLB RFO       ACCESS:     222151  HIT:        901  MISS:     221250
cpu0_STLB PREFETCH  ACCESS:          0  HIT:          0  MISS:          0
cpu0_STLB WRITEBACK ACCESS:          0  HIT:          0  MISS:          0
cpu0_L1D TOTAL     ACCESS:    5260462  HIT:    4344792  MISS:     915670
cpu0_L1D LOAD      ACCESS:    3052945  HIT:    2589855  MISS:     463090
cpu0_L1D RFO       ACCESS:    1968650  HIT:    1531507  MISS:     437143
cpu0_L1D PREFETCH  ACCESS:          0  HIT:          0  MISS:          0
cpu0_L1D WRITEBACK ACCESS:          0  HIT:          0  MISS:          0
cpu0_L2C TOTAL     ACCESS:    1815926  HIT:     976832  MISS:     839094
cpu0_L2C LOAD      ACCESS:     463083  HIT:      62381  MISS:     400702
cpu0_L2C RFO       ACCESS:     437143  HIT:         70  MISS:     437073
cpu0_L2C PREFETCH  ACCESS:          0  HIT:          0  MISS:          0
cpu0_L2C WRITEBACK ACCESS:     900263  HIT:     900042  MISS:        221
LLC TOTAL     ACCESS:    1676683  HIT:     880468  MISS:     796215
LLC LOAD      ACCESS:     400687  HIT:      49835  MISS:     350852
LLC RFO       ACCESS:     437073  HIT:        833  MISS:     436240
LLC PREFETCH  ACCESS:          0  HIT:          0  MISS:          0
LLC WRITEBACK ACCESS:     837825  HIT:     829579  MISS:       8246
Heartbeat CPU 0 instructions: 62000001 cycles: 122209453 heartbeat IPC: 0.116273 cumulative IPC: 0.114596 (Simulation time: 1 hr 3 min 49 sec) 

Region of Interest Statistics
cpu0_DTLB TOTAL     ACCESS:    7057230  HIT:    6710601  MISS:     346629
cpu0_DTLB LOAD      ACCESS:    3387695  HIT:    3307634  MISS:      80061
cpu0_DTLB RFO       ACCESS:    3669535  HIT:    3402967  MISS:     266568
cpu0_DTLB PREFETCH  ACCESS:          0  HIT:          0  MISS:          0
cpu0_DTLB WRITEBACK ACCESS:          0  HIT:          0  MISS:          0
cpu0_ITLB TOTAL     ACCESS:    1200171  HIT:    1200171  MISS:          0
cpu0_ITLB LOAD      ACCESS:    1200171  HIT:    1200171  MISS:          0
cpu0_ITLB RFO       ACCESS:          0  HIT:          0  MISS:          0
cpu0_ITLB PREFETCH  ACCESS:          0  HIT:          0  MISS:          0
cpu0_ITLB WRITEBACK ACCESS:          0  HIT:          0  MISS:          0
cpu0_L1I TOTAL     ACCESS:     178135  HIT:     178135  MISS:          0
cpu0_L1I LOAD      ACCESS:     178135  HIT:     178135  MISS:          0
cpu0_L1I RFO       ACCESS:          0  HIT:          0  MISS:          0
cpu0_L1I PREFETCH  ACCESS:          0  HIT:          0  MISS:          0
cpu0_L1I WRITEBACK ACCESS:          0  HIT:          0  MISS:          0
cpu0_STLB TOTAL     ACCESS:     346629  HIT:      60001  MISS:     286628
cpu0_STLB LOAD      ACCESS:      80061  HIT:      58761  MISS:      21300
cpu0_STLB RFO       ACCESS:     266568  HIT:       1240  MISS:     265328
cpu0_STLB PREFETCH  ACCESS:          0  HIT:          0  MISS:          0
cpu0_STLB WRITEBACK ACCESS:          0  HIT:          0  MISS:          0
cpu0_L1D TOTAL     ACCESS:    6307401  HIT:    5208835  MISS:    1098566
cpu0_L1D LOAD      ACCESS:    3659507  HIT:    3103948  MISS:     555559
cpu0_L1D RFO       ACCESS:    2361439  HIT:    1837027  MISS:     524412
cpu0_L1D PREFETCH  ACCESS:          0  HIT:          0  MISS:          0
cpu0_L1D WRITEBACK ACCESS:          0  HIT:          0  MISS:          0
cpu0_L2C TOTAL     ACCESS:    2178539  HIT:    1172673  MISS:    1005866
cpu0_L2C LOAD      ACCESS:     555551  HIT:      75611  MISS:     479940
cpu0_L2C RFO       ACCESS:     524412  HIT:         70  MISS:     524342
cpu0_L2C PREFETCH  ACCESS:          0  HIT:          0  MISS:          0
cpu0_L2C WRITEBACK ACCESS:    1079981  HIT:    1079708  MISS:        273
LLC TOTAL     ACCESS:    2009918  HIT:    1055379  MISS:     954539
LLC LOAD      ACCESS:     479924  HIT:      59726  MISS:     420198
LLC RFO       ACCESS:     524342  HIT:        838  MISS:     523504
LLC PREFETCH  ACCESS:          0  HIT:          0  MISS:          0
LLC WRITEBACK ACCESS:    1004341  HIT:     994550  MISS:       9791
Heartbeat CPU 0 instructions: 64000000 cycles: 139799293 heartbeat IPC: 0.113702 cumulative IPC: 0.114467 (Simulation time: 1 hr 9 min 17 sec) 

Region of Interest Statistics
cpu0_DTLB TOTAL     ACCESS:    8238219  HIT:    7833692  MISS:     404527
cpu0_DTLB LOAD      ACCESS:    3954764  HIT:    3861487  MISS:      93277
cpu0_DTLB RFO       ACCESS:    4283455  HIT:    3972205  MISS:     311250
cpu0_DTLB PREFETCH  ACCESS:          0  HIT:          0  MISS:          0
cpu0_DTLB WRITEBACK ACCESS:          0  HIT:          0  MISS:          0
cpu0_ITLB TOTAL     ACCESS:    1402731  HIT:    1402731  MISS:          0
cpu0_ITLB LOAD      ACCESS:    1402731  HIT:    1402731  MISS:          0
cpu0_ITLB RFO       ACCESS:          0  HIT:          0  MISS:          0
cpu0_ITLB PREFETCH  ACCESS:          0  HIT:          0  MISS:          0
cpu0_ITLB WRITEBACK ACCESS:          0  HIT:          0  MISS:          0
cpu0_L1I TOTAL     ACCESS:     205111  HIT:     205111  MISS:          0
cpu0_L1I LOAD      ACCESS:     205111  HIT:     205111  MISS:          0
cpu0_L1I RFO       ACCESS:          0  HIT:          0  MISS:          0
cpu0_L1I PREFETCH  ACCESS:          0  HIT:          0  MISS:          0
cpu0_L1I WRITEBACK ACCESS:          0  HIT:          0  MISS:          0
cpu0_STLB TOTAL     ACCESS:     404527  HIT:      69822  MISS:     334705
cpu0_STLB LOAD      ACCESS:      93277  HIT:      68349  MISS:      24928
cpu0_STLB RFO       ACCESS:     311250  HIT:       1473  MISS:     309777
cpu0_STLB PREFETCH  ACCESS:          0  HIT:          0  MISS:          0
cpu0_STLB WRITEBACK ACCESS:          0  HIT:          0  MISS:          0
cpu0_L1D TOTAL     ACCESS:    7364299  HIT:    6081808  MISS:    1282491
cpu0_L1D LOAD      ACCESS:    4273412  HIT:    3624773  MISS:     648639
cpu0_L1D RFO       ACCESS:    2756382  HIT:    2144237  MISS:     612145
cpu0_L1D PREFETCH  ACCESS:          0  HIT:          0  MISS:          0
cpu0_L1D WRITEBACK ACCESS:          0  HIT:          0  MISS:          0
cpu0_L2C TOTAL     ACCESS:    2543271  HIT:    1369898  MISS:    1173373
cpu0_L2C LOAD      ACCESS:     648626  HIT:      89176  MISS:     559450
cpu0_L2C RFO       ACCESS:     612145  HIT:         72  MISS:     612073
cpu0_L2C PREFETCH  ACCESS:          0  HIT:          0  MISS:          0
cpu0_L2C WRITEBACK ACCESS:    1260793  HIT:    1260471  MISS:        322
LLC TOTAL     ACCESS:    2344625  HIT:    1230450  MISS:    1114175
LLC LOAD      ACCESS:     559433  HIT:      69253  MISS:     490180
LLC RFO       ACCESS:     612073  HIT:        907  MISS:     611166
LLC PREFETCH  ACCESS:          0  HIT:          0  MISS:          0
LLC WRITEBACK ACCESS:    1171591  HIT:    1159985  MISS:      11606
Heartbeat CPU 0 instructions: 66000002 cycles: 157106740 heartbeat IPC: 0.115557 cumulative IPC: 0.114602 (Simulation time: 1 hr 14 min 42 sec) 

Region of Interest Statistics
cpu0_DTLB TOTAL     ACCESS:    9414152  HIT:    8952265  MISS:     461887
cpu0_DTLB LOAD      ACCESS:    4518863  HIT:    4412587  MISS:     106276
cpu0_DTLB RFO       ACCESS:    4895289  HIT:    4539678  MISS:     355611
cpu0_DTLB PREFETCH  ACCESS:          0  HIT:          0  MISS:          0
cpu0_DTLB WRITEBACK ACCESS:          0  HIT:          0  MISS:          0
cpu0_ITLB TOTAL     ACCESS:    1602848  HIT:    1602848  MISS:          0
cpu0_ITLB LOAD      ACCESS:    1602848  HIT:    1602848  MISS:          0
cpu0_ITLB RFO       ACCESS:          0  HIT:          0  MISS:          0
cpu0_ITLB PREFETCH  ACCESS:          0  HIT:          0  MISS:          0
cpu0_ITLB WRITEBACK ACCESS:          0  HIT:          0  MISS:          0
cpu0_L1I TOTAL     ACCESS:     234790  HIT:     234790  MISS:          0
cpu0_L1I LOAD      ACCESS:     234790  HIT:     234790  MISS:          0
cpu0_L1I RFO       ACCESS:          0  HIT:          0  MISS:          0
cpu0_L1I PREFETCH  ACCESS:          0  HIT:          0  MISS:          0
cpu0_L1I WRITEBACK ACCESS:          0  HIT:          0  MISS:          0
cpu0_STLB TOTAL     ACCESS:     461887  HIT:      79404  MISS:     382483
cpu0_STLB LOAD      ACCESS:     106276  HIT:      77734  MISS:      28542
cpu0_STLB RFO       ACCESS:     355611  HIT:       1670  MISS:     353941
cpu0_STLB PREFETCH  ACCESS:          0  HIT:          0  MISS:          0
cpu0_STLB WRITEBACK ACCESS:          0  HIT:          0  MISS:          0
cpu0_L1D TOTAL     ACCESS:    8414759  HIT:    6948925  MISS:    1465834
cpu0_L1D LOAD      ACCESS:    4882555  HIT:    4141251  MISS:     741304
cpu0_L1D RFO       ACCESS:    3149950  HIT:    2450368  MISS:     699582
cpu0_L1D PREFETCH  ACCESS:          0  HIT:          0  MISS:          0
cpu0_L1D WRITEBACK ACCESS:          0  HIT:          0  MISS:          0
cpu0_L2C TOTAL     ACCESS:    2906709  HIT:    1566903  MISS:    1339806
cpu0_L2C LOAD      ACCESS:     741290  HIT:     103101  MISS:     638189
cpu0_L2C RFO       ACCESS:     699582  HIT:         72  MISS:     699510
cpu0_L2C PREFETCH  ACCESS:          0  HIT:          0  MISS:          0
cpu0_L2C WRITEBACK ACCESS:    1440889  HIT:    1440514  MISS:        375
LLC TOTAL     ACCESS:    2677187  HIT:    1404615  MISS:    1272572
LLC LOAD      ACCESS:     638171  HIT:      79289  MISS:     558882
LLC RFO       ACCESS:     699510  HIT:        931  MISS:     698579
LLC PREFETCH  ACCESS:          0  HIT:          0  MISS:          0
LLC WRITEBACK ACCESS:    1337774  HIT:    1324056  MISS:      13718
Heartbeat CPU 0 instructions: 68000004 cycles: 174841421 heartbeat IPC: 0.112774 cumulative IPC: 0.114396 (Simulation time: 1 hr 19 min 49 sec) 

Region of Interest Statistics
cpu0_DTLB TOTAL     ACCESS:   10593549  HIT:   10074355  MISS:     519194
cpu0_DTLB LOAD      ACCESS:    5085154  HIT:    4966027  MISS:     119127
cpu0_DTLB RFO       ACCESS:    5508395  HIT:    5108328  MISS:     400067
cpu0_DTLB PREFETCH  ACCESS:          0  HIT:          0  MISS:          0
cpu0_DTLB WRITEBACK ACCESS:          0  HIT:          0  MISS:          0
cpu0_ITLB TOTAL     ACCESS:    1807067  HIT:    1807067  MISS:          0
cpu0_ITLB LOAD      ACCESS:    1807067  HIT:    1807067  MISS:          0
cpu0_ITLB RFO       ACCESS:          0  HIT:          0  MISS:          0
cpu0_ITLB PREFETCH  ACCESS:          0  HIT:          0  MISS:          0
cpu0_ITLB WRITEBACK ACCESS:          0  HIT:          0  MISS:          0
cpu0_L1I TOTAL     ACCESS:     258368  HIT:     258368  MISS:          0
cpu0_L1I LOAD      ACCESS:     258368  HIT:     258368  MISS:          0
cpu0_L1I RFO       ACCESS:          0  HIT:          0  MISS:          0
cpu0_L1I PREFETCH  ACCESS:          0  HIT:          0  MISS:          0
cpu0_L1I WRITEBACK ACCESS:          0  HIT:          0  MISS:          0
cpu0_STLB TOTAL     ACCESS:     519194  HIT:      88500  MISS:     430694
cpu0_STLB LOAD      ACCESS:     119127  HIT:      86681  MISS:      32446
cpu0_STLB RFO       ACCESS:     400067  HIT:       1819  MISS:     398248
cpu0_STLB PREFETCH  ACCESS:          0  HIT:          0  MISS:          0
cpu0_STLB WRITEBACK ACCESS:          0  HIT:          0  MISS:          0
cpu0_L1D TOTAL     ACCESS:    9471208  HIT:    7821647  MISS:    1649561
cpu0_L1D LOAD      ACCESS:    5496459  HIT:    4662297  MISS:     834162
cpu0_L1D RFO       ACCESS:    3544299  HIT:    2757105  MISS:     787194
cpu0_L1D PREFETCH  ACCESS:          0  HIT:          0  MISS:          0
cpu0_L1D WRITEBACK ACCESS:          0  HIT:          0  MISS:          0
cpu0_L2C TOTAL     ACCESS:    3270912  HIT:    1761664  MISS:    1509248
cpu0_L2C LOAD      ACCESS:     834145  HIT:     114433  MISS:     719712
cpu0_L2C RFO       ACCESS:     787194  HIT:         72  MISS:     787122
cpu0_L2C PREFETCH  ACCESS:          0  HIT:          0  MISS:          0
cpu0_L2C WRITEBACK ACCESS:    1621368  HIT:    1620941  MISS:        427
LLC TOTAL     ACCESS:    3015721  HIT:    1582534  MISS:    1433187
LLC LOAD      ACCESS:     719691  HIT:      89308  MISS:     630383
LLC RFO       ACCESS:     787122  HIT:        945  MISS:     786177
LLC PREFETCH  ACCESS:          0  HIT:          0  MISS:          0
LLC WRITEBACK ACCESS:    1506921  HIT:    1491888  MISS:      15033
Heartbeat CPU 0 instructions: 70000004 cycles: 192252006 heartbeat IPC: 0.114873 cumulative IPC: 0.114444 (Simulation time: 1 hr 25 min 7 sec) 

Region of Interest Statistics
cpu0_DTLB TOTAL     ACCESS:   11768703  HIT:   11191337  MISS:     577366
cpu0_DTLB LOAD      ACCESS:    5649056  HIT:    5516183  MISS:     132873
cpu0_DTLB RFO       ACCESS:    6119647  HIT:    5675154  MISS:     444493
cpu0_DTLB PREFETCH  ACCESS:          0  HIT:          0  MISS:          0
cpu0_DTLB WRITEBACK ACCESS:          0  HIT:          0  MISS:          0
cpu0_ITLB TOTAL     ACCESS:    2002146  HIT:    2002146  MISS:          0
cpu0_ITLB LOAD      ACCESS:    2002146  HIT:    2002146  MISS:          0
cpu0_ITLB RFO       ACCESS:          0  HIT:          0  MISS:          0
cpu0_ITLB PREFETCH  ACCESS:          0  HIT:          0  MISS:          0
cpu0_ITLB WRITEBACK ACCESS:          0  HIT:          0  MISS:          0
cpu0_L1I TOTAL     ACCESS:     296001  HIT:     296001  MISS:          0
cpu0_L1I LOAD      ACCESS:     296001  HIT:     296001  MISS:          0
cpu0_L1I RFO       ACCESS:          0  HIT:          0  MISS:          0
cpu0_L1I PREFETCH  ACCESS:          0  HIT:          0  MISS:          0
cpu0_L1I WRITEBACK ACCESS:          0  HIT:          0  MISS:          0
cpu0_STLB TOTAL     ACCESS:     577366  HIT:      98826  MISS:     478540
cpu0_STLB LOAD      ACCESS:     132873  HIT:      96817  MISS:      36056
cpu0_STLB RFO       ACCESS:     444493  HIT:       2009  MISS:     442484
cpu0_STLB PREFETCH  ACCESS:          0  HIT:          0  MISS:          0
cpu0_STLB WRITEBACK ACCESS:          0  HIT:          0  MISS:          0
cpu0_L1D TOTAL     ACCESS:   10519059  HIT:    8686229  MISS:    1832830
cpu0_L1D LOAD      ACCESS:    6103156  HIT:    5176318  MISS:     926838
cpu0_L1D RFO       ACCESS:    3937642  HIT:    3063094  MISS:     874548
cpu0_L1D PREFETCH  ACCESS:          0  HIT:          0  MISS:          0
cpu0_L1D WRITEBACK ACCESS:          0  HIT:          0  MISS:          0
cpu0_L2C TOTAL     ACCESS:    3634225  HIT:    1957992  MISS:    1676233
cpu0_L2C LOAD      ACCESS:     926821  HIT:     127684  MISS:     799137
cpu0_L2C RFO       ACCESS:     874548  HIT:         97  MISS:     874451
cpu0_L2C PREFETCH  ACCESS:          0  HIT:          0  MISS:          0
cpu0_L2C WRITEBACK ACCESS:    1801412  HIT:    1800942  MISS:        470
LLC TOTAL     ACCESS:    3349416  HIT:    1757066  MISS:    1592350
LLC LOAD      ACCESS:     799109  HIT:      98692  MISS:     700417
LLC RFO       ACCESS:     874451  HIT:       1078  MISS:     873373
LLC PREFETCH  ACCESS:          0  HIT:          0  MISS:          0
LLC WRITEBACK ACCESS:    1673681  HIT:    1656868  MISS:      16813
Heartbeat CPU 0 instructions: 72000003 cycles: 209965916 heartbeat IPC: 0.112906 cumulative IPC: 0.114302 (Simulation time: 1 hr 30 min 5 sec) 

Region of Interest Statistics
cpu0_DTLB TOTAL     ACCESS:   12952292  HIT:   12316736  MISS:     635556
cpu0_DTLB LOAD      ACCESS:    6217823  HIT:    6071570  MISS:     146253
cpu0_DTLB RFO       ACCESS:    6734469  HIT:    6245166  MISS:     489303
cpu0_DTLB PREFETCH  ACCESS:          0  HIT:          0  MISS:          0
cpu0_DTLB WRITEBACK ACCESS:          0  HIT:          0  MISS:          0
cpu0_ITLB TOTAL     ACCESS:    2206953  HIT:    2206953  MISS:          0
cpu0_ITLB LOAD      ACCESS:    2206953  HIT:    2206953  MISS:          0
cpu0_ITLB RFO       ACCESS:          0  HIT:          0  MISS:          0
cpu0_ITLB PREFETCH  ACCESS:          0  HIT:          0  MISS:          0
cpu0_ITLB WRITEBACK ACCESS:          0  HIT:          0  MISS:          0
cpu0_L1I TOTAL     ACCESS:     319882  HIT:     319882  MISS:          0
cpu0_L1I LOAD      ACCESS:     319882  HIT:     319882  MISS:          0
cpu0_L1I RFO       ACCESS:          0  HIT:          0  MISS:          0
cpu0_L1I PREFETCH  ACCESS:          0  HIT:          0  MISS:          0
cpu0_L1I WRITEBACK ACCESS:          0  HIT:          0  MISS:          0
cpu0_STLB TOTAL     ACCESS:     635556  HIT:     108550  MISS:     527006
cpu0_STLB LOAD      ACCESS:     146253  HIT:     106398  MISS:      39855
cpu0_STLB RFO       ACCESS:     489303  HIT:       2152  MISS:     487151
cpu0_STLB PREFETCH  ACCESS:          0  HIT:          0  MISS:          0
cpu0_STLB WRITEBACK ACCESS:          0  HIT:          0  MISS:          0
cpu0_L1D TOTAL     ACCESS:   11579545  HIT:    9562507  MISS:    2017038
cpu0_L1D LOAD      ACCESS:    6719725  HIT:    5699771  MISS:    1019954
cpu0_L1D RFO       ACCESS:    4333130  HIT:    3370720  MISS:     962410
cpu0_L1D PREFETCH  ACCESS:          0  HIT:          0  MISS:          0
cpu0_L1D WRITEBACK ACCESS:          0  HIT:          0  MISS:          0
cpu0_L2C TOTAL     ACCESS:    3999408  HIT:    2153924  MISS:    1845484
cpu0_L2C LOAD      ACCESS:    1019935  HIT:     139675  MISS:     880260
cpu0_L2C RFO       ACCESS:     962410  HIT:         97  MISS:     962313
cpu0_L2C PREFETCH  ACCESS:          0  HIT:          0  MISS:          0
cpu0_L2C WRITEBACK ACCESS:    1982389  HIT:    1981870  MISS:        519
LLC TOTAL     ACCESS:    3687609  HIT:    1935202  MISS:    1752407
LLC LOAD      ACCESS:     880230  HIT:     109427  MISS:     770803
LLC RFO       ACCESS:     962313  HIT:       1078  MISS:     961235
LLC PREFETCH  ACCESS:          0  HIT:          0  MISS:          0
LLC WRITEBACK ACCESS:    1842674  HIT:    1824229  MISS:      18445
Heartbeat CPU 0 instructions: 74000001 cycles: 227470164 heartbeat IPC: 0.114258 cumulative IPC: 0.114298 (Simulation time: 1 hr 35 min 35 sec) 

Region of Interest Statistics
cpu0_DTLB TOTAL     ACCESS:   14123910  HIT:   13429843  MISS:     694067
cpu0_DTLB LOAD      ACCESS:    6779335  HIT:    6619018  MISS:     160317
cpu0_DTLB RFO       ACCESS:    7344575  HIT:    6810825  MISS:     533750
cpu0_DTLB PREFETCH  ACCESS:          0  HIT:          0  MISS:          0
cpu0_DTLB WRITEBACK ACCESS:          0  HIT:          0  MISS:          0
cpu0_ITLB TOTAL     ACCESS:    2403158  HIT:    2403158  MISS:          0
cpu0_ITLB LOAD      ACCESS:    2403158  HIT:    2403158  MISS:          0
cpu0_ITLB RFO       ACCESS:          0  HIT:          0  MISS:          0
cpu0_ITLB PREFETCH  ACCESS:          0  HIT:          0  MISS:          0
cpu0_ITLB WRITEBACK ACCESS:          0  HIT:          0  MISS:          0
cpu0_L1I TOTAL     ACCESS:     354832  HIT:     354832  MISS:          0
cpu0_L1I LOAD      ACCESS:     354832  HIT:     354832  MISS:          0
cpu0_L1I RFO       ACCESS:          0  HIT:          0  MISS:          0
cpu0_L1I PREFETCH  ACCESS:          0  HIT:          0  MISS:          0
cpu0_L1I WRITEBACK ACCESS:          0  HIT:          0  MISS:          0
cpu0_STLB TOTAL     ACCESS:     694067  HIT:     118977  MISS:     575090
cpu0_STLB LOAD      ACCESS:     160317  HIT:     116572  MISS:      43745
cpu0_STLB RFO       ACCESS:     533750  HIT:       2405  MISS:     531345
cpu0_STLB PREFETCH  ACCESS:          0  HIT:          0  MISS:          0
cpu0_STLB WRITEBACK ACCESS:          0  HIT:          0  MISS:          0
cpu0_L1D TOTAL     ACCESS:   12624149  HIT:   10424011  MISS:    2200138
cpu0_L1D LOAD      ACCESS:    7323855  HIT:    6211239  MISS:    1112616
cpu0_L1D RFO       ACCESS:    4725553  HIT:    3675947  MISS:    1049606
cpu0_L1D PREFETCH  ACCESS:          0  HIT:          0  MISS:          0
cpu0_L1D WRITEBACK ACCESS:          0  HIT:          0  MISS:          0
cpu0_L2C TOTAL     ACCESS:    4362352  HIT:    2348569  MISS:    2013783
cpu0_L2C LOAD      ACCESS:    1112596  HIT:     151513  MISS:     961083
cpu0_L2C RFO       ACCESS:    1049606  HIT:         97  MISS:    1049509
cpu0_L2C PREFETCH  ACCESS:          0  HIT:          0  MISS:          0
cpu0_L2C WRITEBACK ACCESS:    2162234  HIT:    2161658  MISS:        576
LLC TOTAL     ACCESS:    4023878  HIT:    2111168  MISS:    1912710
LLC LOAD      ACCESS:     961051  HIT:     118768  MISS:     842283
LLC RFO       ACCESS:    1049509  HIT:       1078  MISS:    1048431
LLC PREFETCH  ACCESS:          0  HIT:          0  MISS:          0
LLC WRITEBACK ACCESS:    2010703  HIT:    1990814  MISS:      19889
Heartbeat CPU 0 instructions: 76000000 cycles: 245210966 heartbeat IPC: 0.112734 cumulative IPC: 0.114177 (Simulation time: 1 hr 40 min 54 sec) 

Region of Interest Statistics
cpu0_DTLB TOTAL     ACCESS:   15302112  HIT:   14550329  MISS:     751783
cpu0_DTLB LOAD      ACCESS:    7345351  HIT:    7171751  MISS:     173600
cpu0_DTLB RFO       ACCESS:    7956761  HIT:    7378578  MISS:     578183
cpu0_DTLB PREFETCH  ACCESS:          0  HIT:          0  MISS:          0
cpu0_DTLB WRITEBACK ACCESS:          0  HIT:          0  MISS:          0
cpu0_ITLB TOTAL     ACCESS:    2602174  HIT:    2602174  MISS:          0
cpu0_ITLB LOAD      ACCESS:    2602174  HIT:    2602174  MISS:          0
cpu0_ITLB RFO       ACCESS:          0  HIT:          0  MISS:          0
cpu0_ITLB PREFETCH  ACCESS:          0  HIT:          0  MISS:          0
cpu0_ITLB WRITEBACK ACCESS:          0  HIT:          0  MISS:          0
cpu0_L1I TOTAL     ACCESS:     386692  HIT:     386692  MISS:          0
cpu0_L1I LOAD      ACCESS:     386692  HIT:     386692  MISS:          0
cpu0_L1I RFO       ACCESS:          0  HIT:          0  MISS:          0
cpu0_L1I PREFETCH  ACCESS:          0  HIT:          0  MISS:          0
cpu0_L1I WRITEBACK ACCESS:          0  HIT:          0  MISS:          0
cpu0_STLB TOTAL     ACCESS:     751783  HIT:     128349  MISS:     623434
cpu0_STLB LOAD      ACCESS:     173600  HIT:     125753  MISS:      47847
cpu0_STLB RFO       ACCESS:     578183  HIT:       2596  MISS:     575587
cpu0_STLB PREFETCH  ACCESS:          0  HIT:          0  MISS:          0
cpu0_STLB WRITEBACK ACCESS:          0  HIT:          0  MISS:          0
cpu0_L1D TOTAL     ACCESS:   13677672  HIT:   11294163  MISS:    2383509
cpu0_L1D LOAD      ACCESS:    7935299  HIT:    6730100  MISS:    1205199
cpu0_L1D RFO       ACCESS:    5119329  HIT:    3982233  MISS:    1137096
cpu0_L1D PREFETCH  ACCESS:          0  HIT:          0  MISS:          0
cpu0_L1D WRITEBACK ACCESS:          0  HIT:          0  MISS:          0
cpu0_L2C TOTAL     ACCESS:    4725812  HIT:    2541973  MISS:    2183839
cpu0_L2C LOAD      ACCESS:    1205176  HIT:     161786  MISS:    1043390
cpu0_L2C RFO       ACCESS:    1137096  HIT:         97  MISS:    1136999
cpu0_L2C PREFETCH  ACCESS:          0  HIT:          0  MISS:          0
cpu0_L2C WRITEBACK ACCESS:    2342326  HIT:    2341688  MISS:        638
LLC TOTAL     ACCESS:    4363687  HIT:    2290118  MISS:    2073569
LLC LOAD      ACCESS:    1043358  HIT:     129109  MISS:     914249
LLC RFO       ACCESS:    1136999  HIT:       1078  MISS:    1135921
LLC PREFETCH  ACCESS:          0  HIT:          0  MISS:          0
LLC WRITEBACK ACCESS:    2180518  HIT:    2159385  MISS:      21133
Heartbeat CPU 0 instructions: 78000002 cycles: 262567242 heartbeat IPC: 0.115232 cumulative IPC: 0.114251 (Simulation time: 1 hr 46 min 23 sec) 

Region of Interest Statistics
cpu0_DTLB TOTAL     ACCESS:   16477635  HIT:   15667525  MISS:     810110
cpu0_DTLB LOAD      ACCESS:    7908995  HIT:    7721433  MISS:     187562
cpu0_DTLB RFO       ACCESS:    8568640  HIT:    7946092  MISS:     622548
cpu0_DTLB PREFETCH  ACCESS:          0  HIT:          0  MISS:          0
cpu0_DTLB WRITEBACK ACCESS:          0  HIT:          0  MISS:          0
cpu0_ITLB TOTAL     ACCESS:    2796890  HIT:    2796890  MISS:          0
cpu0_ITLB LOAD      ACCESS:    2796890  HIT:    2796890  MISS:          0
cpu0_ITLB RFO       ACCESS:          0  HIT:          0  MISS:          0
cpu0_ITLB PREFETCH  ACCESS:          0  HIT:          0  MISS:          0
cpu0_ITLB WRITEBACK ACCESS:          0  HIT:          0  MISS:          0
cpu0_L1I TOTAL     ACCESS:     425295  HIT:     425295  MISS:          0
cpu0_L1I LOAD      ACCESS:     425295  HIT:     425295  MISS:          0
cpu0_L1I RFO       ACCESS:          0  HIT:          0  MISS:          0
cpu0_L1I PREFETCH  ACCESS:          0  HIT:          0  MISS:          0
cpu0_L1I WRITEBACK ACCESS:          0  HIT:          0  MISS:          0
cpu0_STLB TOTAL     ACCESS:     810110  HIT:     138623  MISS:     671487
cpu0_STLB LOAD      ACCESS:     187562  HIT:     135773  MISS:      51789
cpu0_STLB RFO       ACCESS:     622548  HIT:       2850  MISS:     619698
cpu0_STLB PREFETCH  ACCESS:          0  HIT:          0  MISS:          0
cpu0_STLB WRITEBACK ACCESS:          0  HIT:          0  MISS:          0
cpu0_L1D TOTAL     ACCESS:   14725305  HIT:   12158345  MISS:    2566960
cpu0_L1D LOAD      ACCESS:    8541372  HIT:    7243341  MISS:    1298031
cpu0_L1D RFO       ACCESS:    5512863  HIT:    4288335  MISS:    1224528
cpu0_L1D PREFETCH  ACCESS:          0  HIT:          0  MISS:          0
cpu0_L1D WRITEBACK ACCESS:          0  HIT:          0  MISS:          0
cpu0_L2C TOTAL     ACCESS:    5089521  HIT:    2737312  MISS:    2352209
cpu0_L2C LOAD      ACCESS:    1298008  HIT:     173939  MISS:    1124069
cpu0_L2C RFO       ACCESS:    1224528  HIT:         97  MISS:    1224431
cpu0_L2C PREFETCH  ACCESS:          0  HIT:          0  MISS:          0
cpu0_L2C WRITEBACK ACCESS:    2522584  HIT:    2521901  MISS:        683
LLC TOTAL     ACCESS:    4700131  HIT:    2467597  MISS:    2232534
LLC LOAD      ACCESS:    1124036  HIT:     140057  MISS:     983979
LLC RFO       ACCESS:    1224431  HIT:       1095  MISS:    1223336
LLC PREFETCH  ACCESS:          0  HIT:          0  MISS:          0
LLC WRITEBACK ACCESS:    2348638  HIT:    2325848  MISS:      22790
Heartbeat CPU 0 instructions: 80000000 cycles: 280286534 heartbeat IPC: 0.112871 cumulative IPC: 0.114158 (Simulation time: 1 hr 51 min 22 sec) 

Region of Interest Statistics
cpu0_DTLB TOTAL     ACCESS:   17656191  HIT:   16788401  MISS:     867790
cpu0_DTLB LOAD      ACCESS:    8475036  HIT:    8274304  MISS:     200732
cpu0_DTLB RFO       ACCESS:    9181155  HIT:    8514097  MISS:     667058
cpu0_DTLB PREFETCH  ACCESS:          0  HIT:          0  MISS:          0
cpu0_DTLB WRITEBACK ACCESS:          0  HIT:          0  MISS:          0
cpu0_ITLB TOTAL     ACCESS:    3001283  HIT:    3001283  MISS:          0
cpu0_ITLB LOAD      ACCESS:    3001283  HIT:    3001283  MISS:          0
cpu0_ITLB RFO       ACCESS:          0  HIT:          0  MISS:          0
cpu0_ITLB PREFETCH  ACCESS:          0  HIT:          0  MISS:          0
cpu0_ITLB WRITEBACK ACCESS:          0  HIT:          0  MISS:          0
cpu0_L1I TOTAL     ACCESS:     448339  HIT:     448339  MISS:          0
cpu0_L1I LOAD      ACCESS:     448339  HIT:     448339  MISS:          0
cpu0_L1I RFO       ACCESS:          0  HIT:          0  MISS:          0
cpu0_L1I PREFETCH  ACCESS:          0  HIT:          0  MISS:          0
cpu0_L1I WRITEBACK ACCESS:          0  HIT:          0  MISS:          0
cpu0_STLB TOTAL     ACCESS:     867790  HIT:     147738  MISS:     720052
cpu0_STLB LOAD      ACCESS:     200732  HIT:     144646  MISS:      56086
cpu0_STLB RFO       ACCESS:     667058  HIT:       3092  MISS:     663966
cpu0_STLB PREFETCH  ACCESS:          0  HIT:          0  MISS:          0
cpu0_STLB WRITEBACK ACCESS:          0  HIT:          0  MISS:          0
cpu0_L1D TOTAL     ACCESS:   15781928  HIT:   13031557  MISS:    2750371
cpu0_L1D LOAD      ACCESS:    9155441  HIT:    7764707  MISS:    1390734
cpu0_L1D RFO       ACCESS:    5906877  HIT:    4594809  MISS:    1312068
cpu0_L1D PREFETCH  ACCESS:          0  HIT:          0  MISS:          0
cpu0_L1D WRITEBACK ACCESS:          0  HIT:          0  MISS:          0
cpu0_L2C TOTAL     ACCESS:    5453168  HIT:    2931621  MISS:    2521547
cpu0_L2C LOAD      ACCESS:    1390709  HIT:     185093  MISS:    1205616
cpu0_L2C RFO       ACCESS:    1312068  HIT:         98  MISS:    1311970
cpu0_L2C PREFETCH  ACCESS:          0  HIT:          0  MISS:          0
cpu0_L2C WRITEBACK ACCESS:    2702822  HIT:    2702086  MISS:        736
LLC TOTAL     ACCESS:    5038512  HIT:    2645637  MISS:    2392875
LLC LOAD      ACCESS:    1205580  HIT:     150391  MISS:    1055189
LLC RFO       ACCESS:    1311970  HIT:       1116  MISS:    1310854
LLC PREFETCH  ACCESS:          0  HIT:          0  MISS:          0
LLC WRITEBACK ACCESS:    2517737  HIT:    2493496  MISS:      24241
Heartbeat CPU 0 instructions: 82000001 cycles: 297681755 heartbeat IPC: 0.114974 cumulative IPC: 0.114209 (Simulation time: 1 hr 56 min 38 sec) 

Region of Interest Statistics
cpu0_DTLB TOTAL     ACCESS:   18828220  HIT:   17902147  MISS:     926073
cpu0_DTLB LOAD      ACCESS:    9036886  HIT:    8822174  MISS:     214712
cpu0_DTLB RFO       ACCESS:    9791334  HIT:    9079973  MISS:     711361
cpu0_DTLB PREFETCH  ACCESS:          0  HIT:          0  MISS:          0
cpu0_DTLB WRITEBACK ACCESS:          0  HIT:          0  MISS:          0
cpu0_ITLB TOTAL     ACCESS:    3198681  HIT:    3198681  MISS:          0
cpu0_ITLB LOAD      ACCESS:    3198681  HIT:    3198681  MISS:          0
cpu0_ITLB RFO       ACCESS:          0  HIT:          0  MISS:          0
cpu0_ITLB PREFETCH  ACCESS:          0  HIT:          0  MISS:          0
cpu0_ITLB WRITEBACK ACCESS:          0  HIT:          0  MISS:          0
cpu0_L1I TOTAL     ACCESS:     481479  HIT:     481479  MISS:          0
cpu0_L1I LOAD      ACCESS:     481479  HIT:     481479  MISS:          0
cpu0_L1I RFO       ACCESS:          0  HIT:          0  MISS:          0
cpu0_L1I PREFETCH  ACCESS:          0  HIT:          0  MISS:          0
cpu0_L1I WRITEBACK ACCESS:          0  HIT:          0  MISS:          0
cpu0_STLB TOTAL     ACCESS:     926073  HIT:     157955  MISS:     768118
cpu0_STLB LOAD      ACCESS:     214712  HIT:     154652  MISS:      60060
cpu0_STLB RFO       ACCESS:     711361  HIT:       3303  MISS:     708058
cpu0_STLB PREFETCH  ACCESS:          0  HIT:          0  MISS:          0
cpu0_STLB WRITEBACK ACCESS:          0  HIT:          0  MISS:          0
cpu0_L1D TOTAL     ACCESS:   16828193  HIT:   13894954  MISS:    2933239
cpu0_L1D LOAD      ACCESS:    9760987  HIT:    8277732  MISS:    1483255
cpu0_L1D RFO       ACCESS:    6299559  HIT:    4900294  MISS:    1399265
cpu0_L1D PREFETCH  ACCESS:          0  HIT:          0  MISS:          0
cpu0_L1D WRITEBACK ACCESS:          0  HIT:          0  MISS:          0
cpu0_L2C TOTAL     ACCESS:    5815754  HIT:    3126634  MISS:    2689120
cpu0_L2C LOAD      ACCESS:    1483230  HIT:     197479  MISS:    1285751
cpu0_L2C RFO       ACCESS:    1399265  HIT:        117  MISS:    1399148
cpu0_L2C PREFETCH  ACCESS:          0  HIT:          0  MISS:          0
cpu0_L2C WRITEBACK ACCESS:    2882540  HIT:    2881763  MISS:        777
LLC TOTAL     ACCESS:    5373369  HIT:    2820816  MISS:    2552553
LLC LOAD      ACCESS:    1285715  HIT:     159720  MISS:    1125995
LLC RFO       ACCESS:    1399148  HIT:       1279  MISS:    1397869
LLC PREFETCH  ACCESS:          0  HIT:          0  MISS:          0
LLC WRITEBACK ACCESS:    2685062  HIT:    2659142  MISS:      25920
Heartbeat CPU 0 instructions: 84000001 cycles: 315308968 heartbeat IPC: 0.113461 cumulative IPC: 0.114165 (Simulation time: 2 hr 1 min 51 sec) 

Region of Interest Statistics
cpu0_DTLB TOTAL     ACCESS:   20005837  HIT:   19020486  MISS:     985351
cpu0_DTLB LOAD      ACCESS:    9602032  HIT:    9372633  MISS:     229399
cpu0_DTLB RFO       ACCESS:   10403805  HIT:    9647853  MISS:     755952
cpu0_DTLB PREFETCH  ACCESS:          0  HIT:          0  MISS:          0
cpu0_DTLB WRITEBACK ACCESS:          0  HIT:          0  MISS:          0
cpu0_ITLB TOTAL     ACCESS:    3399072  HIT:    3399072  MISS:          0
cpu0_ITLB LOAD      ACCESS:    3399072  HIT:    3399072  MISS:          0
cpu0_ITLB RFO       ACCESS:          0  HIT:          0  MISS:          0
cpu0_ITLB PREFETCH  ACCESS:          0  HIT:          0  MISS:          0
cpu0_ITLB WRITEBACK ACCESS:          0  HIT:          0  MISS:          0
cpu0_L1I TOTAL     ACCESS:     511057  HIT:     511057  MISS:          0
cpu0_L1I LOAD      ACCESS:     511057  HIT:     511057  MISS:          0
cpu0_L1I RFO       ACCESS:          0  HIT:          0  MISS:          0
cpu0_L1I PREFETCH  ACCESS:          0  HIT:          0  MISS:          0
cpu0_L1I WRITEBACK ACCESS:          0  HIT:          0  MISS:          0
cpu0_STLB TOTAL     ACCESS:     985351  HIT:     168923  MISS:     816428
cpu0_STLB LOAD      ACCESS:     229399  HIT:     165248  MISS:      64151
cpu0_STLB RFO       ACCESS:     755952  HIT:       3675  MISS:     752277
cpu0_STLB PREFETCH  ACCESS:          0  HIT:          0  MISS:          0
cpu0_STLB WRITEBACK ACCESS:          0  HIT:          0  MISS:          0
cpu0_L1D TOTAL     ACCESS:   17881348  HIT:   14764615  MISS:    3116733
cpu0_L1D LOAD      ACCESS:   10371889  HIT:    8795937  MISS:    1575952
cpu0_L1D RFO       ACCESS:    6693532  HIT:    5206742  MISS:    1486790
cpu0_L1D PREFETCH  ACCESS:          0  HIT:          0  MISS:          0
cpu0_L1D WRITEBACK ACCESS:          0  HIT:          0  MISS:          0
cpu0_L2C TOTAL     ACCESS:    6179479  HIT:    3321817  MISS:    2857662
cpu0_L2C LOAD      ACCESS:    1575927  HIT:     209422  MISS:    1366505
cpu0_L2C RFO       ACCESS:    1486790  HIT:        117  MISS:    1486673
cpu0_L2C PREFETCH  ACCESS:          0  HIT:          0  MISS:          0
cpu0_L2C WRITEBACK ACCESS:    3062771  HIT:    3061941  MISS:        830
LLC TOTAL     ACCESS:    5710147  HIT:    2997101  MISS:    2713046
LLC LOAD      ACCESS:    1366467  HIT:     169148  MISS:    1197319
LLC RFO       ACCESS:    1486673  HIT:       1304  MISS:    1485369
LLC PREFETCH  ACCESS:          0  HIT:          0  MISS:          0
LLC WRITEBACK ACCESS:    2853353  HIT:    2825928  MISS:      27425
Heartbeat CPU 0 instructions: 86000004 cycles: 333155583 heartbeat IPC: 0.112066 cumulative IPC: 0.114046 (Simulation time: 2 hr 7 min 20 sec) 

Region of Interest Statistics
cpu0_DTLB TOTAL     ACCESS:   21181848  HIT:   20137260  MISS:    1044588
cpu0_DTLB LOAD      ACCESS:   10166607  HIT:    9922595  MISS:     244012
cpu0_DTLB RFO       ACCESS:   11015241  HIT:   10214665  MISS:     800576
cpu0_DTLB PREFETCH  ACCESS:          0  HIT:          0  MISS:          0
cpu0_DTLB WRITEBACK ACCESS:          0  HIT:          0  MISS:          0
cpu0_ITLB TOTAL     ACCESS:    3596345  HIT:    3596345  MISS:          0
cpu0_ITLB LOAD      ACCESS:    3596345  HIT:    3596345  MISS:          0
cpu0_ITLB RFO       ACCESS:          0  HIT:          0  MISS:          0
cpu0_ITLB PREFETCH  ACCESS:          0  HIT:          0  MISS:          0
cpu0_ITLB WRITEBACK ACCESS:          0  HIT:          0  MISS:          0
cpu0_L1I TOTAL     ACCESS:     545240  HIT:     545240  MISS:          0
cpu0_L1I LOAD      ACCESS:     545240  HIT:     545240  MISS:          0
cpu0_L1I RFO       ACCESS:          0  HIT:          0  MISS:          0
cpu0_L1I PREFETCH  ACCESS:          0  HIT:          0  MISS:          0
cpu0_L1I WRITEBACK ACCESS:          0  HIT:          0  MISS:          0
cpu0_STLB TOTAL     ACCESS:    1044588  HIT:     179912  MISS:     864676
cpu0_STLB LOAD      ACCESS:     244012  HIT:     175629  MISS:      68383
cpu0_STLB RFO       ACCESS:     800576  HIT:       4283  MISS:     796293
cpu0_STLB PREFETCH  ACCESS:          0  HIT:          0  MISS:          0
cpu0_STLB WRITEBACK ACCESS:          0  HIT:          0  MISS:          0
cpu0_L1D TOTAL     ACCESS:   18932039  HIT:   15632517  MISS:    3299522
cpu0_L1D LOAD      ACCESS:   10980958  HIT:    9312739  MISS:    1668219
cpu0_L1D RFO       ACCESS:    7086931  HIT:    5512772  MISS:    1574159
cpu0_L1D PREFETCH  ACCESS:          0  HIT:          0  MISS:          0
cpu0_L1D WRITEBACK ACCESS:          0  HIT:          0  MISS:          0
cpu0_L2C TOTAL     ACCESS:    6541903  HIT:    3514523  MISS:    3027380
cpu0_L2C LOAD      ACCESS:    1668194  HIT:     219626  MISS:    1448568
cpu0_L2C RFO       ACCESS:    1574159  HIT:        120  MISS:    1574039
cpu0_L2C PREFETCH  ACCESS:          0  HIT:          0  MISS:          0
cpu0_L2C WRITEBACK ACCESS:    3242406  HIT:    3241522  MISS:        884
LLC TOTAL     ACCESS:    6049253  HIT:    3174295  MISS:    2874958
LLC LOAD      ACCESS:    1448530  HIT:     177853  MISS:    1270677
LLC RFO       ACCESS:    1574039  HIT:       1469  MISS:    1572570
LLC PREFETCH  ACCESS:          0  HIT:          0  MISS:          0
LLC WRITEBACK ACCESS:    3022795  HIT:    2994206  MISS:      28589
Heartbeat CPU 0 instructions: 88000004 cycles: 350691813 heartbeat IPC: 0.11405 cumulative IPC: 0.114046 (Simulation time: 2 hr 12 min 29 sec) 

Region of Interest Statistics
cpu0_DTLB TOTAL     ACCESS:   22359043  HIT:   21256204  MISS:    1102839
cpu0_DTLB LOAD      ACCESS:   10730591  HIT:   10472960  MISS:     257631
cpu0_DTLB RFO       ACCESS:   11628452  HIT:   10783244  MISS:     845208
cpu0_DTLB PREFETCH  ACCESS:          0  HIT:          0  MISS:          0
cpu0_DTLB WRITEBACK ACCESS:          0  HIT:          0  MISS:          0
cpu0_ITLB TOTAL     ACCESS:    3793554  HIT:    3793554  MISS:          0
cpu0_ITLB LOAD      ACCESS:    3793554  HIT:    3793554  MISS:          0
cpu0_ITLB RFO       ACCESS:          0  HIT:          0  MISS:          0
cpu0_ITLB PREFETCH  ACCESS:          0  HIT:          0  MISS:          0
cpu0_ITLB WRITEBACK ACCESS:          0  HIT:          0  MISS:          0
cpu0_L1I TOTAL     ACCESS:     580511  HIT:     580511  MISS:          0
cpu0_L1I LOAD      ACCESS:     580511  HIT:     580511  MISS:          0
cpu0_L1I RFO       ACCESS:          0  HIT:          0  MISS:          0
cpu0_L1I PREFETCH  ACCESS:          0  HIT:          0  MISS:          0
cpu0_L1I WRITEBACK ACCESS:          0  HIT:          0  MISS:          0
cpu0_STLB TOTAL     ACCESS:    1102839  HIT:     189568  MISS:     913271
cpu0_STLB LOAD      ACCESS:     257631  HIT:     185095  MISS:      72536
cpu0_STLB RFO       ACCESS:     845208  HIT:       4473  MISS:     840735
cpu0_STLB PREFETCH  ACCESS:          0  HIT:          0  MISS:          0
cpu0_STLB WRITEBACK ACCESS:          0  HIT:          0  MISS:          0
cpu0_L1D TOTAL     ACCESS:   19983840  HIT:   16500652  MISS:    3483188
cpu0_L1D LOAD      ACCESS:   11588932  HIT:    9827798  MISS:    1761134
cpu0_L1D RFO       ACCESS:    7482187  HIT:    5820396  MISS:    1661791
cpu0_L1D PREFETCH  ACCESS:          0  HIT:          0  MISS:          0
cpu0_L1D WRITEBACK ACCESS:          0  HIT:          0  MISS:          0
cpu0_L2C TOTAL     ACCESS:    6906107  HIT:    3710017  MISS:    3196090
cpu0_L2C LOAD      ACCESS:    1761108  HIT:     231554  MISS:    1529554
cpu0_L2C RFO       ACCESS:    1661791  HIT:        290  MISS:    1661501
cpu0_L2C PREFETCH  ACCESS:          0  HIT:          0  MISS:          0
cpu0_L2C WRITEBACK ACCESS:    3422945  HIT:    3422014  MISS:        931
LLC TOTAL     ACCESS:    6386370  HIT:    3351522  MISS:    3034848
LLC LOAD      ACCESS:    1529515  HIT:     187679  MISS:    1341836
LLC RFO       ACCESS:    1661501  HIT:       1915  MISS:    1659586
LLC PREFETCH  ACCESS:          0  HIT:          0  MISS:          0
LLC WRITEBACK ACCESS:    3191250  HIT:    3161112  MISS:      30138
Heartbeat CPU 0 instructions: 90000000 cycles: 368025617 heartbeat IPC: 0.115381 cumulative IPC: 0.114112 (Simulation time: 2 hr 17 min 43 sec) 

Region of Interest Statistics
cpu0_DTLB TOTAL     ACCESS:   23536960  HIT:   22375798  MISS:    1161162
cpu0_DTLB LOAD      ACCESS:   11295109  HIT:   11023682  MISS:     271427
cpu0_DTLB RFO       ACCESS:   12241851  HIT:   11352116  MISS:     889735
cpu0_DTLB PREFETCH  ACCESS:          0  HIT:          0  MISS:          0
cpu0_DTLB WRITEBACK ACCESS:          0  HIT:          0  MISS:          0
cpu0_ITLB TOTAL     ACCESS:    3989037  HIT:    3989037  MISS:          0
cpu0_ITLB LOAD      ACCESS:    3989037  HIT:    3989037  MISS:          0
cpu0_ITLB RFO       ACCESS:          0  HIT:          0  MISS:          0
cpu0_ITLB PREFETCH  ACCESS:          0  HIT:          0  MISS:          0
cpu0_ITLB WRITEBACK ACCESS:          0  HIT:          0  MISS:          0
cpu0_L1I TOTAL     ACCESS:     618622  HIT:     618622  MISS:          0
cpu0_L1I LOAD      ACCESS:     618622  HIT:     618622  MISS:          0
cpu0_L1I RFO       ACCESS:          0  HIT:          0  MISS:          0
cpu0_L1I PREFETCH  ACCESS:          0  HIT:          0  MISS:          0
cpu0_L1I WRITEBACK ACCESS:          0  HIT:          0  MISS:          0
cpu0_STLB TOTAL     ACCESS:    1161162  HIT:     199441  MISS:     961721
cpu0_STLB LOAD      ACCESS:     271427  HIT:     194854  MISS:      76573
cpu0_STLB RFO       ACCESS:     889735  HIT:       4587  MISS:     885148
cpu0_STLB PREFETCH  ACCESS:          0  HIT:          0  MISS:          0
cpu0_STLB WRITEBACK ACCESS:          0  HIT:          0  MISS:          0
cpu0_L1D TOTAL     ACCESS:   21034921  HIT:   17367790  MISS:    3667131
cpu0_L1D LOAD      ACCESS:   12196518  HIT:   10342336  MISS:    1854182
cpu0_L1D RFO       ACCESS:    7877272  HIT:    6127819  MISS:    1749453
cpu0_L1D PREFETCH  ACCESS:          0  HIT:          0  MISS:          0
cpu0_L1D WRITEBACK ACCESS:          0  HIT:          0  MISS:          0
cpu0_L2C TOTAL     ACCESS:    7270755  HIT:    3907288  MISS:    3363467
cpu0_L2C LOAD      ACCESS:    1854155  HIT:     245108  MISS:    1609047
cpu0_L2C RFO       ACCESS:    1749453  HIT:        315  MISS:    1749138
cpu0_L2C PREFETCH  ACCESS:          0  HIT:          0  MISS:          0
cpu0_L2C WRITEBACK ACCESS:    3603651  HIT:    3602670  MISS:        981
LLC TOTAL     ACCESS:    6720843  HIT:    3527427  MISS:    3193416
LLC LOAD      ACCESS:    1609007  HIT:     197827  MISS:    1411180
LLC RFO       ACCESS:    1749138  HIT:       2411  MISS:    1746727
LLC PREFETCH  ACCESS:          0  HIT:          0  MISS:          0
LLC WRITEBACK ACCESS:    3358397  HIT:    3326333  MISS:      32064
Heartbeat CPU 0 instructions: 92000003 cycles: 385883577 heartbeat IPC: 0.111995 cumulative IPC: 0.11401 (Simulation time: 2 hr 22 min 55 sec) 

Region of Interest Statistics
cpu0_DTLB TOTAL     ACCESS:   24714132  HIT:   23495138  MISS:    1218994
cpu0_DTLB LOAD      ACCESS:   11860134  HIT:   11575284  MISS:     284850
cpu0_DTLB RFO       ACCESS:   12853998  HIT:   11919854  MISS:     934144
cpu0_DTLB PREFETCH  ACCESS:          0  HIT:          0  MISS:          0
cpu0_DTLB WRITEBACK ACCESS:          0  HIT:          0  MISS:          0
cpu0_ITLB TOTAL     ACCESS:    4190778  HIT:    4190778  MISS:          0
cpu0_ITLB LOAD      ACCESS:    4190778  HIT:    4190778  MISS:          0
cpu0_ITLB RFO       ACCESS:          0  HIT:          0  MISS:          0
cpu0_ITLB PREFETCH  ACCESS:          0  HIT:          0  MISS:          0
cpu0_ITLB WRITEBACK ACCESS:          0  HIT:          0  MISS:          0
cpu0_L1I TOTAL     ACCESS:     645814  HIT:     645814  MISS:          0
cpu0_L1I LOAD      ACCESS:     645814  HIT:     645814  MISS:          0
cpu0_L1I RFO       ACCESS:          0  HIT:          0  MISS:          0
cpu0_L1I PREFETCH  ACCESS:          0  HIT:          0  MISS:          0
cpu0_L1I WRITEBACK ACCESS:          0  HIT:          0  MISS:          0
cpu0_STLB TOTAL     ACCESS:    1218994  HIT:     208732  MISS:    1010262
cpu0_STLB LOAD      ACCESS:     284850  HIT:     203998  MISS:      80852
cpu0_STLB RFO       ACCESS:     934144  HIT:       4734  MISS:     929410
cpu0_STLB PREFETCH  ACCESS:          0  HIT:          0  MISS:          0
cpu0_STLB WRITEBACK ACCESS:          0  HIT:          0  MISS:          0
cpu0_L1D TOTAL     ACCESS:   22088385  HIT:   18238254  MISS:    3850131
cpu0_L1D LOAD      ACCESS:   12807730  HIT:   10861247  MISS:    1946483
cpu0_L1D RFO       ACCESS:    8271002  HIT:    6434079  MISS:    1836923
cpu0_L1D PREFETCH  ACCESS:          0  HIT:          0  MISS:          0
cpu0_L1D WRITEBACK ACCESS:          0  HIT:          0  MISS:          0
cpu0_L2C TOTAL     ACCESS:    7633533  HIT:    4099708  MISS:    3533825
cpu0_L2C LOAD      ACCESS:    1946456  HIT:     254780  MISS:    1691676
cpu0_L2C RFO       ACCESS:    1836923  HIT:        315  MISS:    1836608
cpu0_L2C PREFETCH  ACCESS:          0  HIT:          0  MISS:          0
cpu0_L2C WRITEBACK ACCESS:    3783429  HIT:    3782395  MISS:       1034
LLC TOTAL     ACCESS:    7061257  HIT:    3705839  MISS:    3355418
LLC LOAD      ACCESS:    1691635  HIT:     207364  MISS:    1484271
LLC RFO       ACCESS:    1836608  HIT:       2422  MISS:    1834186
LLC PREFETCH  ACCESS:          0  HIT:          0  MISS:          0
LLC WRITEBACK ACCESS:    3528507  HIT:    3495164  MISS:      33343
Heartbeat CPU 0 instructions: 94000003 cycles: 403735932 heartbeat IPC: 0.11203 cumulative IPC: 0.113918 (Simulation time: 2 hr 28 min 17 sec) 

Region of Interest Statistics
cpu0_DTLB TOTAL     ACCESS:   25891456  HIT:   24614527  MISS:    1276929
cpu0_DTLB LOAD      ACCESS:   12424838  HIT:   12126575  MISS:     298263
cpu0_DTLB RFO       ACCESS:   13466618  HIT:   12487952  MISS:     978666
cpu0_DTLB PREFETCH  ACCESS:          0  HIT:          0  MISS:          0
cpu0_DTLB WRITEBACK ACCESS:          0  HIT:          0  MISS:          0
cpu0_ITLB TOTAL     ACCESS:    4392262  HIT:    4392262  MISS:          0
cpu0_ITLB LOAD      ACCESS:    4392262  HIT:    4392262  MISS:          0
cpu0_ITLB RFO       ACCESS:          0  HIT:          0  MISS:          0
cpu0_ITLB PREFETCH  ACCESS:          0  HIT:          0  MISS:          0
cpu0_ITLB WRITEBACK ACCESS:          0  HIT:          0  MISS:          0
cpu0_L1I TOTAL     ACCESS:     673590  HIT:     673590  MISS:          0
cpu0_L1I LOAD      ACCESS:     673590  HIT:     673590  MISS:          0
cpu0_L1I RFO       ACCESS:          0  HIT:          0  MISS:          0
cpu0_L1I PREFETCH  ACCESS:          0  HIT:          0  MISS:          0
cpu0_L1I WRITEBACK ACCESS:          0  HIT:          0  MISS:          0
cpu0_STLB TOTAL     ACCESS:    1276929  HIT:     217939  MISS:    1058990
cpu0_STLB LOAD      ACCESS:     298263  HIT:     213007  MISS:      85256
cpu0_STLB RFO       ACCESS:     978666  HIT:       4932  MISS:     973734
cpu0_STLB PREFETCH  ACCESS:          0  HIT:          0  MISS:          0
cpu0_STLB WRITEBACK ACCESS:          0  HIT:          0  MISS:          0
cpu0_L1D TOTAL     ACCESS:   23142086  HIT:   19108883  MISS:    4033203
cpu0_L1D LOAD      ACCESS:   13418697  HIT:   11379837  MISS:    2038860
cpu0_L1D RFO       ACCESS:    8665041  HIT:    6740569  MISS:    1924472
cpu0_L1D PREFETCH  ACCESS:          0  HIT:          0  MISS:          0
cpu0_L1D WRITEBACK ACCESS:          0  HIT:          0  MISS:          0
cpu0_L2C TOTAL     ACCESS:    7996532  HIT:    4292685  MISS:    3703847
cpu0_L2C LOAD      ACCESS:    2038833  HIT:     264964  MISS:    1773869
cpu0_L2C RFO       ACCESS:    1924473  HIT:        315  MISS:    1924158
cpu0_L2C PREFETCH  ACCESS:          0  HIT:          0  MISS:          0
cpu0_L2C WRITEBACK ACCESS:    3963355  HIT:    3962274  MISS:       1081
LLC TOTAL     ACCESS:    7400979  HIT:    3883403  MISS:    3517576
LLC LOAD      ACCESS:    1773825  HIT:     216319  MISS:    1557506
LLC RFO       ACCESS:    1924158  HIT:       2427  MISS:    1921731
LLC PREFETCH  ACCESS:          0  HIT:          0  MISS:          0
LLC WRITEBACK ACCESS:    3698257  HIT:    3663713  MISS:      34544
Heartbeat CPU 0 instructions: 96000001 cycles: 421302643 heartbeat IPC: 0.113852 cumulative IPC: 0.113915 (Simulation time: 2 hr 33 min 39 sec) 

Region of Interest Statistics
cpu0_DTLB TOTAL     ACCESS:   27062813  HIT:   25728157  MISS:    1334656
cpu0_DTLB LOAD      ACCESS:   12987248  HIT:   12675453  MISS:     311795
cpu0_DTLB RFO       ACCESS:   14075565  HIT:   13052704  MISS:    1022861
cpu0_DTLB PREFETCH  ACCESS:          0  HIT:          0  MISS:          0
cpu0_DTLB WRITEBACK ACCESS:          0  HIT:          0  MISS:          0
cpu0_ITLB TOTAL     ACCESS:    4589747  HIT:    4589747  MISS:          0
cpu0_ITLB LOAD      ACCESS:    4589747  HIT:    4589747  MISS:          0
cpu0_ITLB RFO       ACCESS:          0  HIT:          0  MISS:          0
cpu0_ITLB PREFETCH  ACCESS:          0  HIT:          0  MISS:          0
cpu0_ITLB WRITEBACK ACCESS:          0  HIT:          0  MISS:          0
cpu0_L1I TOTAL     ACCESS:     705783  HIT:     705783  MISS:          0
cpu0_L1I LOAD      ACCESS:     705783  HIT:     705783  MISS:          0
cpu0_L1I RFO       ACCESS:          0  HIT:          0  MISS:          0
cpu0_L1I PREFETCH  ACCESS:          0  HIT:          0  MISS:          0
cpu0_L1I WRITEBACK ACCESS:          0  HIT:          0  MISS:          0
cpu0_STLB TOTAL     ACCESS:    1334656  HIT:     227193  MISS:    1107463
cpu0_STLB LOAD      ACCESS:     311795  HIT:     222009  MISS:      89786
cpu0_STLB RFO       ACCESS:    1022861  HIT:       5184  MISS:    1017677
cpu0_STLB PREFETCH  ACCESS:          0  HIT:          0  MISS:          0
cpu0_STLB WRITEBACK ACCESS:          0  HIT:          0  MISS:          0
cpu0_L1D TOTAL     ACCESS:   24188074  HIT:   19972727  MISS:    4215347
cpu0_L1D LOAD      ACCESS:   14024583  HIT:   11893776  MISS:    2130807
cpu0_L1D RFO       ACCESS:    9056698  HIT:    7045213  MISS:    2011485
cpu0_L1D PREFETCH  ACCESS:          0  HIT:          0  MISS:          0
cpu0_L1D WRITEBACK ACCESS:          0  HIT:          0  MISS:          0
cpu0_L2C TOTAL     ACCESS:    8357642  HIT:    4483990  MISS:    3873652
cpu0_L2C LOAD      ACCESS:    2130780  HIT:     274373  MISS:    1856407
cpu0_L2C RFO       ACCESS:    2011485  HIT:        317  MISS:    2011168
cpu0_L2C PREFETCH  ACCESS:          0  HIT:          0  MISS:          0
cpu0_L2C WRITEBACK ACCESS:    4142322  HIT:    4141183  MISS:       1139
LLC TOTAL     ACCESS:    7740280  HIT:    4061988  MISS:    3678292
LLC LOAD      ACCESS:    1856356  HIT:     226378  MISS:    1629978
LLC RFO       ACCESS:    2011168  HIT:       2427  MISS:    2008741
LLC PREFETCH  ACCESS:          0  HIT:          0  MISS:          0
LLC WRITEBACK ACCESS:    3867818  HIT:    3832196  MISS:      35622
Heartbeat CPU 0 instructions: 98000001 cycles: 439076747 heartbeat IPC: 0.112523 cumulative IPC: 0.113857 (Simulation time: 2 hr 39 min 2 sec) 

Region of Interest Statistics
cpu0_DTLB TOTAL     ACCESS:   28240379  HIT:   26847619  MISS:    1392760
cpu0_DTLB LOAD      ACCESS:   13551869  HIT:   13226458  MISS:     325411
cpu0_DTLB RFO       ACCESS:   14688510  HIT:   13621161  MISS:    1067349
cpu0_DTLB PREFETCH  ACCESS:          0  HIT:          0  MISS:          0
cpu0_DTLB WRITEBACK ACCESS:          0  HIT:          0  MISS:          0
cpu0_ITLB TOTAL     ACCESS:    4787503  HIT:    4787503  MISS:          0
cpu0_ITLB LOAD      ACCESS:    4787503  HIT:    4787503  MISS:          0
cpu0_ITLB RFO       ACCESS:          0  HIT:          0  MISS:          0
cpu0_ITLB PREFETCH  ACCESS:          0  HIT:          0  MISS:          0
cpu0_ITLB WRITEBACK ACCESS:          0  HIT:          0  MISS:          0
cpu0_L1I TOTAL     ACCESS:     739947  HIT:     739947  MISS:          0
cpu0_L1I LOAD      ACCESS:     739947  HIT:     739947  MISS:          0
cpu0_L1I RFO       ACCESS:          0  HIT:          0  MISS:          0
cpu0_L1I PREFETCH  ACCESS:          0  HIT:          0  MISS:          0
cpu0_L1I WRITEBACK ACCESS:          0  HIT:          0  MISS:          0
cpu0_STLB TOTAL     ACCESS:    1392760  HIT:     236481  MISS:    1156279
cpu0_STLB LOAD      ACCESS:     325411  HIT:     231087  MISS:      94324
cpu0_STLB RFO       ACCESS:    1067349  HIT:       5394  MISS:    1061955
cpu0_STLB PREFETCH  ACCESS:          0  HIT:          0  MISS:          0
cpu0_STLB WRITEBACK ACCESS:          0  HIT:          0  MISS:          0
cpu0_L1D TOTAL     ACCESS:   25240530  HIT:   20842202  MISS:    4398328
cpu0_L1D LOAD      ACCESS:   14634034  HIT:   12410987  MISS:    2223047
cpu0_L1D RFO       ACCESS:    9450916  HIT:    7351851  MISS:    2099065
cpu0_L1D PREFETCH  ACCESS:          0  HIT:          0  MISS:          0
cpu0_L1D WRITEBACK ACCESS:          0  HIT:          0  MISS:          0
cpu0_L2C TOTAL     ACCESS:    8720431  HIT:    4676582  MISS:    4043849
cpu0_L2C LOAD      ACCESS:    2223015  HIT:     284279  MISS:    1938736
cpu0_L2C RFO       ACCESS:    2099065  HIT:        319  MISS:    2098746
cpu0_L2C PREFETCH  ACCESS:          0  HIT:          0  MISS:          0
cpu0_L2C WRITEBACK ACCESS:    4322135  HIT:    4320946  MISS:       1189
LLC TOTAL     ACCESS:    8080348  HIT:    4240348  MISS:    3840000
LLC LOAD      ACCESS:    1938684  HIT:     235980  MISS:    1702704
LLC RFO       ACCESS:    2098746  HIT:       2435  MISS:    2096311
LLC PREFETCH  ACCESS:          0  HIT:          0  MISS:          0
LLC WRITEBACK ACCESS:    4037740  HIT:    4000895  MISS:      36845
Heartbeat CPU 0 instructions: 100000001 cycles: 457004567 heartbeat IPC: 0.111558 cumulative IPC: 0.113763 (Simulation time: 2 hr 44 min 14 sec) 

Region of Interest Statistics
cpu0_DTLB TOTAL     ACCESS:   29417854  HIT:   27966543  MISS:    1451311
cpu0_DTLB LOAD      ACCESS:   14116519  HIT:   13777068  MISS:     339451
cpu0_DTLB RFO       ACCESS:   15301335  HIT:   14189475  MISS:    1111860
cpu0_DTLB PREFETCH  ACCESS:          0  HIT:          0  MISS:          0
cpu0_DTLB WRITEBACK ACCESS:          0  HIT:          0  MISS:          0
cpu0_ITLB TOTAL     ACCESS:    4989622  HIT:    4989622  MISS:          0
cpu0_ITLB LOAD      ACCESS:    4989622  HIT:    4989622  MISS:          0
cpu0_ITLB RFO       ACCESS:          0  HIT:          0  MISS:          0
cpu0_ITLB PREFETCH  ACCESS:          0  HIT:          0  MISS:          0
cpu0_ITLB WRITEBACK ACCESS:          0  HIT:          0  MISS:          0
cpu0_L1I TOTAL     ACCESS:     766869  HIT:     766869  MISS:          0
cpu0_L1I LOAD      ACCESS:     766869  HIT:     766869  MISS:          0
cpu0_L1I RFO       ACCESS:          0  HIT:          0  MISS:          0
cpu0_L1I PREFETCH  ACCESS:          0  HIT:          0  MISS:          0
cpu0_L1I WRITEBACK ACCESS:          0  HIT:          0  MISS:          0
cpu0_STLB TOTAL     ACCESS:    1451311  HIT:     246009  MISS:    1205302
cpu0_STLB LOAD      ACCESS:     339451  HIT:     240445  MISS:      99006
cpu0_STLB RFO       ACCESS:    1111860  HIT:       5564  MISS:    1106296
cpu0_STLB PREFETCH  ACCESS:          0  HIT:          0  MISS:          0
cpu0_STLB WRITEBACK ACCESS:          0  HIT:          0  MISS:          0
cpu0_L1D TOTAL     ACCESS:   26295179  HIT:   21713858  MISS:    4581321
cpu0_L1D LOAD      ACCESS:   15245539  HIT:   12930286  MISS:    2315253
cpu0_L1D RFO       ACCESS:    9845065  HIT:    7658428  MISS:    2186637
cpu0_L1D PREFETCH  ACCESS:          0  HIT:          0  MISS:          0
cpu0_L1D WRITEBACK ACCESS:          0  HIT:          0  MISS:          0
cpu0_L2C TOTAL     ACCESS:    9083205  HIT:    4868810  MISS:    4214395
cpu0_L2C LOAD      ACCESS:    2315219  HIT:     293799  MISS:    2021420
cpu0_L2C RFO       ACCESS:    2186637  HIT:        319  MISS:    2186318
cpu0_L2C PREFETCH  ACCESS:          0  HIT:          0  MISS:          0
cpu0_L2C WRITEBACK ACCESS:    4501918  HIT:    4500677  MISS:       1241
LLC TOTAL     ACCESS:    8421102  HIT:    4418750  MISS:    4002352
LLC LOAD      ACCESS:    2021368  HIT:     245142  MISS:    1776226
LLC RFO       ACCESS:    2186318  HIT:       2436  MISS:    2183882
LLC PREFETCH  ACCESS:          0  HIT:          0  MISS:          0
LLC WRITEBACK ACCESS:    4208000  HIT:    4170084  MISS:      37916
Heartbeat CPU 0 instructions: 102000000 cycles: 474750815 heartbeat IPC: 0.1127 cumulative IPC: 0.113722 (Simulation time: 2 hr 49 min 30 sec) 

Region of Interest Statistics
cpu0_DTLB TOTAL     ACCESS:   30593615  HIT:   29085402  MISS:    1508213
cpu0_DTLB LOAD      ACCESS:   14681092  HIT:   14329032  MISS:     352060
cpu0_DTLB RFO       ACCESS:   15912523  HIT:   14756370  MISS:    1156153
cpu0_DTLB PREFETCH  ACCESS:          0  HIT:          0  MISS:          0
cpu0_DTLB WRITEBACK ACCESS:          0  HIT:          0  MISS:          0
cpu0_ITLB TOTAL     ACCESS:    5192443  HIT:    5192443  MISS:          0
cpu0_ITLB LOAD      ACCESS:    5192443  HIT:    5192443  MISS:          0
cpu0_ITLB RFO       ACCESS:          0  HIT:          0  MISS:          0
cpu0_ITLB PREFETCH  ACCESS:          0  HIT:          0  MISS:          0
cpu0_ITLB WRITEBACK ACCESS:          0  HIT:          0  MISS:          0
cpu0_L1I TOTAL     ACCESS:     791699  HIT:     791699  MISS:          0
cpu0_L1I LOAD      ACCESS:     791699  HIT:     791699  MISS:          0
cpu0_L1I RFO       ACCESS:          0  HIT:          0  MISS:          0
cpu0_L1I PREFETCH  ACCESS:          0  HIT:          0  MISS:          0
cpu0_L1I WRITEBACK ACCESS:          0  HIT:          0  MISS:          0
cpu0_STLB TOTAL     ACCESS:    1508213  HIT:     254053  MISS:    1254160
cpu0_STLB LOAD      ACCESS:     352060  HIT:     248254  MISS:     103806
cpu0_STLB RFO       ACCESS:    1156153  HIT:       5799  MISS:    1150354
cpu0_STLB PREFETCH  ACCESS:          0  HIT:          0  MISS:          0
cpu0_STLB WRITEBACK ACCESS:          0  HIT:          0  MISS:          0
cpu0_L1D TOTAL     ACCESS:   27348384  HIT:   22584188  MISS:    4764196
cpu0_L1D LOAD      ACCESS:   15856784  HIT:   13449207  MISS:    2407577
cpu0_L1D RFO       ACCESS:   10238190  HIT:    7964211  MISS:    2273979
cpu0_L1D PREFETCH  ACCESS:          0  HIT:          0  MISS:          0
cpu0_L1D WRITEBACK ACCESS:          0  HIT:          0  MISS:          0
cpu0_L2C TOTAL     ACCESS:    9445731  HIT:    5061104  MISS:    4384627
cpu0_L2C LOAD      ACCESS:    2407540  HIT:     303529  MISS:    2104011
cpu0_L2C RFO       ACCESS:    2273979  HIT:        319  MISS:    2273660
cpu0_L2C PREFETCH  ACCESS:          0  HIT:          0  MISS:          0
cpu0_L2C WRITEBACK ACCESS:    4681572  HIT:    4680271  MISS:       1301
LLC TOTAL     ACCESS:    8761214  HIT:    4597297  MISS:    4163917
LLC LOAD      ACCESS:    2103959  HIT:     254906  MISS:    1849053
LLC RFO       ACCESS:    2273660  HIT:       2437  MISS:    2271223
LLC PREFETCH  ACCESS:          0  HIT:          0  MISS:          0
LLC WRITEBACK ACCESS:    4377940  HIT:    4338821  MISS:      39119
Heartbeat CPU 0 instructions: 104000000 cycles: 492306804 heartbeat IPC: 0.113921 cumulative IPC: 0.113729 (Simulation time: 2 hr 55 min 7 sec) 

Region of Interest Statistics
cpu0_DTLB TOTAL     ACCESS:   31768240  HIT:   30201635  MISS:    1566605
cpu0_DTLB LOAD      ACCESS:   15244591  HIT:   14878544  MISS:     366047
cpu0_DTLB RFO       ACCESS:   16523649  HIT:   15323091  MISS:    1200558
cpu0_DTLB PREFETCH  ACCESS:          0  HIT:          0  MISS:          0
cpu0_DTLB WRITEBACK ACCESS:          0  HIT:          0  MISS:          0
cpu0_ITLB TOTAL     ACCESS:    5382501  HIT:    5382501  MISS:          0
cpu0_ITLB LOAD      ACCESS:    5382501  HIT:    5382501  MISS:          0
cpu0_ITLB RFO       ACCESS:          0  HIT:          0  MISS:          0
cpu0_ITLB PREFETCH  ACCESS:          0  HIT:          0  MISS:          0
cpu0_ITLB WRITEBACK ACCESS:          0  HIT:          0  MISS:          0
cpu0_L1I TOTAL     ACCESS:     837553  HIT:     837553  MISS:          0
cpu0_L1I LOAD      ACCESS:     837553  HIT:     837553  MISS:          0
cpu0_L1I RFO       ACCESS:          0  HIT:          0  MISS:          0
cpu0_L1I PREFETCH  ACCESS:          0  HIT:          0  MISS:          0
cpu0_L1I WRITEBACK ACCESS:          0  HIT:          0  MISS:          0
cpu0_STLB TOTAL     ACCESS:    1566605  HIT:     263493  MISS:    1303112
cpu0_STLB LOAD      ACCESS:     366047  HIT:     257505  MISS:     108542
cpu0_STLB RFO       ACCESS:    1200558  HIT:       5988  MISS:    1194570
cpu0_STLB PREFETCH  ACCESS:          0  HIT:          0  MISS:          0
cpu0_STLB WRITEBACK ACCESS:          0  HIT:          0  MISS:          0
cpu0_L1D TOTAL     ACCESS:   28394804  HIT:   23447860  MISS:    4946944
cpu0_L1D LOAD      ACCESS:   16461036  HIT:   13961270  MISS:    2499766
cpu0_L1D RFO       ACCESS:   10631445  HIT:    8270143  MISS:    2361302
cpu0_L1D PREFETCH  ACCESS:          0  HIT:          0  MISS:          0
cpu0_L1D WRITEBACK ACCESS:          0  HIT:          0  MISS:          0
cpu0_L2C TOTAL     ACCESS:    9807992  HIT:    5254875  MISS:    4553117
cpu0_L2C LOAD      ACCESS:    2499727  HIT:     314821  MISS:    2184906
cpu0_L2C RFO       ACCESS:    2361302  HIT:        331  MISS:    2360971
cpu0_L2C PREFETCH  ACCESS:          0  HIT:          0  MISS:          0
cpu0_L2C WRITEBACK ACCESS:    4861087  HIT:    4859734  MISS:       1353
LLC TOTAL     ACCESS:    9097873  HIT:    4773433  MISS:    4324440
LLC LOAD      ACCESS:    2184852  HIT:     264104  MISS:    1920748
LLC RFO       ACCESS:    2360971  HIT:       2667  MISS:    2358304
LLC PREFETCH  ACCESS:          0  HIT:          0  MISS:          0
LLC WRITEBACK ACCESS:    4546163  HIT:    4505476  MISS:      40687
Heartbeat CPU 0 instructions: 106000003 cycles: 510094359 heartbeat IPC: 0.112438 cumulative IPC: 0.113682 (Simulation time: 3 hr 0 min 23 sec) 

Region of Interest Statistics
cpu0_DTLB TOTAL     ACCESS:   32946144  HIT:   31321469  MISS:    1624675
cpu0_DTLB LOAD      ACCESS:   15810229  HIT:   15430546  MISS:     379683
cpu0_DTLB RFO       ACCESS:   17135915  HIT:   15890923  MISS:    1244992
cpu0_DTLB PREFETCH  ACCESS:          0  HIT:          0  MISS:          0
cpu0_DTLB WRITEBACK ACCESS:          0  HIT:          0  MISS:          0
cpu0_ITLB TOTAL     ACCESS:    5580693  HIT:    5580693  MISS:          0
cpu0_ITLB LOAD      ACCESS:    5580693  HIT:    5580693  MISS:          0
cpu0_ITLB RFO       ACCESS:          0  HIT:          0  MISS:          0
cpu0_ITLB PREFETCH  ACCESS:          0  HIT:          0  MISS:          0
cpu0_ITLB WRITEBACK ACCESS:          0  HIT:          0  MISS:          0
cpu0_L1I TOTAL     ACCESS:     870705  HIT:     870705  MISS:          0
cpu0_L1I LOAD      ACCESS:     870705  HIT:     870705  MISS:          0
cpu0_L1I RFO       ACCESS:          0  HIT:          0  MISS:          0
cpu0_L1I PREFETCH  ACCESS:          0  HIT:          0  MISS:          0
cpu0_L1I WRITEBACK ACCESS:          0  HIT:          0  MISS:          0
cpu0_STLB TOTAL     ACCESS:    1624675  HIT:     272513  MISS:    1352162
cpu0_STLB LOAD      ACCESS:     379683  HIT:     266358  MISS:     113325
cpu0_STLB RFO       ACCESS:    1244992  HIT:       6155  MISS:    1238837
cpu0_STLB PREFETCH  ACCESS:          0  HIT:          0  MISS:          0
cpu0_STLB WRITEBACK ACCESS:          0  HIT:          0  MISS:          0
cpu0_L1D TOTAL     ACCESS:   29448241  HIT:   24317942  MISS:    5130299
cpu0_L1D LOAD      ACCESS:   17071635  HIT:   14479328  MISS:    2592307
cpu0_L1D RFO       ACCESS:   11025258  HIT:    8576459  MISS:    2448799
cpu0_L1D PREFETCH  ACCESS:          0  HIT:          0  MISS:          0
cpu0_L1D WRITEBACK ACCESS:          0  HIT:          0  MISS:          0
cpu0_L2C TOTAL     ACCESS:   10171376  HIT:    5448695  MISS:    4722681
cpu0_L2C LOAD      ACCESS:    2592268  HIT:     325545  MISS:    2266723
cpu0_L2C RFO       ACCESS:    2448799  HIT:        331  MISS:    2448468
cpu0_L2C PREFETCH  ACCESS:          0  HIT:          0  MISS:          0
[...]
cpu0_DTLB LOAD      ACCESS:  352890163  HIT:  344223017  MISS:    8667146
cpu0_DTLB RFO       ACCESS:  190753040  HIT:  180564237  MISS:   10188803
cpu0_DTLB PREFETCH  ACCESS:          0  HIT:          0  MISS:          0
cpu0_DTLB WRITEBACK ACCESS:          0  HIT:          0  MISS:          0
cpu0_ITLB TOTAL     ACCESS:  164518901  HIT:  164518882  MISS:         19
cpu0_ITLB LOAD      ACCESS:  164518901  HIT:  164518882  MISS:         19
cpu0_ITLB RFO       ACCESS:          0  HIT:          0  MISS:          0
cpu0_ITLB PREFETCH  ACCESS:          0  HIT:          0  MISS:          0
cpu0_ITLB WRITEBACK ACCESS:          0  HIT:          0  MISS:          0
cpu0_L1I TOTAL     ACCESS:   94930354  HIT:   94930128  MISS:        226
cpu0_L1I LOAD      ACCESS:   94930354  HIT:   94930128  MISS:        226
cpu0_L1I RFO       ACCESS:          0  HIT:          0  MISS:          0
cpu0_L1I PREFETCH  ACCESS:          0  HIT:          0  MISS:          0
cpu0_L1I WRITEBACK ACCESS:          0  HIT:          0  MISS:          0
cpu0_STLB TOTAL     ACCESS:   18855968  HIT:    8969255  MISS:    9886713
cpu0_STLB LOAD      ACCESS:    8667165  HIT:    7776327  MISS:     890838
cpu0_STLB RFO       ACCESS:   10188803  HIT:    1192928  MISS:    8995875
cpu0_STLB PREFETCH  ACCESS:          0  HIT:          0  MISS:          0
cpu0_STLB WRITEBACK ACCESS:          0  HIT:          0  MISS:          0
cpu0_L1D TOTAL     ACCESS:  604195775  HIT:  535531701  MISS:   68664074
cpu0_L1D LOAD      ACCESS:  408503784  HIT:  362178902  MISS:   46324882
cpu0_L1D RFO       ACCESS:  185811139  HIT:  164127635  MISS:   21683504
cpu0_L1D PREFETCH  ACCESS:          0  HIT:          0  MISS:          0
cpu0_L1D WRITEBACK ACCESS:          0  HIT:          0  MISS:          0
cpu0_L2C TOTAL     ACCESS:  109575386  HIT:   62004282  MISS:   47571104
cpu0_L2C LOAD      ACCESS:   46324512  HIT:   17706347  MISS:   28618165
cpu0_L2C RFO       ACCESS:   21683236  HIT:    2790496  MISS:   18892740
cpu0_L2C PREFETCH  ACCESS:          0  HIT:          0  MISS:          0
cpu0_L2C WRITEBACK ACCESS:   40911950  HIT:   40901712  MISS:      10238
LLC TOTAL     ACCESS:   82790922  HIT:   42975250  MISS:   39815672
LLC LOAD      ACCESS:   28617776  HIT:    7285117  MISS:   21332659
LLC RFO       ACCESS:   18892582  HIT:    1087876  MISS:   17804706
LLC PREFETCH  ACCESS:          0  HIT:          0  MISS:          0
LLC WRITEBACK ACCESS:   35230603  HIT:   34588033  MISS:     642570
Heartbeat CPU 0 instructions: 1550000004 cycles: 4959569867 heartbeat IPC: 0.689077 cumulative IPC: 0.303516 (Simulation time: 17 hr 55 min 24 sec) 

Region of Interest Statistics
cpu0_DTLB TOTAL     ACCESS:  544203923  HIT:  525328504  MISS:   18875419
cpu0_DTLB LOAD      ACCESS:  353321409  HIT:  344638670  MISS:    8682739
cpu0_DTLB RFO       ACCESS:  190882514  HIT:  180689834  MISS:   10192680
cpu0_DTLB PREFETCH  ACCESS:          0  HIT:          0  MISS:          0
cpu0_DTLB WRITEBACK ACCESS:          0  HIT:          0  MISS:          0
cpu0_ITLB TOTAL     ACCESS:  164743401  HIT:  164743382  MISS:         19
cpu0_ITLB LOAD      ACCESS:  164743401  HIT:  164743382  MISS:         19
cpu0_ITLB RFO       ACCESS:          0  HIT:          0  MISS:          0
cpu0_ITLB PREFETCH  ACCESS:          0  HIT:          0  MISS:          0
cpu0_ITLB WRITEBACK ACCESS:          0  HIT:          0  MISS:          0
cpu0_L1I TOTAL     ACCESS:   95081550  HIT:   95081324  MISS:        226
cpu0_L1I LOAD      ACCESS:   95081550  HIT:   95081324  MISS:        226
cpu0_L1I RFO       ACCESS:          0  HIT:          0  MISS:          0
cpu0_L1I PREFETCH  ACCESS:          0  HIT:          0  MISS:          0
cpu0_L1I WRITEBACK ACCESS:          0  HIT:          0  MISS:          0
cpu0_STLB TOTAL     ACCESS:   18875438  HIT:    8988572  MISS:    9886866
cpu0_STLB LOAD      ACCESS:    8682758  HIT:    7791769  MISS:     890989
cpu0_STLB RFO       ACCESS:   10192680  HIT:    1196803  MISS:    8995877
cpu0_STLB PREFETCH  ACCESS:          0  HIT:          0  MISS:          0
cpu0_STLB WRITEBACK ACCESS:          0  HIT:          0  MISS:          0
cpu0_L1D TOTAL     ACCESS:  604909707  HIT:  536176154  MISS:   68733553
cpu0_L1D LOAD      ACCESS:  409017849  HIT:  362634425  MISS:   46383424
cpu0_L1D RFO       ACCESS:  186010853  HIT:  164316421  MISS:   21694432
cpu0_L1D PREFETCH  ACCESS:          0  HIT:          0  MISS:          0
cpu0_L1D WRITEBACK ACCESS:          0  HIT:          0  MISS:          0
cpu0_L2C TOTAL     ACCESS:  109658027  HIT:   62056480  MISS:   47601547
cpu0_L2C LOAD      ACCESS:   46383054  HIT:   17737324  MISS:   28645730
cpu0_L2C RFO       ACCESS:   21694164  HIT:    2798559  MISS:   18895605
cpu0_L2C PREFETCH  ACCESS:          0  HIT:          0  MISS:          0
cpu0_L2C WRITEBACK ACCESS:   40925112  HIT:   40914870  MISS:      10242
LLC TOTAL     ACCESS:   82825911  HIT:   42991676  MISS:   39834235
LLC LOAD      ACCESS:   28645341  HIT:    7295822  MISS:   21349519
LLC RFO       ACCESS:   18895447  HIT:    1090206  MISS:   17805241
LLC PREFETCH  ACCESS:          0  HIT:          0  MISS:          0
LLC WRITEBACK ACCESS:   35235153  HIT:   34591419  MISS:     643734
Finished CPU 0 instructions: 1500000000 cycles: 4942076359 cumulative IPC: 0.303516 (Simulation time: 17 hr 55 min 24 sec) 

ChampSim completed all CPUs

Region of Interest Statistics

CPU 0 cumulative IPC: 0.303516 instructions: 1500000000 cycles: 4942076359
cpu0_DTLB TOTAL     ACCESS:  544203923  HIT:  525328504  MISS:   18875419
cpu0_DTLB LOAD      ACCESS:  353321409  HIT:  344638670  MISS:    8682739
cpu0_DTLB RFO       ACCESS:  190882514  HIT:  180689834  MISS:   10192680
cpu0_DTLB PREFETCH  ACCESS:          0  HIT:          0  MISS:          0
cpu0_DTLB WRITEBACK ACCESS:          0  HIT:          0  MISS:          0
cpu0_DTLB TRANSLATION ACCESS:          0  HIT:          0  MISS:          0
cpu0_DTLB PREFETCH  REQUESTED:          0  ISSUED:          0  USEFUL:          0  USELESS:          0
cpu0_DTLB AVERAGE MISS LATENCY: 16.7796 cycles
cpu0_ITLB TOTAL     ACCESS:  164743401  HIT:  164743382  MISS:         19
cpu0_ITLB LOAD      ACCESS:  164743401  HIT:  164743382  MISS:         19
cpu0_ITLB RFO       ACCESS:          0  HIT:          0  MISS:          0
cpu0_ITLB PREFETCH  ACCESS:          0  HIT:          0  MISS:          0
cpu0_ITLB WRITEBACK ACCESS:          0  HIT:          0  MISS:          0
cpu0_ITLB TRANSLATION ACCESS:          0  HIT:          0  MISS:          0
cpu0_ITLB PREFETCH  REQUESTED:          0  ISSUED:          0  USEFUL:          0  USELESS:          0
cpu0_ITLB AVERAGE MISS LATENCY: 238.579 cycles
cpu0_L1I TOTAL     ACCESS:   95081550  HIT:   95081324  MISS:        226
cpu0_L1I LOAD      ACCESS:   95081550  HIT:   95081324  MISS:        226
cpu0_L1I RFO       ACCESS:          0  HIT:          0  MISS:          0
cpu0_L1I PREFETCH  ACCESS:          0  HIT:          0  MISS:          0
cpu0_L1I WRITEBACK ACCESS:          0  HIT:          0  MISS:          0
cpu0_L1I TRANSLATION ACCESS:          0  HIT:          0  MISS:          0
cpu0_L1I PREFETCH  REQUESTED:          0  ISSUED:          0  USEFUL:          0  USELESS:          0
cpu0_L1I AVERAGE MISS LATENCY: 228.018 cycles
cpu0_STLB TOTAL     ACCESS:   18875438  HIT:    8988572  MISS:    9886866
cpu0_STLB LOAD      ACCESS:    8682758  HIT:    7791769  MISS:     890989
cpu0_STLB RFO       ACCESS:   10192680  HIT:    1196803  MISS:    8995877
cpu0_STLB PREFETCH  ACCESS:          0  HIT:          0  MISS:          0
cpu0_STLB WRITEBACK ACCESS:          0  HIT:          0  MISS:          0
cpu0_STLB TRANSLATION ACCESS:          0  HIT:          0  MISS:          0
cpu0_STLB PREFETCH  REQUESTED:          0  ISSUED:          0  USEFUL:          0  USELESS:          0
cpu0_STLB AVERAGE MISS LATENCY: 14.8267 cycles
cpu0_L1D TOTAL     ACCESS:  604909707  HIT:  536176154  MISS:   68733553
cpu0_L1D LOAD      ACCESS:  409017849  HIT:  362634425  MISS:   46383424
cpu0_L1D RFO       ACCESS:  186010853  HIT:  164316421  MISS:   21694432
cpu0_L1D PREFETCH  ACCESS:          0  HIT:          0  MISS:          0
cpu0_L1D WRITEBACK ACCESS:          0  HIT:          0  MISS:          0
cpu0_L1D TRANSLATION ACCESS:    9881005  HIT:    9225308  MISS:     655697
cpu0_L1D PREFETCH  REQUESTED:          0  ISSUED:          0  USEFUL:          0  USELESS:          0
cpu0_L1D AVERAGE MISS LATENCY: 358.993 cycles
cpu0_L2C TOTAL     ACCESS:  109658027  HIT:   62056480  MISS:   47601547
cpu0_L2C LOAD      ACCESS:   46383054  HIT:   17737324  MISS:   28645730
cpu0_L2C RFO       ACCESS:   21694164  HIT:    2798559  MISS:   18895605
cpu0_L2C PREFETCH  ACCESS:          0  HIT:          0  MISS:          0
cpu0_L2C WRITEBACK ACCESS:   40925112  HIT:   40914870  MISS:      10242
cpu0_L2C TRANSLATION ACCESS:     655697  HIT:     605727  MISS:      49970
cpu0_L2C PREFETCH  REQUESTED:          0  ISSUED:          0  USEFUL:          0  USELESS:          0
cpu0_L2C AVERAGE MISS LATENCY: 502.418 cycles
LLC TOTAL     ACCESS:   82825911  HIT:   42991676  MISS:   39834235
LLC LOAD      ACCESS:   28645341  HIT:    7295822  MISS:   21349519
LLC RFO       ACCESS:   18895447  HIT:    1090206  MISS:   17805241
LLC PREFETCH  ACCESS:          0  HIT:          0  MISS:          0
LLC WRITEBACK ACCESS:   35235153  HIT:   34591419  MISS:     643734
LLC TRANSLATION ACCESS:      49970  HIT:      14229  MISS:      35741
LLC PREFETCH  REQUESTED:          0  ISSUED:          0  USEFUL:          0  USELESS:          0
LLC AVERAGE MISS LATENCY: 575.293 cycles
~~~~~~~~~~Reuse Distance Profiler output~~~~~~~~~~
0	0	0
1	0	0
2	0	0
3	0	0
4	0	0
5	0	0
6	0	0
7	0	0
8	0	0
9	0	0
10	0	0
11	0	0
12	0	0
13	0	0
14	0	0
15	0	0
16	0	0
17	0	0
18	0	0
19	0	0
20	0	0
21	0	0
22	0	0
23	0	0
24	0	0
25	0	0
26	0	0
27	0	0
28	0	0
29	0	0
30	0	0
31	0	0
32	0	0
33	0	0
34	0	0
35	0	0
36	0	0
37	0	0
38	0	0
39	0	0
40	0	0
41	0	0
42	0	0
43	0	0
44	0	0
45	0	0
46	0	0
47	0	0
48	0	0
49	0	0
50	0	0
51	0	0
52	0	0
53	0	0
54	0	0
55	0	0
56	0	0
57	0	0
58	0	0
59	0	0
60	0	0
61	0	0
62	0	0
63	0	0
64	0	0
66	0	0
68	0	0
70	0	0
72	0	0
74	0	0
76	0	0
78	0	0
80	0	0
82	0	0
84	0	0
86	0	0
88	0	0
90	0	0
92	0	0
94	0	0
96	0	0
98	0	0
100	0	0
102	0	0
104	0	0
106	0	0
108	0	0
110	0	0
112	0	0
114	0	0
116	0	0
118	0	0
120	0	0
122	0	0
124	0	0
126	0	0
128	0	0
132	0	0
136	0	0
140	0	0
144	0	0
148	0	0
152	0	0
156	0	0
160	0	0
164	0	0
168	0	0
172	0	0
176	0	0
180	0	0
184	0	0
188	0	0
192	0	0
196	0	0
200	0	0
204	0	0
208	0	0
212	0	0
216	0	0
220	0	0
224	0	0
228	0	0
232	0	0
236	0	0
240	0	0
244	0	0
248	0	0
252	0	0
256	0	0
264	0	0
272	0	0
280	0	0
288	0	0
296	0	0
304	0	0
312	0	0
320	0	0
328	0	0
336	0	0
344	0	0
352	0	0
360	0	0
368	0	0
376	0	0
384	0	0
392	0	0
400	0	0
408	0	0
416	0	0
424	0	0
432	0	0
440	0	0
448	0	0
456	0	0
464	0	0
472	0	0
480	0	0
488	0	0
496	0	0
504	0	0
512	0	0
528	0	0
544	0	0
560	0	0
576	0	0
592	0	0
608	0	0
624	0	0
640	0	0
656	0	0
672	0	0
688	0	0
704	0	0
720	0	0
736	0	0
752	0	0
768	0	0
784	0	0
800	0	0
816	0	0
832	0	0
848	0	0
864	0	0
880	0	0
896	0	0
912	0	0
928	0	0
944	0	0
960	0	0
976	0	0
992	0	0
1008	0	0
1024	0	0
1056	0	0
1088	0	0
1120	0	0
1152	0	0
1184	0	0
1216	0	0
1248	0	0
1280	0	0
1312	0	0
1344	0	0
1376	0	0
1408	0	0
1440	0	0
1472	0	0
1504	0	0
1536	0	0
1568	0	0
1600	0	0
1632	0	0
1664	0	0
1696	0	0
1728	0	0
1760	0	0
1792	0	0
1824	0	0
1856	0	0
1888	0	0
1920	0	0
1952	0	0
1984	0	0
2016	0	0
2048	0	0
2112	0	0
2176	0	0
2240	0	0
2304	0	0
2368	0	0
2432	0	0
2496	0	0
2560	0	0
2624	0	0
2688	0	0
2752	0	0
2816	0	0
2880	0	0
2944	0	0
3008	0	0
3072	0	0
3136	0	0
3200	0	0
3264	0	0
3328	0	0
3392	0	0
3456	0	0
3520	0	0
3584	0	0
3648	0	0
3712	0	0
3776	0	0
3840	0	0
3904	0	0
3968	0	0
4032	0	0
4096	0	0
4224	0	0
4352	0	0
4480	0	0
4608	0	0
4736	0	0
4864	0	0
4992	0	0
5120	0	0
5248	0	0
5376	0	0
5504	0	0
5632	0	0
5760	0	0
5888	0	0
6016	0	0
6144	0	0
6272	0	0
6400	0	0
6528	0	0
6656	0	0
6784	0	0
6912	0	0
7040	0	0
7168	0	0
7296	0	0
7424	0	0
7552	0	0
7680	0	0
7808	0	0
7936	0	0
8064	0	0
8192	0	0
8448	0	0
8704	0	0
8960	0	0
9216	0	0
9472	0	0
9728	0	0
9984	0	0
10240	0	0
10496	0	0
10752	0	0
11008	0	0
11264	0	0
11520	0	0
11776	0	0
12032	0	0
12288	0	0
12544	0	0
12800	0	0
13056	0	0
13312	0	0
13568	0	0
13824	0	0
14080	0	0
14336	0	0
14592	0	0
14848	0	0
15104	0	0
15360	0	0
15616	0	0
15872	0	0
16128	0	0
16384	0	0
16896	0	0
17408	0	0
17920	0	0
18432	0	0
18944	0	0
19456	0	0
19968	0	0
20480	0	0
20992	0	0
21504	0	0
22016	0	0
22528	0	0
23040	0	0
23552	0	0
24064	0	0
24576	0	0
25088	0	0
25600	0	0
26112	0	0
26624	0	0
27136	0	0
27648	0	0
28160	0	0
28672	0	0
29184	0	0
29696	0	0
30208	0	0
30720	0	0
31232	0	0
31744	0	0
32256	0	0
32768	0	0
33792	0	0
34816	0	0
35840	0	0
36864	0	0
37888	0	0
38912	0	0
39936	0	0
40960	0	0
41984	0	0
43008	0	0
44032	0	0
45056	0	0
46080	0	0
47104	0	0
48128	0	0
49152	0	0
50176	0	0
51200	0	0
52224	0	0
53248	0	0
54272	0	0
55296	0	0
56320	0	0
57344	0	0
58368	0	0
59392	0	0
60416	0	0
61440	0	0
62464	0	0
63488	0	0
64512	0	0
65536	0	0
67584	0	0
69632	0	0
71680	0	0
73728	0	0
75776	0	0
77824	0	0
79872	0	0
81920	0	0
83968	0	0
86016	0	0
88064	0	0
90112	0	0
92160	0	0
94208	0	0
96256	0	0
98304	0	0
100352	0	0
102400	0	0
104448	0	0
106496	0	0
108544	0	0
110592	0	0
112640	0	0
114688	0	0
116736	0	0
118784	0	0
120832	0	0
122880	0	0
124928	0	0
126976	0	0
129024	0	0
131072	0	0
135168	0	0
139264	0	0
143360	0	0
147456	0	0
151552	0	0
155648	0	0
159744	0	0
163840	0	0
167936	0	0
172032	0	0
176128	0	0
180224	0	0
184320	0	0
188416	0	0
192512	0	0
196608	0	0
200704	0	0
204800	0	0
208896	0	0
212992	0	0
217088	0	0
221184	0	0
225280	0	0
229376	0	0
233472	0	0
237568	0	0
241664	0	0
245760	0	0
249856	0	0
253952	0	0
258048	0	0
262144	0	0
270336	0	0
278528	0	0
286720	0	0
294912	0	0
303104	0	0
311296	0	0
319488	0	0
327680	0	0
335872	0	0
344064	0	0
352256	0	0
360448	0	0
368640	0	0
376832	0	0
385024	0	0
393216	0	0
401408	0	0
409600	0	0
417792	0	0
425984	0	0
434176	0	0
442368	0	0
450560	0	0
458752	0	0
466944	0	0
475136	0	0
483328	0	0
491520	0	0
499712	0	0
507904	0	0
516096	0	0
524288	0	0
540672	0	0
557056	0	0
573440	0	0
589824	0	0
606208	0	0
622592	0	0
638976	0	0
655360	0	0
671744	0	0
688128	0	0
704512	0	0
720896	0	0
737280	0	0
753664	0	0
770048	0	0
786432	0	0
802816	0	0
819200	0	0
835584	0	0
851968	0	0
868352	0	0
884736	0	0
901120	0	0
917504	0	0
933888	0	0
950272	0	0
966656	0	0
983040	0	0
999424	0	0
1015808	0	0
1032192	0	0
1048576	0	0
1081344	0	0
1114112	0	0
1146880	0	0
1179648	0	0
1212416	0	0
1245184	0	0
1277952	0	0
1310720	0	0
1343488	0	0
1376256	0	0
1409024	0	0
1441792	0	0
1474560	0	0
1507328	0	0
1540096	0	0
1572864	0	0
1605632	0	0
1638400	0	0
1671168	0	0
1703936	0	0
1736704	0	0
1769472	0	0
1802240	0	0
1835008	0	0
1867776	0	0
1900544	0	0
1933312	0	0
1966080	0	0
1998848	0	0
2031616	0	0
2064384	0	0
2097152	0	0
2162688	0	0
2228224	0	0
2293760	0	0
2359296	0	0
2424832	0	0
2490368	0	0
2555904	0	0
2621440	0	0
2686976	0	0
2752512	0	0
2818048	0	0
2883584	0	0
2949120	0	0
3014656	0	0
3080192	0	0
3145728	0	0
3211264	0	0
3276800	0	0
3342336	0	0
3407872	0	0
3473408	0	0
3538944	0	0
3604480	0	0
3670016	0	0
3735552	0	0
3801088	0	0
3866624	0	0
3932160	0	0
3997696	0	0
4063232	0	0
4128768	0	0
4194304	0	0
4325376	0	0
4456448	0	0
4587520	0	0
4718592	0	0
4849664	0	0
4980736	0	0
5111808	0	0
5242880	0	0
5373952	0	0
5505024	0	0
5636096	0	0
5767168	0	0
5898240	0	0
6029312	0	0
6160384	0	0
6291456	0	0
6422528	0	0
6553600	0	0
6684672	0	0
6815744	0	0
6946816	0	0
7077888	0	0
7208960	0	0
7340032	0	0
7471104	0	0
7602176	0	0
7733248	0	0
7864320	0	0
7995392	0	0
8126464	0	0
8257536	0	0
8388608	0	0
8650752	0	0
8912896	0	0
9175040	0	0
9437184	0	0
9699328	0	0
9961472	0	0
10223616	0	0
10485760	0	0
10747904	0	0
11010048	0	0
11272192	0	0
11534336	0	0
11796480	0	0
12058624	0	0
12320768	0	0
12582912	0	0
12845056	0	0
13107200	0	0
13369344	0	0
13631488	0	0
13893632	0	0
14155776	0	0
14417920	0	0
14680064	0	0
14942208	0	0
15204352	0	0
15466496	0	0
15728640	0	0
15990784	0	0
16252928	0	0
16515072	0	0
16777216	0	0
17301504	0	0
17825792	0	0
18350080	0	0
18874368	0	0
19398656	0	0
19922944	0	0
20447232	0	0
20971520	0	0
21495808	0	0
22020096	0	0
22544384	0	0
23068672	0	0
23592960	0	0
24117248	0	0
24641536	0	0
25165824	0	0
25690112	0	0
26214400	0	0
26738688	0	0
27262976	0	0
27787264	0	0
28311552	0	0
28835840	0	0
29360128	0	0
29884416	0	0
30408704	0	0
30932992	0	0
31457280	0	0
31981568	0	0
32505856	0	0
33030144	0	0
33554432	0	0
34603008	0	0
35651584	0	0
36700160	0	0
37748736	0	0
38797312	0	0
39845888	0	0
40894464	0	0
41943040	0	0
42991616	0	0
44040192	0	0
45088768	0	0
46137344	0	0
47185920	0	0
48234496	0	0
49283072	0	0
50331648	0	0
51380224	0	0
52428800	0	0
53477376	0	0
54525952	0	0
55574528	0	0
56623104	0	0
57671680	0	0
58720256	0	0
59768832	0	0
60817408	0	0
61865984	0	0
62914560	0	0
63963136	0	0
65011712	0	0
66060288	0	0
67108864	0	0
69206016	0	0
71303168	0	0
73400320	0	0
75497472	0	0
77594624	0	0
79691776	0	0
81788928	0	0
83886080	0	0
85983232	0	0
88080384	0	0
90177536	0	0
92274688	0	0
94371840	0	0
96468992	0	0
98566144	0	0
100663296	0	0
102760448	0	0
104857600	0	0
106954752	0	0
109051904	0	0
111149056	0	0
113246208	0	0
115343360	0	0
117440512	0	0
119537664	0	0
121634816	0	0
123731968	0	0
125829120	0	0
127926272	0	0
130023424	0	0
132120576	0	0
134217728	0	0
138412032	0	0
142606336	0	0
146800640	0	0
150994944	0	0
155189248	0	0
159383552	0	0
163577856	0	0
167772160	0	0
171966464	0	0
176160768	0	0
180355072	0	0
184549376	0	0
188743680	0	0
192937984	0	0
197132288	0	0
201326592	0	0
205520896	0	0
209715200	0	0
213909504	0	0
218103808	0	0
222298112	0	0
226492416	0	0
230686720	0	0
234881024	0	0
239075328	0	0
243269632	0	0
247463936	0	0
251658240	0	0
255852544	0	0
260046848	0	0
264241152	0	0
268435456	0	0
276824064	0	0
285212672	0	0
293601280	0	0
301989888	0	0
310378496	0	0
318767104	0	0
327155712	0	0
335544320	0	0
343932928	0	0
352321536	0	0
360710144	0	0
369098752	0	0
377487360	0	0
385875968	0	0
394264576	0	0
402653184	0	0
411041792	0	0
419430400	0	0
427819008	0	0
436207616	0	0
444596224	0	0
452984832	0	0
461373440	0	0
469762048	0	0
478150656	0	0
486539264	0	0
494927872	0	0
503316480	0	0
511705088	0	0
520093696	0	0
528482304	0	0
536870912	0	0
553648128	0	0
570425344	0	0
587202560	0	0
603979776	0	0
620756992	0	0
637534208	0	0
654311424	0	0
671088640	0	0
687865856	0	0
704643072	0	0
721420288	0	0
738197504	0	0
754974720	0	0
771751936	0	0
788529152	0	0
805306368	0	0
822083584	0	0
838860800	0	0
855638016	0	0
872415232	0	0
889192448	0	0
905969664	0	0
922746880	0	0
939524096	0	0
956301312	0	0
973078528	0	0
989855744	0	0
1006632960	0	0
1023410176	0	0
1040187392	0	0
1056964608	0	0
1073741824	0	0
1107296256	0	0
1140850688	0	0
1174405120	0	0
1207959552	0	0
1241513984	0	0
1275068416	0	0
1308622848	0	0
1342177280	0	0
1375731712	0	0
1409286144	0	0
1442840576	0	0
1476395008	0	0
1509949440	0	0
1543503872	0	0
1577058304	0	0
1610612736	0	0
1644167168	0	0
1677721600	0	0
1711276032	0	0
1744830464	0	0
1778384896	0	0
1811939328	0	0
1845493760	0	0
1879048192	0	0
1912602624	0	0
1946157056	0	0
1979711488	0	0
2013265920	0	0
2046820352	0	0
2080374784	0	0
2113929216	0	0
2147483648	0	0
2214592512	0	0
2281701376	0	0
2348810240	0	0
2415919104	0	0
2483027968	0	0
2550136832	0	0
2617245696	0	0
2684354560	0	0
2751463424	0	0
2818572288	0	0
2885681152	0	0
2952790016	0	0
3019898880	0	0
3087007744	0	0
3154116608	0	0
3221225472	0	0
3288334336	0	0
3355443200	0	0
3422552064	0	0
3489660928	0	0
3556769792	0	0
3623878656	0	0
3690987520	0	0
3758096384	0	0
3825205248	0	0
3892314112	0	0
3959422976	0	0
4026531840	0	0
4093640704	0	0
4160749568	0	0
4227858432	0	0
~~~~~~~~~~Reuse Distance Profiler output end~~~~~~~~~~


DRAM Statistics
 CHANNEL 0
 RQ ROW_BUFFER_HIT:    1766416  ROW_BUFFER_MISS:   37358002
 DBUS AVG_CONGESTED_CYCLE:    3.99203
 WQ ROW_BUFFER_HIT:      98117  ROW_BUFFER_MISS:   32128199  FULL:          0


CPU 0 Branch Prediction Accuracy: 94.5645% MPKI: 11.6727 Average ROB Occupancy at Mispredict: 38.2703
Branch type MPKI
BRANCH_DIRECT_JUMP: 3.33333e-05
BRANCH_INDIRECT: 1.33333e-06
BRANCH_CONDITIONAL: 11.6716
BRANCH_DIRECT_CALL: 2.8e-05
BRANCH_INDIRECT_CALL: 0.00102533
BRANCH_RETURN: 2.6e-05

