
*** ChampSim Multicore Out-of-Order Simulator ***

Warmup Instructions: 50000000
Simulation Instructions: 1500000000
Number of CPUs: 1
Off-chip DRAM Size: 4 GiB Channels: 1 Width: 64-bit Data Rate: 3200 MT/s

VirtualMemory physical capacity: 8588881920 num_ppages: 2096895
VirtualMemory page size: 4096 log2_page_size: 12

CPU 0 runs traces/605.mcf_s-1644B.champsimtrace.xz
CPU 0 Bimodal branch predictor
Basic BTB sets: 1024 ways: 8 indirect buffer size: 4096 RAS size: 64
Initializing LRU.
Initializing LRU.
Initializing LRU.
Initializing LRU.
Initializing rdLRU.
Initializing LRU.
Initializing LRU.
Heartbeat CPU 0 instructions: 2000000 cycles: 700141 heartbeat IPC: 2.85657 cumulative IPC: 2.85657 (Simulation time: 0 hr 1 min 40 sec) 
Heartbeat CPU 0 instructions: 4000000 cycles: 1398893 heartbeat IPC: 2.86225 cumulative IPC: 2.8594 (Simulation time: 0 hr 3 min 19 sec) 
Heartbeat CPU 0 instructions: 6000000 cycles: 2099083 heartbeat IPC: 2.85637 cumulative IPC: 2.85839 (Simulation time: 0 hr 4 min 53 sec) 
Heartbeat CPU 0 instructions: 8000001 cycles: 2799312 heartbeat IPC: 2.85621 cumulative IPC: 2.85785 (Simulation time: 0 hr 6 min 14 sec) 
Heartbeat CPU 0 instructions: 10000004 cycles: 3499467 heartbeat IPC: 2.85651 cumulative IPC: 2.85758 (Simulation time: 0 hr 7 min 35 sec) 
Heartbeat CPU 0 instructions: 12000003 cycles: 4198960 heartbeat IPC: 2.85921 cumulative IPC: 2.85785 (Simulation time: 0 hr 8 min 56 sec) 
Heartbeat CPU 0 instructions: 14000003 cycles: 4898779 heartbeat IPC: 2.85788 cumulative IPC: 2.85786 (Simulation time: 0 hr 10 min 16 sec) 
Heartbeat CPU 0 instructions: 16000004 cycles: 5599609 heartbeat IPC: 2.85376 cumulative IPC: 2.85734 (Simulation time: 0 hr 11 min 39 sec) 
Heartbeat CPU 0 instructions: 18000000 cycles: 6297590 heartbeat IPC: 2.8654 cumulative IPC: 2.85824 (Simulation time: 0 hr 13 min 0 sec) 
Heartbeat CPU 0 instructions: 20000003 cycles: 6997680 heartbeat IPC: 2.85678 cumulative IPC: 2.85809 (Simulation time: 0 hr 14 min 21 sec) 
Heartbeat CPU 0 instructions: 22000001 cycles: 7696716 heartbeat IPC: 2.86108 cumulative IPC: 2.85836 (Simulation time: 0 hr 15 min 42 sec) 
Heartbeat CPU 0 instructions: 24000002 cycles: 8397624 heartbeat IPC: 2.85344 cumulative IPC: 2.85795 (Simulation time: 0 hr 16 min 59 sec) 
Heartbeat CPU 0 instructions: 26000001 cycles: 9097591 heartbeat IPC: 2.85728 cumulative IPC: 2.8579 (Simulation time: 0 hr 18 min 18 sec) 
Heartbeat CPU 0 instructions: 28000004 cycles: 9795020 heartbeat IPC: 2.86768 cumulative IPC: 2.8586 (Simulation time: 0 hr 19 min 37 sec) 
Heartbeat CPU 0 instructions: 30000003 cycles: 10496360 heartbeat IPC: 2.85168 cumulative IPC: 2.85813 (Simulation time: 0 hr 20 min 53 sec) 
Heartbeat CPU 0 instructions: 32000003 cycles: 11195031 heartbeat IPC: 2.86258 cumulative IPC: 2.85841 (Simulation time: 0 hr 22 min 15 sec) 
Heartbeat CPU 0 instructions: 34000003 cycles: 11895701 heartbeat IPC: 2.85441 cumulative IPC: 2.85818 (Simulation time: 0 hr 23 min 34 sec) 
Heartbeat CPU 0 instructions: 36000000 cycles: 12595164 heartbeat IPC: 2.85933 cumulative IPC: 2.85824 (Simulation time: 0 hr 24 min 53 sec) 
Heartbeat CPU 0 instructions: 38000000 cycles: 13292623 heartbeat IPC: 2.86755 cumulative IPC: 2.85873 (Simulation time: 0 hr 26 min 8 sec) 
Heartbeat CPU 0 instructions: 40000002 cycles: 13995032 heartbeat IPC: 2.84735 cumulative IPC: 2.85816 (Simulation time: 0 hr 27 min 32 sec) 
Heartbeat CPU 0 instructions: 42000001 cycles: 14692880 heartbeat IPC: 2.86595 cumulative IPC: 2.85853 (Simulation time: 0 hr 28 min 53 sec) 
Heartbeat CPU 0 instructions: 44000003 cycles: 15391297 heartbeat IPC: 2.86362 cumulative IPC: 2.85876 (Simulation time: 0 hr 30 min 18 sec) 
Heartbeat CPU 0 instructions: 46000003 cycles: 16092972 heartbeat IPC: 2.85032 cumulative IPC: 2.85839 (Simulation time: 0 hr 31 min 41 sec) 
Heartbeat CPU 0 instructions: 48000002 cycles: 16793865 heartbeat IPC: 2.8535 cumulative IPC: 2.85819 (Simulation time: 0 hr 33 min 9 sec) 
Heartbeat CPU 0 instructions: 50000004 cycles: 17493508 heartbeat IPC: 2.8586 cumulative IPC: 2.8582 (Simulation time: 0 hr 34 min 39 sec) 

Warmup complete CPU 0 instructions: 50000004 cycles: 17493508 (Simulation time: 0 hr 34 min 39 sec) 

Heartbeat CPU 0 instructions: 52000004 cycles: 32269478 heartbeat IPC: 0.135355 cumulative IPC: 0.135355 (Simulation time: 0 hr 39 min 45 sec) 

Region of Interest Statistics
cpu0_DTLB TOTAL     ACCESS:    1177136  HIT:    1119201  MISS:      57935
cpu0_DTLB LOAD      ACCESS:     566280  HIT:     552694  MISS:      13586
cpu0_DTLB RFO       ACCESS:     610856  HIT:     566507  MISS:      44349
cpu0_DTLB PREFETCH  ACCESS:          0  HIT:          0  MISS:          0
cpu0_DTLB WRITEBACK ACCESS:          0  HIT:          0  MISS:          0
cpu0_ITLB TOTAL     ACCESS:     200396  HIT:     200396  MISS:          0
cpu0_ITLB LOAD      ACCESS:     200396  HIT:     200396  MISS:          0
cpu0_ITLB RFO       ACCESS:          0  HIT:          0  MISS:          0
cpu0_ITLB PREFETCH  ACCESS:          0  HIT:          0  MISS:          0
cpu0_ITLB WRITEBACK ACCESS:          0  HIT:          0  MISS:          0
cpu0_L1I TOTAL     ACCESS:      28807  HIT:      28807  MISS:          0
cpu0_L1I LOAD      ACCESS:      28807  HIT:      28807  MISS:          0
cpu0_L1I RFO       ACCESS:          0  HIT:          0  MISS:          0
cpu0_L1I PREFETCH  ACCESS:          0  HIT:          0  MISS:          0
cpu0_L1I WRITEBACK ACCESS:          0  HIT:          0  MISS:          0
cpu0_STLB TOTAL     ACCESS:      57935  HIT:      10024  MISS:      47911
cpu0_STLB LOAD      ACCESS:      13586  HIT:       9876  MISS:       3710
cpu0_STLB RFO       ACCESS:      44349  HIT:        148  MISS:      44201
cpu0_STLB PREFETCH  ACCESS:          0  HIT:          0  MISS:          0
cpu0_STLB WRITEBACK ACCESS:          0  HIT:          0  MISS:          0
cpu0_L1D TOTAL     ACCESS:    1053451  HIT:     870663  MISS:     182788
cpu0_L1D LOAD      ACCESS:     610639  HIT:     518330  MISS:      92309
cpu0_L1D RFO       ACCESS:     394928  HIT:     307601  MISS:      87327
cpu0_L1D PREFETCH  ACCESS:          0  HIT:          0  MISS:          0
cpu0_L1D WRITEBACK ACCESS:          0  HIT:          0  MISS:          0
cpu0_L2C TOTAL     ACCESS:     362446  HIT:     194568  MISS:     167878
cpu0_L2C LOAD      ACCESS:      92307  HIT:      12002  MISS:      80305
cpu0_L2C RFO       ACCESS:      87327  HIT:          2  MISS:      87325
cpu0_L2C PREFETCH  ACCESS:          0  HIT:          0  MISS:          0
cpu0_L2C WRITEBACK ACCESS:     179660  HIT:     179619  MISS:         41
LLC TOTAL     ACCESS:     335476  HIT:     197061  MISS:     138415
LLC LOAD      ACCESS:      80300  HIT:      27585  MISS:      52715
LLC RFO       ACCESS:      87325  HIT:       1660  MISS:      85665
LLC PREFETCH  ACCESS:          0  HIT:          0  MISS:          0
LLC WRITEBACK ACCESS:     167644  HIT:     167644  MISS:          0
Heartbeat CPU 0 instructions: 54000001 cycles: 46982153 heartbeat IPC: 0.135937 cumulative IPC: 0.135645 (Simulation time: 0 hr 45 min 21 sec) 

Region of Interest Statistics
cpu0_DTLB TOTAL     ACCESS:    2354299  HIT:    2238998  MISS:     115301
cpu0_DTLB LOAD      ACCESS:    1132875  HIT:    1106287  MISS:      26588
cpu0_DTLB RFO       ACCESS:    1221424  HIT:    1132711  MISS:      88713
cpu0_DTLB PREFETCH  ACCESS:          0  HIT:          0  MISS:          0
cpu0_DTLB WRITEBACK ACCESS:          0  HIT:          0  MISS:          0
cpu0_ITLB TOTAL     ACCESS:     398597  HIT:     398597  MISS:          0
cpu0_ITLB LOAD      ACCESS:     398597  HIT:     398597  MISS:          0
cpu0_ITLB RFO       ACCESS:          0  HIT:          0  MISS:          0
cpu0_ITLB PREFETCH  ACCESS:          0  HIT:          0  MISS:          0
cpu0_ITLB WRITEBACK ACCESS:          0  HIT:          0  MISS:          0
cpu0_L1I TOTAL     ACCESS:      60932  HIT:      60932  MISS:          0
cpu0_L1I LOAD      ACCESS:      60932  HIT:      60932  MISS:          0
cpu0_L1I RFO       ACCESS:          0  HIT:          0  MISS:          0
cpu0_L1I PREFETCH  ACCESS:          0  HIT:          0  MISS:          0
cpu0_L1I WRITEBACK ACCESS:          0  HIT:          0  MISS:          0
cpu0_STLB TOTAL     ACCESS:     115301  HIT:      19755  MISS:      95546
cpu0_STLB LOAD      ACCESS:      26588  HIT:      19483  MISS:       7105
cpu0_STLB RFO       ACCESS:      88713  HIT:        272  MISS:      88441
cpu0_STLB PREFETCH  ACCESS:          0  HIT:          0  MISS:          0
cpu0_STLB WRITEBACK ACCESS:          0  HIT:          0  MISS:          0
cpu0_L1D TOTAL     ACCESS:    2104241  HIT:    1738657  MISS:     365584
cpu0_L1D LOAD      ACCESS:    1219936  HIT:    1035142  MISS:     184794
cpu0_L1D RFO       ACCESS:     788824  HIT:     614219  MISS:     174605
cpu0_L1D PREFETCH  ACCESS:          0  HIT:          0  MISS:          0
cpu0_L1D WRITEBACK ACCESS:          0  HIT:          0  MISS:          0
cpu0_L2C TOTAL     ACCESS:     725000  HIT:     389439  MISS:     335561
cpu0_L2C LOAD      ACCESS:     184789  HIT:      24324  MISS:     160465
cpu0_L2C RFO       ACCESS:     174605  HIT:          2  MISS:     174603
cpu0_L2C PREFETCH  ACCESS:          0  HIT:          0  MISS:          0
cpu0_L2C WRITEBACK ACCESS:     359421  HIT:     359337  MISS:         84
LLC TOTAL     ACCESS:     670560  HIT:     394390  MISS:     276170
LLC LOAD      ACCESS:     160459  HIT:      55601  MISS:     104858
LLC RFO       ACCESS:     174603  HIT:       3360  MISS:     171243
LLC PREFETCH  ACCESS:          0  HIT:          0  MISS:          0
LLC WRITEBACK ACCESS:     335089  HIT:     335088  MISS:          1
Heartbeat CPU 0 instructions: 56000001 cycles: 61808415 heartbeat IPC: 0.134896 cumulative IPC: 0.135395 (Simulation time: 0 hr 51 min 5 sec) 

Region of Interest Statistics
cpu0_DTLB TOTAL     ACCESS:    3531706  HIT:    3359106  MISS:     172600
cpu0_DTLB LOAD      ACCESS:    1698614  HIT:    1659199  MISS:      39415
cpu0_DTLB RFO       ACCESS:    1833092  HIT:    1699907  MISS:     133185
cpu0_DTLB PREFETCH  ACCESS:          0  HIT:          0  MISS:          0
cpu0_DTLB WRITEBACK ACCESS:          0  HIT:          0  MISS:          0
cpu0_ITLB TOTAL     ACCESS:     601060  HIT:     601060  MISS:          0
cpu0_ITLB LOAD      ACCESS:     601060  HIT:     601060  MISS:          0
cpu0_ITLB RFO       ACCESS:          0  HIT:          0  MISS:          0
cpu0_ITLB PREFETCH  ACCESS:          0  HIT:          0  MISS:          0
cpu0_ITLB WRITEBACK ACCESS:          0  HIT:          0  MISS:          0
cpu0_L1I TOTAL     ACCESS:      86729  HIT:      86729  MISS:          0
cpu0_L1I LOAD      ACCESS:      86729  HIT:      86729  MISS:          0
cpu0_L1I RFO       ACCESS:          0  HIT:          0  MISS:          0
cpu0_L1I PREFETCH  ACCESS:          0  HIT:          0  MISS:          0
cpu0_L1I WRITEBACK ACCESS:          0  HIT:          0  MISS:          0
cpu0_STLB TOTAL     ACCESS:     172600  HIT:      29238  MISS:     143362
cpu0_STLB LOAD      ACCESS:      39415  HIT:      28701  MISS:      10714
cpu0_STLB RFO       ACCESS:     133185  HIT:        537  MISS:     132648
cpu0_STLB PREFETCH  ACCESS:          0  HIT:          0  MISS:          0
cpu0_STLB WRITEBACK ACCESS:          0  HIT:          0  MISS:          0
cpu0_L1D TOTAL     ACCESS:    3158442  HIT:    2609523  MISS:     548919
cpu0_L1D LOAD      ACCESS:    1831149  HIT:    1553570  MISS:     277579
cpu0_L1D RFO       ACCESS:    1184022  HIT:     921982  MISS:     262040
cpu0_L1D PREFETCH  ACCESS:          0  HIT:          0  MISS:          0
cpu0_L1D WRITEBACK ACCESS:          0  HIT:          0  MISS:          0
cpu0_L2C TOTAL     ACCESS:    1088556  HIT:     583688  MISS:     504868
cpu0_L2C LOAD      ACCESS:     277574  HIT:      35491  MISS:     242083
cpu0_L2C RFO       ACCESS:     262040  HIT:          5  MISS:     262035
cpu0_L2C PREFETCH  ACCESS:          0  HIT:          0  MISS:          0
cpu0_L2C WRITEBACK ACCESS:     539642  HIT:     539515  MISS:        127
LLC TOTAL     ACCESS:    1008882  HIT:     594126  MISS:     414756
LLC LOAD      ACCESS:     242076  HIT:      84488  MISS:     157588
LLC RFO       ACCESS:     262035  HIT:       4972  MISS:     257063
LLC PREFETCH  ACCESS:          0  HIT:          0  MISS:          0
LLC WRITEBACK ACCESS:     504148  HIT:     504146  MISS:          2
Heartbeat CPU 0 instructions: 58000001 cycles: 76711356 heartbeat IPC: 0.134202 cumulative IPC: 0.135094 (Simulation time: 0 hr 56 min 37 sec) 

Region of Interest Statistics
cpu0_DTLB TOTAL     ACCESS:    4713504  HIT:    4482917  MISS:     230587
cpu0_DTLB LOAD      ACCESS:    2267573  HIT:    2214752  MISS:      52821
cpu0_DTLB RFO       ACCESS:    2445931  HIT:    2268165  MISS:     177766
cpu0_DTLB PREFETCH  ACCESS:          0  HIT:          0  MISS:          0
cpu0_DTLB WRITEBACK ACCESS:          0  HIT:          0  MISS:          0
cpu0_ITLB TOTAL     ACCESS:     806581  HIT:     806581  MISS:          0
cpu0_ITLB LOAD      ACCESS:     806581  HIT:     806581  MISS:          0
cpu0_ITLB RFO       ACCESS:          0  HIT:          0  MISS:          0
cpu0_ITLB PREFETCH  ACCESS:          0  HIT:          0  MISS:          0
cpu0_ITLB WRITEBACK ACCESS:          0  HIT:          0  MISS:          0
cpu0_L1I TOTAL     ACCESS:     108269  HIT:     108269  MISS:          0
cpu0_L1I LOAD      ACCESS:     108269  HIT:     108269  MISS:          0
cpu0_L1I RFO       ACCESS:          0  HIT:          0  MISS:          0
cpu0_L1I PREFETCH  ACCESS:          0  HIT:          0  MISS:          0
cpu0_L1I WRITEBACK ACCESS:          0  HIT:          0  MISS:          0
cpu0_STLB TOTAL     ACCESS:     230587  HIT:      39187  MISS:     191400
cpu0_STLB LOAD      ACCESS:      52821  HIT:      38497  MISS:      14324
cpu0_STLB RFO       ACCESS:     177766  HIT:        690  MISS:     177076
cpu0_STLB PREFETCH  ACCESS:          0  HIT:          0  MISS:          0
cpu0_STLB WRITEBACK ACCESS:          0  HIT:          0  MISS:          0
cpu0_L1D TOTAL     ACCESS:    4218618  HIT:    3486299  MISS:     732319
cpu0_L1D LOAD      ACCESS:    2447576  HIT:    2077250  MISS:     370326
cpu0_L1D RFO       ACCESS:    1579763  HIT:    1230117  MISS:     349646
cpu0_L1D PREFETCH  ACCESS:          0  HIT:          0  MISS:          0
cpu0_L1D WRITEBACK ACCESS:          0  HIT:          0  MISS:          0
cpu0_L2C TOTAL     ACCESS:    1452308  HIT:     779934  MISS:     672374
cpu0_L2C LOAD      ACCESS:     370321  HIT:      48601  MISS:     321720
cpu0_L2C RFO       ACCESS:     349646  HIT:         20  MISS:     349626
cpu0_L2C PREFETCH  ACCESS:          0  HIT:          0  MISS:          0
cpu0_L2C WRITEBACK ACCESS:     719994  HIT:     719826  MISS:        168
LLC TOTAL     ACCESS:    1343582  HIT:     790359  MISS:     553223
LLC LOAD      ACCESS:     321713  HIT:     111507  MISS:     210206
LLC RFO       ACCESS:     349626  HIT:       6752  MISS:     342874
LLC PREFETCH  ACCESS:          0  HIT:          0  MISS:          0
LLC WRITEBACK ACCESS:     671383  HIT:     671380  MISS:          3
Heartbeat CPU 0 instructions: 60000002 cycles: 91441104 heartbeat IPC: 0.13578 cumulative IPC: 0.135231 (Simulation time: 1 hr 2 min 10 sec) 

Region of Interest Statistics
cpu0_DTLB TOTAL     ACCESS:    5892986  HIT:    5604406  MISS:     288580
cpu0_DTLB LOAD      ACCESS:    2834978  HIT:    2768497  MISS:      66481
cpu0_DTLB RFO       ACCESS:    3058008  HIT:    2835909  MISS:     222099
cpu0_DTLB PREFETCH  ACCESS:          0  HIT:          0  MISS:          0
cpu0_DTLB WRITEBACK ACCESS:          0  HIT:          0  MISS:          0
cpu0_ITLB TOTAL     ACCESS:    1004433  HIT:    1004433  MISS:          0
cpu0_ITLB LOAD      ACCESS:    1004433  HIT:    1004433  MISS:          0
cpu0_ITLB RFO       ACCESS:          0  HIT:          0  MISS:          0
cpu0_ITLB PREFETCH  ACCESS:          0  HIT:          0  MISS:          0
cpu0_ITLB WRITEBACK ACCESS:          0  HIT:          0  MISS:          0
cpu0_L1I TOTAL     ACCESS:     141981  HIT:     141981  MISS:          0
cpu0_L1I LOAD      ACCESS:     141981  HIT:     141981  MISS:          0
cpu0_L1I RFO       ACCESS:          0  HIT:          0  MISS:          0
cpu0_L1I PREFETCH  ACCESS:          0  HIT:          0  MISS:          0
cpu0_L1I WRITEBACK ACCESS:          0  HIT:          0  MISS:          0
cpu0_STLB TOTAL     ACCESS:     288580  HIT:      49553  MISS:     239027
cpu0_STLB LOAD      ACCESS:      66481  HIT:      48701  MISS:      17780
cpu0_STLB RFO       ACCESS:     222099  HIT:        852  MISS:     221247
cpu0_STLB PREFETCH  ACCESS:          0  HIT:          0  MISS:          0
cpu0_STLB WRITEBACK ACCESS:          0  HIT:          0  MISS:          0
cpu0_L1D TOTAL     ACCESS:    5273268  HIT:    4357597  MISS:     915671
cpu0_L1D LOAD      ACCESS:    3058252  HIT:    2595154  MISS:     463098
cpu0_L1D RFO       ACCESS:    1976140  HIT:    1538996  MISS:     437144
cpu0_L1D PREFETCH  ACCESS:          0  HIT:          0  MISS:          0
cpu0_L1D WRITEBACK ACCESS:          0  HIT:          0  MISS:          0
cpu0_L2C TOTAL     ACCESS:    1815937  HIT:     976786  MISS:     839151
cpu0_L2C LOAD      ACCESS:     463092  HIT:      62324  MISS:     400768
cpu0_L2C RFO       ACCESS:     437144  HIT:         73  MISS:     437071
cpu0_L2C PREFETCH  ACCESS:          0  HIT:          0  MISS:          0
cpu0_L2C WRITEBACK ACCESS:     900272  HIT:     900060  MISS:        212
LLC TOTAL     ACCESS:    1676817  HIT:     985870  MISS:     690947
LLC LOAD      ACCESS:     400759  HIT:     137988  MISS:     262771
LLC RFO       ACCESS:     437071  HIT:       9070  MISS:     428001
LLC PREFETCH  ACCESS:          0  HIT:          0  MISS:          0
LLC WRITEBACK ACCESS:     837887  HIT:     837883  MISS:          4
Heartbeat CPU 0 instructions: 62000001 cycles: 106139380 heartbeat IPC: 0.13607 cumulative IPC: 0.13537 (Simulation time: 1 hr 8 min 1 sec) 

Region of Interest Statistics
cpu0_DTLB TOTAL     ACCESS:    7069248  HIT:    6722576  MISS:     346672
cpu0_DTLB LOAD      ACCESS:    3400753  HIT:    3320563  MISS:      80190
cpu0_DTLB RFO       ACCESS:    3668495  HIT:    3402013  MISS:     266482
cpu0_DTLB PREFETCH  ACCESS:          0  HIT:          0  MISS:          0
cpu0_DTLB WRITEBACK ACCESS:          0  HIT:          0  MISS:          0
cpu0_ITLB TOTAL     ACCESS:    1200188  HIT:    1200188  MISS:          0
cpu0_ITLB LOAD      ACCESS:    1200188  HIT:    1200188  MISS:          0
cpu0_ITLB RFO       ACCESS:          0  HIT:          0  MISS:          0
cpu0_ITLB PREFETCH  ACCESS:          0  HIT:          0  MISS:          0
cpu0_ITLB WRITEBACK ACCESS:          0  HIT:          0  MISS:          0
cpu0_L1I TOTAL     ACCESS:     178122  HIT:     178122  MISS:          0
cpu0_L1I LOAD      ACCESS:     178122  HIT:     178122  MISS:          0
cpu0_L1I RFO       ACCESS:          0  HIT:          0  MISS:          0
cpu0_L1I PREFETCH  ACCESS:          0  HIT:          0  MISS:          0
cpu0_L1I WRITEBACK ACCESS:          0  HIT:          0  MISS:          0
cpu0_STLB TOTAL     ACCESS:     346672  HIT:      60039  MISS:     286633
cpu0_STLB LOAD      ACCESS:      80190  HIT:      58882  MISS:      21308
cpu0_STLB RFO       ACCESS:     266482  HIT:       1157  MISS:     265325
cpu0_STLB PREFETCH  ACCESS:          0  HIT:          0  MISS:          0
cpu0_STLB WRITEBACK ACCESS:          0  HIT:          0  MISS:          0
cpu0_L1D TOTAL     ACCESS:    6321953  HIT:    5223395  MISS:    1098558
cpu0_L1D LOAD      ACCESS:    3665614  HIT:    3110044  MISS:     555570
cpu0_L1D RFO       ACCESS:    2369879  HIT:    1845472  MISS:     524407
cpu0_L1D PREFETCH  ACCESS:          0  HIT:          0  MISS:          0
cpu0_L1D WRITEBACK ACCESS:          0  HIT:          0  MISS:          0
cpu0_L2C TOTAL     ACCESS:    2178537  HIT:    1172609  MISS:    1005928
cpu0_L2C LOAD      ACCESS:     555562  HIT:      75545  MISS:     480017
cpu0_L2C RFO       ACCESS:     524407  HIT:         73  MISS:     524334
cpu0_L2C PREFETCH  ACCESS:          0  HIT:          0  MISS:          0
cpu0_L2C WRITEBACK ACCESS:    1079987  HIT:    1079722  MISS:        265
LLC TOTAL     ACCESS:    2010060  HIT:    1180579  MISS:     829481
LLC LOAD      ACCESS:     480006  HIT:     164688  MISS:     315318
LLC RFO       ACCESS:     524334  HIT:      10379  MISS:     513955
LLC PREFETCH  ACCESS:          0  HIT:          0  MISS:          0
LLC WRITEBACK ACCESS:    1004408  HIT:    1004403  MISS:          5
Heartbeat CPU 0 instructions: 64000004 cycles: 121159015 heartbeat IPC: 0.133159 cumulative IPC: 0.13505 (Simulation time: 1 hr 13 min 29 sec) 

Region of Interest Statistics
cpu0_DTLB TOTAL     ACCESS:    8251821  HIT:    7847246  MISS:     404575
cpu0_DTLB LOAD      ACCESS:    3969573  HIT:    3876141  MISS:      93432
cpu0_DTLB RFO       ACCESS:    4282248  HIT:    3971105  MISS:     311143
cpu0_DTLB PREFETCH  ACCESS:          0  HIT:          0  MISS:          0
cpu0_DTLB WRITEBACK ACCESS:          0  HIT:          0  MISS:          0
cpu0_ITLB TOTAL     ACCESS:    1402749  HIT:    1402749  MISS:          0
cpu0_ITLB LOAD      ACCESS:    1402749  HIT:    1402749  MISS:          0
cpu0_ITLB RFO       ACCESS:          0  HIT:          0  MISS:          0
cpu0_ITLB PREFETCH  ACCESS:          0  HIT:          0  MISS:          0
cpu0_ITLB WRITEBACK ACCESS:          0  HIT:          0  MISS:          0
cpu0_L1I TOTAL     ACCESS:     205098  HIT:     205098  MISS:          0
cpu0_L1I LOAD      ACCESS:     205098  HIT:     205098  MISS:          0
cpu0_L1I RFO       ACCESS:          0  HIT:          0  MISS:          0
cpu0_L1I PREFETCH  ACCESS:          0  HIT:          0  MISS:          0
cpu0_L1I WRITEBACK ACCESS:          0  HIT:          0  MISS:          0
cpu0_STLB TOTAL     ACCESS:     404575  HIT:      69864  MISS:     334711
cpu0_STLB LOAD      ACCESS:      93432  HIT:      68494  MISS:      24938
cpu0_STLB RFO       ACCESS:     311143  HIT:       1370  MISS:     309773
cpu0_STLB PREFETCH  ACCESS:          0  HIT:          0  MISS:          0
cpu0_STLB WRITEBACK ACCESS:          0  HIT:          0  MISS:          0
cpu0_L1D TOTAL     ACCESS:    7380643  HIT:    6098163  MISS:    1282480
cpu0_L1D LOAD      ACCESS:    4280547  HIT:    3631897  MISS:     648650
cpu0_L1D RFO       ACCESS:    2765583  HIT:    2153440  MISS:     612143
cpu0_L1D PREFETCH  ACCESS:          0  HIT:          0  MISS:          0
cpu0_L1D WRITEBACK ACCESS:          0  HIT:          0  MISS:          0
cpu0_L2C TOTAL     ACCESS:    2543271  HIT:    1369819  MISS:    1173452
cpu0_L2C LOAD      ACCESS:     648638  HIT:      89095  MISS:     559543
cpu0_L2C RFO       ACCESS:     612143  HIT:         75  MISS:     612068
cpu0_L2C PREFETCH  ACCESS:          0  HIT:          0  MISS:          0
cpu0_L2C WRITEBACK ACCESS:    1260803  HIT:    1260489  MISS:        314
LLC TOTAL     ACCESS:    2344804  HIT:    1375687  MISS:     969117
LLC LOAD      ACCESS:     559530  HIT:     190935  MISS:     368595
LLC RFO       ACCESS:     612068  HIT:      11792  MISS:     600276
LLC PREFETCH  ACCESS:          0  HIT:          0  MISS:          0
LLC WRITEBACK ACCESS:    1171679  HIT:    1171674  MISS:          5
Heartbeat CPU 0 instructions: 66000003 cycles: 135920695 heartbeat IPC: 0.135486 cumulative IPC: 0.135104 (Simulation time: 1 hr 19 min 7 sec) 

Region of Interest Statistics
cpu0_DTLB TOTAL     ACCESS:    9429436  HIT:    8967480  MISS:     461956
cpu0_DTLB LOAD      ACCESS:    4535532  HIT:    4429073  MISS:     106459
cpu0_DTLB RFO       ACCESS:    4893904  HIT:    4538407  MISS:     355497
cpu0_DTLB PREFETCH  ACCESS:          0  HIT:          0  MISS:          0
cpu0_DTLB WRITEBACK ACCESS:          0  HIT:          0  MISS:          0
cpu0_ITLB TOTAL     ACCESS:    1602866  HIT:    1602866  MISS:          0
cpu0_ITLB LOAD      ACCESS:    1602866  HIT:    1602866  MISS:          0
cpu0_ITLB RFO       ACCESS:          0  HIT:          0  MISS:          0
cpu0_ITLB PREFETCH  ACCESS:          0  HIT:          0  MISS:          0
cpu0_ITLB WRITEBACK ACCESS:          0  HIT:          0  MISS:          0
cpu0_L1I TOTAL     ACCESS:     234775  HIT:     234775  MISS:          0
cpu0_L1I LOAD      ACCESS:     234775  HIT:     234775  MISS:          0
cpu0_L1I RFO       ACCESS:          0  HIT:          0  MISS:          0
cpu0_L1I PREFETCH  ACCESS:          0  HIT:          0  MISS:          0
cpu0_L1I WRITEBACK ACCESS:          0  HIT:          0  MISS:          0
cpu0_STLB TOTAL     ACCESS:     461956  HIT:      79466  MISS:     382490
cpu0_STLB LOAD      ACCESS:     106459  HIT:      77909  MISS:      28550
cpu0_STLB RFO       ACCESS:     355497  HIT:       1557  MISS:     353940
cpu0_STLB PREFETCH  ACCESS:          0  HIT:          0  MISS:          0
cpu0_STLB WRITEBACK ACCESS:          0  HIT:          0  MISS:          0
cpu0_L1D TOTAL     ACCESS:    8433868  HIT:    6968038  MISS:    1465830
cpu0_L1D LOAD      ACCESS:    4890452  HIT:    4149133  MISS:     741319
cpu0_L1D RFO       ACCESS:    3161154  HIT:    2461572  MISS:     699582
cpu0_L1D PREFETCH  ACCESS:          0  HIT:          0  MISS:          0
cpu0_L1D WRITEBACK ACCESS:          0  HIT:          0  MISS:          0
cpu0_L2C TOTAL     ACCESS:    2906722  HIT:    1566815  MISS:    1339907
cpu0_L2C LOAD      ACCESS:     741306  HIT:     103009  MISS:     638297
cpu0_L2C RFO       ACCESS:     699582  HIT:         75  MISS:     699507
cpu0_L2C PREFETCH  ACCESS:          0  HIT:          0  MISS:          0
cpu0_L2C WRITEBACK ACCESS:    1440905  HIT:    1440538  MISS:        367
LLC TOTAL     ACCESS:    2677402  HIT:    1569821  MISS:    1107581
LLC LOAD      ACCESS:     638281  HIT:     216842  MISS:     421439
LLC RFO       ACCESS:     699507  HIT:      13665  MISS:     685842
LLC PREFETCH  ACCESS:          0  HIT:          0  MISS:          0
LLC WRITEBACK ACCESS:    1337878  HIT:    1337873  MISS:          5
Heartbeat CPU 0 instructions: 68000004 cycles: 150817904 heartbeat IPC: 0.134253 cumulative IPC: 0.135009 (Simulation time: 1 hr 24 min 40 sec) 

Region of Interest Statistics
cpu0_DTLB TOTAL     ACCESS:   10610673  HIT:   10091391  MISS:     519282
cpu0_DTLB LOAD      ACCESS:    5103870  HIT:    4984528  MISS:     119342
cpu0_DTLB RFO       ACCESS:    5506803  HIT:    5106863  MISS:     399940
cpu0_DTLB PREFETCH  ACCESS:          0  HIT:          0  MISS:          0
cpu0_DTLB WRITEBACK ACCESS:          0  HIT:          0  MISS:          0
cpu0_ITLB TOTAL     ACCESS:    1807094  HIT:    1807094  MISS:          0
cpu0_ITLB LOAD      ACCESS:    1807094  HIT:    1807094  MISS:          0
cpu0_ITLB RFO       ACCESS:          0  HIT:          0  MISS:          0
cpu0_ITLB PREFETCH  ACCESS:          0  HIT:          0  MISS:          0
cpu0_ITLB WRITEBACK ACCESS:          0  HIT:          0  MISS:          0
cpu0_L1I TOTAL     ACCESS:     258345  HIT:     258345  MISS:          0
cpu0_L1I LOAD      ACCESS:     258345  HIT:     258345  MISS:          0
cpu0_L1I RFO       ACCESS:          0  HIT:          0  MISS:          0
cpu0_L1I PREFETCH  ACCESS:          0  HIT:          0  MISS:          0
cpu0_L1I WRITEBACK ACCESS:          0  HIT:          0  MISS:          0
cpu0_STLB TOTAL     ACCESS:     519282  HIT:      88579  MISS:     430703
cpu0_STLB LOAD      ACCESS:     119342  HIT:      86886  MISS:      32456
cpu0_STLB RFO       ACCESS:     399940  HIT:       1693  MISS:     398247
cpu0_STLB PREFETCH  ACCESS:          0  HIT:          0  MISS:          0
cpu0_STLB WRITEBACK ACCESS:          0  HIT:          0  MISS:          0
cpu0_L1D TOTAL     ACCESS:    9492363  HIT:    7842798  MISS:    1649565
cpu0_L1D LOAD      ACCESS:    5505600  HIT:    4671418  MISS:     834182
cpu0_L1D RFO       ACCESS:    3556302  HIT:    2769108  MISS:     787194
cpu0_L1D PREFETCH  ACCESS:          0  HIT:          0  MISS:          0
cpu0_L1D WRITEBACK ACCESS:          0  HIT:          0  MISS:          0
cpu0_L2C TOTAL     ACCESS:    3270938  HIT:    1761600  MISS:    1509338
cpu0_L2C LOAD      ACCESS:     834167  HIT:     114357  MISS:     719810
cpu0_L2C RFO       ACCESS:     787194  HIT:         75  MISS:     787119
cpu0_L2C PREFETCH  ACCESS:          0  HIT:          0  MISS:          0
cpu0_L2C WRITEBACK ACCESS:    1621388  HIT:    1620970  MISS:        418
LLC TOTAL     ACCESS:    3015917  HIT:    1769165  MISS:    1246752
LLC LOAD      ACCESS:     719793  HIT:     245635  MISS:     474158
LLC RFO       ACCESS:     787119  HIT:      14851  MISS:     772268
LLC PREFETCH  ACCESS:          0  HIT:          0  MISS:          0
LLC WRITEBACK ACCESS:    1507014  HIT:    1507008  MISS:          6
Heartbeat CPU 0 instructions: 70000004 cycles: 165623537 heartbeat IPC: 0.135084 cumulative IPC: 0.135017 (Simulation time: 1 hr 30 min 26 sec) 

Region of Interest Statistics
cpu0_DTLB TOTAL     ACCESS:   11787950  HIT:   11210485  MISS:     577465
cpu0_DTLB LOAD      ACCESS:    5670070  HIT:    5536958  MISS:     133112
cpu0_DTLB RFO       ACCESS:    6117880  HIT:    5673527  MISS:     444353
cpu0_DTLB PREFETCH  ACCESS:          0  HIT:          0  MISS:          0
cpu0_DTLB WRITEBACK ACCESS:          0  HIT:          0  MISS:          0
cpu0_ITLB TOTAL     ACCESS:    2002176  HIT:    2002176  MISS:          0
cpu0_ITLB LOAD      ACCESS:    2002176  HIT:    2002176  MISS:          0
cpu0_ITLB RFO       ACCESS:          0  HIT:          0  MISS:          0
cpu0_ITLB PREFETCH  ACCESS:          0  HIT:          0  MISS:          0
cpu0_ITLB WRITEBACK ACCESS:          0  HIT:          0  MISS:          0
cpu0_L1I TOTAL     ACCESS:     295974  HIT:     295974  MISS:          0
cpu0_L1I LOAD      ACCESS:     295974  HIT:     295974  MISS:          0
cpu0_L1I RFO       ACCESS:          0  HIT:          0  MISS:          0
cpu0_L1I PREFETCH  ACCESS:          0  HIT:          0  MISS:          0
cpu0_L1I WRITEBACK ACCESS:          0  HIT:          0  MISS:          0
cpu0_STLB TOTAL     ACCESS:     577465  HIT:      98917  MISS:     478548
cpu0_STLB LOAD      ACCESS:     133112  HIT:      97047  MISS:      36065
cpu0_STLB RFO       ACCESS:     444353  HIT:       1870  MISS:     442483
cpu0_STLB PREFETCH  ACCESS:          0  HIT:          0  MISS:          0
cpu0_STLB WRITEBACK ACCESS:          0  HIT:          0  MISS:          0
cpu0_L1D TOTAL     ACCESS:   10542951  HIT:    8710117  MISS:    1832834
cpu0_L1D LOAD      ACCESS:    6113275  HIT:    5186415  MISS:     926860
cpu0_L1D RFO       ACCESS:    3951405  HIT:    3076857  MISS:     874548
cpu0_L1D PREFETCH  ACCESS:          0  HIT:          0  MISS:          0
cpu0_L1D WRITEBACK ACCESS:          0  HIT:          0  MISS:          0
cpu0_L2C TOTAL     ACCESS:    3634253  HIT:    1957936  MISS:    1676317
cpu0_L2C LOAD      ACCESS:     926845  HIT:     127612  MISS:     799233
cpu0_L2C RFO       ACCESS:     874548  HIT:        100  MISS:     874448
cpu0_L2C PREFETCH  ACCESS:          0  HIT:          0  MISS:          0
cpu0_L2C WRITEBACK ACCESS:    1801434  HIT:    1800974  MISS:        460
LLC TOTAL     ACCESS:    3349607  HIT:    1964356  MISS:    1385251
LLC LOAD      ACCESS:     799214  HIT:     272352  MISS:     526862
LLC RFO       ACCESS:     874448  HIT:      16419  MISS:     858029
LLC PREFETCH  ACCESS:          0  HIT:          0  MISS:          0
LLC WRITEBACK ACCESS:    1673769  HIT:    1673763  MISS:          6
Heartbeat CPU 0 instructions: 72000003 cycles: 180615629 heartbeat IPC: 0.133404 cumulative IPC: 0.134868 (Simulation time: 1 hr 34 min 53 sec) 

Region of Interest Statistics
cpu0_DTLB TOTAL     ACCESS:   12973131  HIT:   12337471  MISS:     635660
cpu0_DTLB LOAD      ACCESS:    6240585  HIT:    6094074  MISS:     146511
cpu0_DTLB RFO       ACCESS:    6732546  HIT:    6243397  MISS:     489149
cpu0_DTLB PREFETCH  ACCESS:          0  HIT:          0  MISS:          0
cpu0_DTLB WRITEBACK ACCESS:          0  HIT:          0  MISS:          0
cpu0_ITLB TOTAL     ACCESS:    2206987  HIT:    2206987  MISS:          0
cpu0_ITLB LOAD      ACCESS:    2206987  HIT:    2206987  MISS:          0
cpu0_ITLB RFO       ACCESS:          0  HIT:          0  MISS:          0
cpu0_ITLB PREFETCH  ACCESS:          0  HIT:          0  MISS:          0
cpu0_ITLB WRITEBACK ACCESS:          0  HIT:          0  MISS:          0
cpu0_L1I TOTAL     ACCESS:     319852  HIT:     319852  MISS:          0
cpu0_L1I LOAD      ACCESS:     319852  HIT:     319852  MISS:          0
cpu0_L1I RFO       ACCESS:          0  HIT:          0  MISS:          0
cpu0_L1I PREFETCH  ACCESS:          0  HIT:          0  MISS:          0
cpu0_L1I WRITEBACK ACCESS:          0  HIT:          0  MISS:          0
cpu0_STLB TOTAL     ACCESS:     635660  HIT:     108648  MISS:     527012
cpu0_STLB LOAD      ACCESS:     146511  HIT:     106648  MISS:      39863
cpu0_STLB RFO       ACCESS:     489149  HIT:       2000  MISS:     487149
cpu0_STLB PREFETCH  ACCESS:          0  HIT:          0  MISS:          0
cpu0_STLB WRITEBACK ACCESS:          0  HIT:          0  MISS:          0
cpu0_L1D TOTAL     ACCESS:   11605537  HIT:    9588487  MISS:    2017050
cpu0_L1D LOAD      ACCESS:    6730850  HIT:    5710870  MISS:    1019980
cpu0_L1D RFO       ACCESS:    4347990  HIT:    3385576  MISS:     962414
cpu0_L1D PREFETCH  ACCESS:          0  HIT:          0  MISS:          0
cpu0_L1D WRITEBACK ACCESS:          0  HIT:          0  MISS:          0
cpu0_L2C TOTAL     ACCESS:    3999451  HIT:    2153862  MISS:    1845589
cpu0_L2C LOAD      ACCESS:    1019963  HIT:     139588  MISS:     880375
cpu0_L2C RFO       ACCESS:     962414  HIT:        100  MISS:     962314
cpu0_L2C PREFETCH  ACCESS:          0  HIT:          0  MISS:          0
cpu0_L2C WRITEBACK ACCESS:    1982418  HIT:    1981909  MISS:        509
LLC TOTAL     ACCESS:    3687843  HIT:    2163288  MISS:    1524555
LLC LOAD      ACCESS:     880353  HIT:     300489  MISS:     579864
LLC RFO       ACCESS:     962314  HIT:      18029  MISS:     944285
LLC PREFETCH  ACCESS:          0  HIT:          0  MISS:          0
LLC WRITEBACK ACCESS:    1842785  HIT:    1842778  MISS:          7
Heartbeat CPU 0 instructions: 74000001 cycles: 195418591 heartbeat IPC: 0.135108 cumulative IPC: 0.134888 (Simulation time: 1 hr 39 min 32 sec) 

Region of Interest Statistics
cpu0_DTLB TOTAL     ACCESS:   14147061  HIT:   13452903  MISS:     694158
cpu0_DTLB LOAD      ACCESS:    6804574  HIT:    6643963  MISS:     160611
cpu0_DTLB RFO       ACCESS:    7342487  HIT:    6808940  MISS:     533547
cpu0_DTLB PREFETCH  ACCESS:          0  HIT:          0  MISS:          0
cpu0_DTLB WRITEBACK ACCESS:          0  HIT:          0  MISS:          0
cpu0_ITLB TOTAL     ACCESS:    2403196  HIT:    2403196  MISS:          0
cpu0_ITLB LOAD      ACCESS:    2403196  HIT:    2403196  MISS:          0
cpu0_ITLB RFO       ACCESS:          0  HIT:          0  MISS:          0
cpu0_ITLB PREFETCH  ACCESS:          0  HIT:          0  MISS:          0
cpu0_ITLB WRITEBACK ACCESS:          0  HIT:          0  MISS:          0
cpu0_L1I TOTAL     ACCESS:     354801  HIT:     354801  MISS:          0
cpu0_L1I LOAD      ACCESS:     354801  HIT:     354801  MISS:          0
cpu0_L1I RFO       ACCESS:          0  HIT:          0  MISS:          0
cpu0_L1I PREFETCH  ACCESS:          0  HIT:          0  MISS:          0
cpu0_L1I WRITEBACK ACCESS:          0  HIT:          0  MISS:          0
cpu0_STLB TOTAL     ACCESS:     694158  HIT:     119065  MISS:     575093
cpu0_STLB LOAD      ACCESS:     160611  HIT:     116859  MISS:      43752
cpu0_STLB RFO       ACCESS:     533547  HIT:       2206  MISS:     531341
cpu0_STLB PREFETCH  ACCESS:          0  HIT:          0  MISS:          0
cpu0_STLB WRITEBACK ACCESS:          0  HIT:          0  MISS:          0
cpu0_L1D TOTAL     ACCESS:   12651571  HIT:   10451430  MISS:    2200141
cpu0_L1D LOAD      ACCESS:    7336086  HIT:    6223444  MISS:    1112642
cpu0_L1D RFO       ACCESS:    4740738  HIT:    3691132  MISS:    1049606
cpu0_L1D PREFETCH  ACCESS:          0  HIT:          0  MISS:          0
cpu0_L1D WRITEBACK ACCESS:          0  HIT:          0  MISS:          0
cpu0_L2C TOTAL     ACCESS:    4362384  HIT:    2348501  MISS:    2013883
cpu0_L2C LOAD      ACCESS:    1112625  HIT:     151428  MISS:     961197
cpu0_L2C RFO       ACCESS:    1049606  HIT:        100  MISS:    1049506
cpu0_L2C PREFETCH  ACCESS:          0  HIT:          0  MISS:          0
cpu0_L2C WRITEBACK ACCESS:    2162260  HIT:    2161694  MISS:        566
LLC TOTAL     ACCESS:    4024100  HIT:    2359816  MISS:    1664284
LLC LOAD      ACCESS:     961172  HIT:     328314  MISS:     632858
LLC RFO       ACCESS:    1049506  HIT:      18522  MISS:    1030984
LLC PREFETCH  ACCESS:          0  HIT:          0  MISS:          0
LLC WRITEBACK ACCESS:    2010808  HIT:    2010801  MISS:          7
Heartbeat CPU 0 instructions: 76000000 cycles: 210395949 heartbeat IPC: 0.133535 cumulative IPC: 0.134783 (Simulation time: 1 hr 43 min 55 sec) 

Region of Interest Statistics
cpu0_DTLB TOTAL     ACCESS:   15326917  HIT:   14575024  MISS:     751893
cpu0_DTLB LOAD      ACCESS:    7372411  HIT:    7198493  MISS:     173918
cpu0_DTLB RFO       ACCESS:    7954506  HIT:    7376531  MISS:     577975
cpu0_DTLB PREFETCH  ACCESS:          0  HIT:          0  MISS:          0
cpu0_DTLB WRITEBACK ACCESS:          0  HIT:          0  MISS:          0
cpu0_ITLB TOTAL     ACCESS:    2602219  HIT:    2602219  MISS:          0
cpu0_ITLB LOAD      ACCESS:    2602219  HIT:    2602219  MISS:          0
cpu0_ITLB RFO       ACCESS:          0  HIT:          0  MISS:          0
cpu0_ITLB PREFETCH  ACCESS:          0  HIT:          0  MISS:          0
cpu0_ITLB WRITEBACK ACCESS:          0  HIT:          0  MISS:          0
cpu0_L1I TOTAL     ACCESS:     386655  HIT:     386655  MISS:          0
cpu0_L1I LOAD      ACCESS:     386655  HIT:     386655  MISS:          0
cpu0_L1I RFO       ACCESS:          0  HIT:          0  MISS:          0
cpu0_L1I PREFETCH  ACCESS:          0  HIT:          0  MISS:          0
cpu0_L1I WRITEBACK ACCESS:          0  HIT:          0  MISS:          0
cpu0_STLB TOTAL     ACCESS:     751893  HIT:     128460  MISS:     623433
cpu0_STLB LOAD      ACCESS:     173918  HIT:     126069  MISS:      47849
cpu0_STLB RFO       ACCESS:     577975  HIT:       2391  MISS:     575584
cpu0_STLB PREFETCH  ACCESS:          0  HIT:          0  MISS:          0
cpu0_STLB WRITEBACK ACCESS:          0  HIT:          0  MISS:          0
cpu0_L1D TOTAL     ACCESS:   13706262  HIT:   11322756  MISS:    2383506
cpu0_L1D LOAD      ACCESS:    7948346  HIT:    6743119  MISS:    1205227
cpu0_L1D RFO       ACCESS:    5134875  HIT:    3997779  MISS:    1137096
cpu0_L1D PREFETCH  ACCESS:          0  HIT:          0  MISS:          0
cpu0_L1D WRITEBACK ACCESS:          0  HIT:          0  MISS:          0
cpu0_L2C TOTAL     ACCESS:    4725842  HIT:    2541887  MISS:    2183955
cpu0_L2C LOAD      ACCESS:    1205208  HIT:     161689  MISS:    1043519
cpu0_L2C RFO       ACCESS:    1137096  HIT:        100  MISS:    1136996
cpu0_L2C PREFETCH  ACCESS:          0  HIT:          0  MISS:          0
cpu0_L2C WRITEBACK ACCESS:    2342355  HIT:    2341727  MISS:        628
LLC TOTAL     ACCESS:    4363941  HIT:    2559584  MISS:    1804357
LLC LOAD      ACCESS:    1043493  HIT:     357808  MISS:     685685
LLC RFO       ACCESS:    1136996  HIT:      18810  MISS:    1118186
LLC PREFETCH  ACCESS:          0  HIT:          0  MISS:          0
LLC WRITEBACK ACCESS:    2180640  HIT:    2180632  MISS:          8
Heartbeat CPU 0 instructions: 78000000 cycles: 225186888 heartbeat IPC: 0.135218 cumulative IPC: 0.134814 (Simulation time: 1 hr 48 min 32 sec) 

Region of Interest Statistics
cpu0_DTLB TOTAL     ACCESS:   16504173  HIT:   15693919  MISS:     810254
cpu0_DTLB LOAD      ACCESS:    7937998  HIT:    7750083  MISS:     187915
cpu0_DTLB RFO       ACCESS:    8566175  HIT:    7943836  MISS:     622339
cpu0_DTLB PREFETCH  ACCESS:          0  HIT:          0  MISS:          0
cpu0_DTLB WRITEBACK ACCESS:          0  HIT:          0  MISS:          0
cpu0_ITLB TOTAL     ACCESS:    2796938  HIT:    2796938  MISS:          0
cpu0_ITLB LOAD      ACCESS:    2796938  HIT:    2796938  MISS:          0
cpu0_ITLB RFO       ACCESS:          0  HIT:          0  MISS:          0
cpu0_ITLB PREFETCH  ACCESS:          0  HIT:          0  MISS:          0
cpu0_ITLB WRITEBACK ACCESS:          0  HIT:          0  MISS:          0
cpu0_L1I TOTAL     ACCESS:     425253  HIT:     425253  MISS:          0
cpu0_L1I LOAD      ACCESS:     425253  HIT:     425253  MISS:          0
cpu0_L1I RFO       ACCESS:          0  HIT:          0  MISS:          0
cpu0_L1I PREFETCH  ACCESS:          0  HIT:          0  MISS:          0
cpu0_L1I WRITEBACK ACCESS:          0  HIT:          0  MISS:          0
cpu0_STLB TOTAL     ACCESS:     810254  HIT:     138766  MISS:     671488
cpu0_STLB LOAD      ACCESS:     187915  HIT:     136124  MISS:      51791
cpu0_STLB RFO       ACCESS:     622339  HIT:       2642  MISS:     619697
cpu0_STLB PREFETCH  ACCESS:          0  HIT:          0  MISS:          0
cpu0_STLB WRITEBACK ACCESS:          0  HIT:          0  MISS:          0
cpu0_L1D TOTAL     ACCESS:   14756488  HIT:   12189526  MISS:    2566962
cpu0_L1D LOAD      ACCESS:    8555000  HIT:    7256937  MISS:    1298063
cpu0_L1D RFO       ACCESS:    5530418  HIT:    4305886  MISS:    1224532
cpu0_L1D PREFETCH  ACCESS:          0  HIT:          0  MISS:          0
cpu0_L1D WRITEBACK ACCESS:          0  HIT:          0  MISS:          0
cpu0_L2C TOTAL     ACCESS:    5089562  HIT:    2737230  MISS:    2352332
cpu0_L2C LOAD      ACCESS:    1298044  HIT:     173842  MISS:    1124202
cpu0_L2C RFO       ACCESS:    1224532  HIT:        100  MISS:    1224432
cpu0_L2C PREFETCH  ACCESS:          0  HIT:          0  MISS:          0
cpu0_L2C WRITEBACK ACCESS:    2522619  HIT:    2521947  MISS:        672
LLC TOTAL     ACCESS:    4700400  HIT:    2757528  MISS:    1942872
LLC LOAD      ACCESS:    1124175  HIT:     385839  MISS:     738336
LLC RFO       ACCESS:    1224432  HIT:      20421  MISS:    1204011
LLC PREFETCH  ACCESS:          0  HIT:          0  MISS:          0
LLC WRITEBACK ACCESS:    2348767  HIT:    2348758  MISS:          9
Heartbeat CPU 0 instructions: 80000000 cycles: 240280163 heartbeat IPC: 0.132509 cumulative IPC: 0.134658 (Simulation time: 1 hr 53 min 2 sec) 

Region of Interest Statistics
cpu0_DTLB TOTAL     ACCESS:   17684201  HIT:   16816281  MISS:     867920
cpu0_DTLB LOAD      ACCESS:    8505684  HIT:    8304586  MISS:     201098
cpu0_DTLB RFO       ACCESS:    9178517  HIT:    8511695  MISS:     666822
cpu0_DTLB PREFETCH  ACCESS:          0  HIT:          0  MISS:          0
cpu0_DTLB WRITEBACK ACCESS:          0  HIT:          0  MISS:          0
cpu0_ITLB TOTAL     ACCESS:    3001334  HIT:    3001334  MISS:          0
cpu0_ITLB LOAD      ACCESS:    3001334  HIT:    3001334  MISS:          0
cpu0_ITLB RFO       ACCESS:          0  HIT:          0  MISS:          0
cpu0_ITLB PREFETCH  ACCESS:          0  HIT:          0  MISS:          0
cpu0_ITLB WRITEBACK ACCESS:          0  HIT:          0  MISS:          0
cpu0_L1I TOTAL     ACCESS:     448293  HIT:     448293  MISS:          0
cpu0_L1I LOAD      ACCESS:     448293  HIT:     448293  MISS:          0
cpu0_L1I RFO       ACCESS:          0  HIT:          0  MISS:          0
cpu0_L1I PREFETCH  ACCESS:          0  HIT:          0  MISS:          0
cpu0_L1I WRITEBACK ACCESS:          0  HIT:          0  MISS:          0
cpu0_STLB TOTAL     ACCESS:     867920  HIT:     147870  MISS:     720050
cpu0_STLB LOAD      ACCESS:     201098  HIT:     145011  MISS:      56087
cpu0_STLB RFO       ACCESS:     666822  HIT:       2859  MISS:     663963
cpu0_STLB PREFETCH  ACCESS:          0  HIT:          0  MISS:          0
cpu0_STLB WRITEBACK ACCESS:          0  HIT:          0  MISS:          0
cpu0_L1D TOTAL     ACCESS:   15814447  HIT:   13064088  MISS:    2750359
cpu0_L1D LOAD      ACCESS:    9170057  HIT:    7779295  MISS:    1390762
cpu0_L1D RFO       ACCESS:    5924783  HIT:    4612715  MISS:    1312068
cpu0_L1D PREFETCH  ACCESS:          0  HIT:          0  MISS:          0
cpu0_L1D WRITEBACK ACCESS:          0  HIT:          0  MISS:          0
cpu0_L2C TOTAL     ACCESS:    5453189  HIT:    2931516  MISS:    2521673
cpu0_L2C LOAD      ACCESS:    1390742  HIT:     184985  MISS:    1205757
cpu0_L2C RFO       ACCESS:    1312068  HIT:        101  MISS:    1311967
cpu0_L2C PREFETCH  ACCESS:          0  HIT:          0  MISS:          0
cpu0_L2C WRITEBACK ACCESS:    2702850  HIT:    2702124  MISS:        726
LLC TOTAL     ACCESS:    5038786  HIT:    2955529  MISS:    2083257
LLC LOAD      ACCESS:    1205728  HIT:     414159  MISS:     791569
LLC RFO       ACCESS:    1311967  HIT:      20843  MISS:    1291124
LLC PREFETCH  ACCESS:          0  HIT:          0  MISS:          0
LLC WRITEBACK ACCESS:    2517868  HIT:    2517858  MISS:         10
Heartbeat CPU 0 instructions: 82000001 cycles: 255018793 heartbeat IPC: 0.135698 cumulative IPC: 0.134722 (Simulation time: 1 hr 58 min 6 sec) 

Region of Interest Statistics
cpu0_DTLB TOTAL     ACCESS:   18858321  HIT:   17932109  MISS:     926212
cpu0_DTLB LOAD      ACCESS:    9069793  HIT:    8854675  MISS:     215118
cpu0_DTLB RFO       ACCESS:    9788528  HIT:    9077434  MISS:     711094
cpu0_DTLB PREFETCH  ACCESS:          0  HIT:          0  MISS:          0
cpu0_DTLB WRITEBACK ACCESS:          0  HIT:          0  MISS:          0
cpu0_ITLB TOTAL     ACCESS:    3198736  HIT:    3198736  MISS:          0
cpu0_ITLB LOAD      ACCESS:    3198736  HIT:    3198736  MISS:          0
cpu0_ITLB RFO       ACCESS:          0  HIT:          0  MISS:          0
cpu0_ITLB PREFETCH  ACCESS:          0  HIT:          0  MISS:          0
cpu0_ITLB WRITEBACK ACCESS:          0  HIT:          0  MISS:          0
cpu0_L1I TOTAL     ACCESS:     481428  HIT:     481428  MISS:          0
cpu0_L1I LOAD      ACCESS:     481428  HIT:     481428  MISS:          0
cpu0_L1I RFO       ACCESS:          0  HIT:          0  MISS:          0
cpu0_L1I PREFETCH  ACCESS:          0  HIT:          0  MISS:          0
cpu0_L1I WRITEBACK ACCESS:          0  HIT:          0  MISS:          0
cpu0_STLB TOTAL     ACCESS:     926212  HIT:     158100  MISS:     768112
cpu0_STLB LOAD      ACCESS:     215118  HIT:     155059  MISS:      60059
cpu0_STLB RFO       ACCESS:     711094  HIT:       3041  MISS:     708053
cpu0_STLB PREFETCH  ACCESS:          0  HIT:          0  MISS:          0
cpu0_STLB WRITEBACK ACCESS:          0  HIT:          0  MISS:          0
cpu0_L1D TOTAL     ACCESS:   16862555  HIT:   13929327  MISS:    2933228
cpu0_L1D LOAD      ACCESS:    9776652  HIT:    8293370  MISS:    1483282
cpu0_L1D RFO       ACCESS:    6318264  HIT:    4918999  MISS:    1399265
cpu0_L1D PREFETCH  ACCESS:          0  HIT:          0  MISS:          0
cpu0_L1D WRITEBACK ACCESS:          0  HIT:          0  MISS:          0
cpu0_L2C TOTAL     ACCESS:    5815775  HIT:    3126518  MISS:    2689257
cpu0_L2C LOAD      ACCESS:    1483262  HIT:     197363  MISS:    1285899
cpu0_L2C RFO       ACCESS:    1399265  HIT:        118  MISS:    1399147
cpu0_L2C PREFETCH  ACCESS:          0  HIT:          0  MISS:          0
cpu0_L2C WRITEBACK ACCESS:    2882567  HIT:    2881800  MISS:        767
LLC TOTAL     ACCESS:    5373664  HIT:    3151551  MISS:    2222113
LLC LOAD      ACCESS:    1285870  HIT:     441659  MISS:     844211
LLC RFO       ACCESS:    1399147  HIT:      21848  MISS:    1377299
LLC PREFETCH  ACCESS:          0  HIT:          0  MISS:          0
LLC WRITEBACK ACCESS:    2685203  HIT:    2685192  MISS:         11
Heartbeat CPU 0 instructions: 84000000 cycles: 269908850 heartbeat IPC: 0.134318 cumulative IPC: 0.134699 (Simulation time: 2 hr 3 min 8 sec) 

Region of Interest Statistics
cpu0_DTLB TOTAL     ACCESS:   20037897  HIT:   19052435  MISS:     985462
cpu0_DTLB LOAD      ACCESS:    9637093  HIT:    9407261  MISS:     229832
cpu0_DTLB RFO       ACCESS:   10400804  HIT:    9645174  MISS:     755630
cpu0_DTLB PREFETCH  ACCESS:          0  HIT:          0  MISS:          0
cpu0_DTLB WRITEBACK ACCESS:          0  HIT:          0  MISS:          0
cpu0_ITLB TOTAL     ACCESS:    3399128  HIT:    3399128  MISS:          0
cpu0_ITLB LOAD      ACCESS:    3399128  HIT:    3399128  MISS:          0
cpu0_ITLB RFO       ACCESS:          0  HIT:          0  MISS:          0
cpu0_ITLB PREFETCH  ACCESS:          0  HIT:          0  MISS:          0
cpu0_ITLB WRITEBACK ACCESS:          0  HIT:          0  MISS:          0
cpu0_L1I TOTAL     ACCESS:     511006  HIT:     511006  MISS:          0
cpu0_L1I LOAD      ACCESS:     511006  HIT:     511006  MISS:          0
cpu0_L1I RFO       ACCESS:          0  HIT:          0  MISS:          0
cpu0_L1I PREFETCH  ACCESS:          0  HIT:          0  MISS:          0
cpu0_L1I WRITEBACK ACCESS:          0  HIT:          0  MISS:          0
cpu0_STLB TOTAL     ACCESS:     985462  HIT:     169043  MISS:     816419
cpu0_STLB LOAD      ACCESS:     229832  HIT:     165682  MISS:      64150
cpu0_STLB RFO       ACCESS:     755630  HIT:       3361  MISS:     752269
cpu0_STLB PREFETCH  ACCESS:          0  HIT:          0  MISS:          0
cpu0_STLB WRITEBACK ACCESS:          0  HIT:          0  MISS:          0
cpu0_L1D TOTAL     ACCESS:   17917662  HIT:   14800953  MISS:    3116709
cpu0_L1D LOAD      ACCESS:   10388456  HIT:    8812484  MISS:    1575972
cpu0_L1D RFO       ACCESS:    6713292  HIT:    5226509  MISS:    1486783
cpu0_L1D PREFETCH  ACCESS:          0  HIT:          0  MISS:          0
cpu0_L1D WRITEBACK ACCESS:          0  HIT:          0  MISS:          0
cpu0_L2C TOTAL     ACCESS:    6179472  HIT:    3321684  MISS:    2857788
cpu0_L2C LOAD      ACCESS:    1575952  HIT:     209304  MISS:    1366648
cpu0_L2C RFO       ACCESS:    1486783  HIT:        118  MISS:    1486665
cpu0_L2C PREFETCH  ACCESS:          0  HIT:          0  MISS:          0
cpu0_L2C WRITEBACK ACCESS:    3062783  HIT:    3061963  MISS:        820
LLC TOTAL     ACCESS:    5710418  HIT:    3349104  MISS:    2361314
LLC LOAD      ACCESS:    1366616  HIT:     469268  MISS:     897348
LLC RFO       ACCESS:    1486666  HIT:      23342  MISS:    1463324
LLC PREFETCH  ACCESS:          0  HIT:          0  MISS:          0
LLC WRITEBACK ACCESS:    2853481  HIT:    2853470  MISS:         11
Heartbeat CPU 0 instructions: 86000004 cycles: 284793805 heartbeat IPC: 0.134364 cumulative IPC: 0.13468 (Simulation time: 2 hr 8 min 18 sec) 

Region of Interest Statistics
cpu0_DTLB TOTAL     ACCESS:   21216100  HIT:   20171512  MISS:    1044588
cpu0_DTLB LOAD      ACCESS:   10204089  HIT:    9959624  MISS:     244465
cpu0_DTLB RFO       ACCESS:   11012011  HIT:   10211888  MISS:     800123
cpu0_DTLB PREFETCH  ACCESS:          0  HIT:          0  MISS:          0
cpu0_DTLB WRITEBACK ACCESS:          0  HIT:          0  MISS:          0
cpu0_ITLB TOTAL     ACCESS:    3596398  HIT:    3596398  MISS:          0
cpu0_ITLB LOAD      ACCESS:    3596398  HIT:    3596398  MISS:          0
cpu0_ITLB RFO       ACCESS:          0  HIT:          0  MISS:          0
cpu0_ITLB PREFETCH  ACCESS:          0  HIT:          0  MISS:          0
cpu0_ITLB WRITEBACK ACCESS:          0  HIT:          0  MISS:          0
cpu0_L1I TOTAL     ACCESS:     545193  HIT:     545193  MISS:          0
cpu0_L1I LOAD      ACCESS:     545193  HIT:     545193  MISS:          0
cpu0_L1I RFO       ACCESS:          0  HIT:          0  MISS:          0
cpu0_L1I PREFETCH  ACCESS:          0  HIT:          0  MISS:          0
cpu0_L1I WRITEBACK ACCESS:          0  HIT:          0  MISS:          0
cpu0_STLB TOTAL     ACCESS:    1044588  HIT:     179920  MISS:     864668
cpu0_STLB LOAD      ACCESS:     244465  HIT:     176083  MISS:      68382
cpu0_STLB RFO       ACCESS:     800123  HIT:       3837  MISS:     796286
cpu0_STLB PREFETCH  ACCESS:          0  HIT:          0  MISS:          0
cpu0_STLB WRITEBACK ACCESS:          0  HIT:          0  MISS:          0
cpu0_L1D TOTAL     ACCESS:   18970398  HIT:   15670881  MISS:    3299517
cpu0_L1D LOAD      ACCESS:   10998428  HIT:    9330182  MISS:    1668246
cpu0_L1D RFO       ACCESS:    7107836  HIT:    5533675  MISS:    1574161
cpu0_L1D PREFETCH  ACCESS:          0  HIT:          0  MISS:          0
cpu0_L1D WRITEBACK ACCESS:          0  HIT:          0  MISS:          0
cpu0_L2C TOTAL     ACCESS:    6541932  HIT:    3514410  MISS:    3027522
cpu0_L2C LOAD      ACCESS:    1668226  HIT:     219505  MISS:    1448721
cpu0_L2C RFO       ACCESS:    1574161  HIT:        121  MISS:    1574040
cpu0_L2C PREFETCH  ACCESS:          0  HIT:          0  MISS:          0
cpu0_L2C WRITEBACK ACCESS:    3242435  HIT:    3241561  MISS:        874
LLC TOTAL     ACCESS:    6049557  HIT:    3549338  MISS:    2500219
LLC LOAD      ACCESS:    1448687  HIT:     498059  MISS:     950628
LLC RFO       ACCESS:    1574040  HIT:      25147  MISS:    1548893
LLC PREFETCH  ACCESS:          0  HIT:          0  MISS:          0
LLC WRITEBACK ACCESS:    3022943  HIT:    3022932  MISS:         11
Heartbeat CPU 0 instructions: 88000002 cycles: 299595814 heartbeat IPC: 0.135117 cumulative IPC: 0.134703 (Simulation time: 2 hr 13 min 19 sec) 

Region of Interest Statistics
cpu0_DTLB TOTAL     ACCESS:   22395509  HIT:   21292640  MISS:    1102869
cpu0_DTLB LOAD      ACCESS:   10770451  HIT:   10512331  MISS:     258120
cpu0_DTLB RFO       ACCESS:   11625058  HIT:   10780309  MISS:     844749
cpu0_DTLB PREFETCH  ACCESS:          0  HIT:          0  MISS:          0
cpu0_DTLB WRITEBACK ACCESS:          0  HIT:          0  MISS:          0
cpu0_ITLB TOTAL     ACCESS:    3793610  HIT:    3793610  MISS:          0
cpu0_ITLB LOAD      ACCESS:    3793610  HIT:    3793610  MISS:          0
cpu0_ITLB RFO       ACCESS:          0  HIT:          0  MISS:          0
cpu0_ITLB PREFETCH  ACCESS:          0  HIT:          0  MISS:          0
cpu0_ITLB WRITEBACK ACCESS:          0  HIT:          0  MISS:          0
cpu0_L1I TOTAL     ACCESS:     580461  HIT:     580461  MISS:          0
cpu0_L1I LOAD      ACCESS:     580461  HIT:     580461  MISS:          0
cpu0_L1I RFO       ACCESS:          0  HIT:          0  MISS:          0
cpu0_L1I PREFETCH  ACCESS:          0  HIT:          0  MISS:          0
cpu0_L1I WRITEBACK ACCESS:          0  HIT:          0  MISS:          0
cpu0_STLB TOTAL     ACCESS:    1102869  HIT:     189606  MISS:     913263
cpu0_STLB LOAD      ACCESS:     258120  HIT:     185588  MISS:      72532
cpu0_STLB RFO       ACCESS:     844749  HIT:       4018  MISS:     840731
cpu0_STLB PREFETCH  ACCESS:          0  HIT:          0  MISS:          0
cpu0_STLB WRITEBACK ACCESS:          0  HIT:          0  MISS:          0
cpu0_L1D TOTAL     ACCESS:   20025535  HIT:   16542358  MISS:    3483177
cpu0_L1D LOAD      ACCESS:   11607218  HIT:    9846057  MISS:    1761161
cpu0_L1D RFO       ACCESS:    7505610  HIT:    5843823  MISS:    1661787
cpu0_L1D PREFETCH  ACCESS:          0  HIT:          0  MISS:          0
cpu0_L1D WRITEBACK ACCESS:          0  HIT:          0  MISS:          0
cpu0_L2C TOTAL     ACCESS:    6906124  HIT:    3709866  MISS:    3196258
cpu0_L2C LOAD      ACCESS:    1761140  HIT:     231405  MISS:    1529735
cpu0_L2C RFO       ACCESS:    1661787  HIT:        291  MISS:    1661496
cpu0_L2C PREFETCH  ACCESS:          0  HIT:          0  MISS:          0
cpu0_L2C WRITEBACK ACCESS:    3422968  HIT:    3422047  MISS:        921
LLC TOTAL     ACCESS:    6386722  HIT:    3748604  MISS:    2638118
LLC LOAD      ACCESS:    1529700  HIT:     525674  MISS:    1004026
LLC RFO       ACCESS:    1661496  HIT:      28141  MISS:    1633355
LLC PREFETCH  ACCESS:          0  HIT:          0  MISS:          0
LLC WRITEBACK ACCESS:    3191420  HIT:    3191409  MISS:         11
Heartbeat CPU 0 instructions: 90000000 cycles: 314391658 heartbeat IPC: 0.135173 cumulative IPC: 0.134726 (Simulation time: 2 hr 18 min 38 sec) 

Region of Interest Statistics
cpu0_DTLB TOTAL     ACCESS:   23575285  HIT:   22414086  MISS:    1161199
cpu0_DTLB LOAD      ACCESS:   11337015  HIT:   11065088  MISS:     271927
cpu0_DTLB RFO       ACCESS:   12238270  HIT:   11348998  MISS:     889272
cpu0_DTLB PREFETCH  ACCESS:          0  HIT:          0  MISS:          0
cpu0_DTLB WRITEBACK ACCESS:          0  HIT:          0  MISS:          0
cpu0_ITLB TOTAL     ACCESS:    3989094  HIT:    3989094  MISS:          0
cpu0_ITLB LOAD      ACCESS:    3989094  HIT:    3989094  MISS:          0
cpu0_ITLB RFO       ACCESS:          0  HIT:          0  MISS:          0
cpu0_ITLB PREFETCH  ACCESS:          0  HIT:          0  MISS:          0
cpu0_ITLB WRITEBACK ACCESS:          0  HIT:          0  MISS:          0
cpu0_L1I TOTAL     ACCESS:     618570  HIT:     618570  MISS:          0
cpu0_L1I LOAD      ACCESS:     618570  HIT:     618570  MISS:          0
cpu0_L1I RFO       ACCESS:          0  HIT:          0  MISS:          0
cpu0_L1I PREFETCH  ACCESS:          0  HIT:          0  MISS:          0
cpu0_L1I WRITEBACK ACCESS:          0  HIT:          0  MISS:          0
cpu0_STLB TOTAL     ACCESS:    1161199  HIT:     199484  MISS:     961715
cpu0_STLB LOAD      ACCESS:     271927  HIT:     195357  MISS:      76570
cpu0_STLB RFO       ACCESS:     889272  HIT:       4127  MISS:     885145
cpu0_STLB PREFETCH  ACCESS:          0  HIT:          0  MISS:          0
cpu0_STLB WRITEBACK ACCESS:          0  HIT:          0  MISS:          0
cpu0_L1D TOTAL     ACCESS:   21079335  HIT:   17412214  MISS:    3667121
cpu0_L1D LOAD      ACCESS:   12215599  HIT:   10361386  MISS:    1854213
cpu0_L1D RFO       ACCESS:    7902623  HIT:    6153172  MISS:    1749451
cpu0_L1D PREFETCH  ACCESS:          0  HIT:          0  MISS:          0
cpu0_L1D WRITEBACK ACCESS:          0  HIT:          0  MISS:          0
cpu0_L2C TOTAL     ACCESS:    7270778  HIT:    3907144  MISS:    3363634
cpu0_L2C LOAD      ACCESS:    1854190  HIT:     244963  MISS:    1609227
cpu0_L2C RFO       ACCESS:    1749451  HIT:        316  MISS:    1749135
cpu0_L2C PREFETCH  ACCESS:          0  HIT:          0  MISS:          0
cpu0_L2C WRITEBACK ACCESS:    3603680  HIT:    3602712  MISS:        968
LLC TOTAL     ACCESS:    6721192  HIT:    3944943  MISS:    2776249
LLC LOAD      ACCESS:    1609188  HIT:     551697  MISS:    1057491
LLC RFO       ACCESS:    1749135  HIT:      31159  MISS:    1717976
LLC PREFETCH  ACCESS:          0  HIT:          0  MISS:          0
LLC WRITEBACK ACCESS:    3358565  HIT:    3358552  MISS:         13
Heartbeat CPU 0 instructions: 92000003 cycles: 329381704 heartbeat IPC: 0.133422 cumulative IPC: 0.134664 (Simulation time: 2 hr 24 min 4 sec) 

Region of Interest Statistics
cpu0_DTLB TOTAL     ACCESS:   24754392  HIT:   23535333  MISS:    1219059
cpu0_DTLB LOAD      ACCESS:   11904173  HIT:   11618793  MISS:     285380
cpu0_DTLB RFO       ACCESS:   12850219  HIT:   11916540  MISS:     933679
cpu0_DTLB PREFETCH  ACCESS:          0  HIT:          0  MISS:          0
cpu0_DTLB WRITEBACK ACCESS:          0  HIT:          0  MISS:          0
cpu0_ITLB TOTAL     ACCESS:    4190838  HIT:    4190838  MISS:          0
cpu0_ITLB LOAD      ACCESS:    4190838  HIT:    4190838  MISS:          0
cpu0_ITLB RFO       ACCESS:          0  HIT:          0  MISS:          0
cpu0_ITLB PREFETCH  ACCESS:          0  HIT:          0  MISS:          0
cpu0_ITLB WRITEBACK ACCESS:          0  HIT:          0  MISS:          0
cpu0_L1I TOTAL     ACCESS:     645761  HIT:     645761  MISS:          0
cpu0_L1I LOAD      ACCESS:     645761  HIT:     645761  MISS:          0
cpu0_L1I RFO       ACCESS:          0  HIT:          0  MISS:          0
cpu0_L1I PREFETCH  ACCESS:          0  HIT:          0  MISS:          0
cpu0_L1I WRITEBACK ACCESS:          0  HIT:          0  MISS:          0
cpu0_STLB TOTAL     ACCESS:    1219059  HIT:     208802  MISS:    1010257
cpu0_STLB LOAD      ACCESS:     285380  HIT:     204531  MISS:      80849
cpu0_STLB RFO       ACCESS:     933679  HIT:       4271  MISS:     929408
cpu0_STLB PREFETCH  ACCESS:          0  HIT:          0  MISS:          0
cpu0_STLB WRITEBACK ACCESS:          0  HIT:          0  MISS:          0
cpu0_L1D TOTAL     ACCESS:   22134777  HIT:   18284654  MISS:    3850123
cpu0_L1D LOAD      ACCESS:   12827900  HIT:   10881385  MISS:    1946515
cpu0_L1D RFO       ACCESS:    8297241  HIT:    6460318  MISS:    1836923
cpu0_L1D PREFETCH  ACCESS:          0  HIT:          0  MISS:          0
cpu0_L1D WRITEBACK ACCESS:          0  HIT:          0  MISS:          0
cpu0_L2C TOTAL     ACCESS:    7633560  HIT:    4099565  MISS:    3533995
cpu0_L2C LOAD      ACCESS:    1946491  HIT:     254632  MISS:    1691859
cpu0_L2C RFO       ACCESS:    1836923  HIT:        316  MISS:    1836607
cpu0_L2C PREFETCH  ACCESS:          0  HIT:          0  MISS:          0
cpu0_L2C WRITEBACK ACCESS:    3783461  HIT:    3782441  MISS:       1020
LLC TOTAL     ACCESS:    7061615  HIT:    4145433  MISS:    2916182
LLC LOAD      ACCESS:    1691819  HIT:     580870  MISS:    1110949
LLC RFO       ACCESS:    1836607  HIT:      32207  MISS:    1804400
LLC PREFETCH  ACCESS:          0  HIT:          0  MISS:          0
LLC WRITEBACK ACCESS:    3528680  HIT:    3528667  MISS:         13
Heartbeat CPU 0 instructions: 94000003 cycles: 344339109 heartbeat IPC: 0.133713 cumulative IPC: 0.13462 (Simulation time: 2 hr 28 min 47 sec) 

Region of Interest Statistics
cpu0_DTLB TOTAL     ACCESS:   25933977  HIT:   24656957  MISS:    1277020
cpu0_DTLB LOAD      ACCESS:   12471326  HIT:   12172502  MISS:     298824
cpu0_DTLB RFO       ACCESS:   13462651  HIT:   12484455  MISS:     978196
cpu0_DTLB PREFETCH  ACCESS:          0  HIT:          0  MISS:          0
cpu0_DTLB WRITEBACK ACCESS:          0  HIT:          0  MISS:          0
cpu0_ITLB TOTAL     ACCESS:    4392325  HIT:    4392325  MISS:          0
cpu0_ITLB LOAD      ACCESS:    4392325  HIT:    4392325  MISS:          0
cpu0_ITLB RFO       ACCESS:          0  HIT:          0  MISS:          0
cpu0_ITLB PREFETCH  ACCESS:          0  HIT:          0  MISS:          0
cpu0_ITLB WRITEBACK ACCESS:          0  HIT:          0  MISS:          0
cpu0_L1I TOTAL     ACCESS:     673534  HIT:     673534  MISS:          0
cpu0_L1I LOAD      ACCESS:     673534  HIT:     673534  MISS:          0
cpu0_L1I RFO       ACCESS:          0  HIT:          0  MISS:          0
cpu0_L1I PREFETCH  ACCESS:          0  HIT:          0  MISS:          0
cpu0_L1I WRITEBACK ACCESS:          0  HIT:          0  MISS:          0
cpu0_STLB TOTAL     ACCESS:    1277020  HIT:     218034  MISS:    1058986
cpu0_STLB LOAD      ACCESS:     298824  HIT:     213569  MISS:      85255
cpu0_STLB RFO       ACCESS:     978196  HIT:       4465  MISS:     973731
cpu0_STLB PREFETCH  ACCESS:          0  HIT:          0  MISS:          0
cpu0_STLB WRITEBACK ACCESS:          0  HIT:          0  MISS:          0
cpu0_L1D TOTAL     ACCESS:   23189949  HIT:   19156747  MISS:    4033202
cpu0_L1D LOAD      ACCESS:   13440080  HIT:   11401184  MISS:    2038896
cpu0_L1D RFO       ACCESS:    8691541  HIT:    6767072  MISS:    1924469
cpu0_L1D PREFETCH  ACCESS:          0  HIT:          0  MISS:          0
cpu0_L1D WRITEBACK ACCESS:          0  HIT:          0  MISS:          0
cpu0_L2C TOTAL     ACCESS:    7996565  HIT:    4292541  MISS:    3704024
cpu0_L2C LOAD      ACCESS:    2038871  HIT:     264805  MISS:    1774066
cpu0_L2C RFO       ACCESS:    1924469  HIT:        316  MISS:    1924153
cpu0_L2C PREFETCH  ACCESS:          0  HIT:          0  MISS:          0
cpu0_L2C WRITEBACK ACCESS:    3963388  HIT:    3962321  MISS:       1067
LLC TOTAL     ACCESS:    7401353  HIT:    4344856  MISS:    3056497
LLC LOAD      ACCESS:    1774022  HIT:     609812  MISS:    1164210
LLC RFO       ACCESS:    1924153  HIT:      32737  MISS:    1891416
LLC PREFETCH  ACCESS:          0  HIT:          0  MISS:          0
LLC WRITEBACK ACCESS:    3698440  HIT:    3698427  MISS:         13
Heartbeat CPU 0 instructions: 96000001 cycles: 359226151 heartbeat IPC: 0.134345 cumulative IPC: 0.134608 (Simulation time: 2 hr 33 min 28 sec) 

Region of Interest Statistics
cpu0_DTLB TOTAL     ACCESS:   27107307  HIT:   25772535  MISS:    1334772
cpu0_DTLB LOAD      ACCESS:   13035891  HIT:   12723497  MISS:     312394
cpu0_DTLB RFO       ACCESS:   14071416  HIT:   13049038  MISS:    1022378
cpu0_DTLB PREFETCH  ACCESS:          0  HIT:          0  MISS:          0
cpu0_DTLB WRITEBACK ACCESS:          0  HIT:          0  MISS:          0
cpu0_ITLB TOTAL     ACCESS:    4589816  HIT:    4589816  MISS:          0
cpu0_ITLB LOAD      ACCESS:    4589816  HIT:    4589816  MISS:          0
cpu0_ITLB RFO       ACCESS:          0  HIT:          0  MISS:          0
cpu0_ITLB PREFETCH  ACCESS:          0  HIT:          0  MISS:          0
cpu0_ITLB WRITEBACK ACCESS:          0  HIT:          0  MISS:          0
cpu0_L1I TOTAL     ACCESS:     705720  HIT:     705720  MISS:          0
cpu0_L1I LOAD      ACCESS:     705720  HIT:     705720  MISS:          0
cpu0_L1I RFO       ACCESS:          0  HIT:          0  MISS:          0
cpu0_L1I PREFETCH  ACCESS:          0  HIT:          0  MISS:          0
cpu0_L1I WRITEBACK ACCESS:          0  HIT:          0  MISS:          0
cpu0_STLB TOTAL     ACCESS:    1334772  HIT:     227311  MISS:    1107461
cpu0_STLB LOAD      ACCESS:     312394  HIT:     222606  MISS:      89788
cpu0_STLB RFO       ACCESS:    1022378  HIT:       4705  MISS:    1017673
cpu0_STLB PREFETCH  ACCESS:          0  HIT:          0  MISS:          0
cpu0_STLB WRITEBACK ACCESS:          0  HIT:          0  MISS:          0
cpu0_L1D TOTAL     ACCESS:   24237108  HIT:   20021761  MISS:    4215347
cpu0_L1D LOAD      ACCESS:   14046902  HIT:   11916058  MISS:    2130844
cpu0_L1D RFO       ACCESS:    9083431  HIT:    7071946  MISS:    2011485
cpu0_L1D PREFETCH  ACCESS:          0  HIT:          0  MISS:          0
cpu0_L1D WRITEBACK ACCESS:          0  HIT:          0  MISS:          0
cpu0_L2C TOTAL     ACCESS:    8357681  HIT:    4483847  MISS:    3873834
cpu0_L2C LOAD      ACCESS:    2130819  HIT:     274210  MISS:    1856609
cpu0_L2C RFO       ACCESS:    2011485  HIT:        318  MISS:    2011167
cpu0_L2C PREFETCH  ACCESS:          0  HIT:          0  MISS:          0
cpu0_L2C WRITEBACK ACCESS:    4142359  HIT:    4141235  MISS:       1124
LLC TOTAL     ACCESS:    7740669  HIT:    4544083  MISS:    3196586
LLC LOAD      ACCESS:    1856560  HIT:     639109  MISS:    1217451
LLC RFO       ACCESS:    2011167  HIT:      32947  MISS:    1978220
LLC PREFETCH  ACCESS:          0  HIT:          0  MISS:          0
LLC WRITEBACK ACCESS:    3868008  HIT:    3867994  MISS:         14
Heartbeat CPU 0 instructions: 98000001 cycles: 374296536 heartbeat IPC: 0.132711 cumulative IPC: 0.134528 (Simulation time: 2 hr 38 min 9 sec) 

Region of Interest Statistics
cpu0_DTLB TOTAL     ACCESS:   28287197  HIT:   26894309  MISS:    1392888
cpu0_DTLB LOAD      ACCESS:   13603062  HIT:   13277029  MISS:     326033
cpu0_DTLB RFO       ACCESS:   14684135  HIT:   13617280  MISS:    1066855
cpu0_DTLB PREFETCH  ACCESS:          0  HIT:          0  MISS:          0
cpu0_DTLB WRITEBACK ACCESS:          0  HIT:          0  MISS:          0
cpu0_ITLB TOTAL     ACCESS:    4787578  HIT:    4787578  MISS:          0
cpu0_ITLB LOAD      ACCESS:    4787578  HIT:    4787578  MISS:          0
cpu0_ITLB RFO       ACCESS:          0  HIT:          0  MISS:          0
cpu0_ITLB PREFETCH  ACCESS:          0  HIT:          0  MISS:          0
cpu0_ITLB WRITEBACK ACCESS:          0  HIT:          0  MISS:          0
cpu0_L1I TOTAL     ACCESS:     739879  HIT:     739879  MISS:          0
cpu0_L1I LOAD      ACCESS:     739879  HIT:     739879  MISS:          0
cpu0_L1I RFO       ACCESS:          0  HIT:          0  MISS:          0
cpu0_L1I PREFETCH  ACCESS:          0  HIT:          0  MISS:          0
cpu0_L1I WRITEBACK ACCESS:          0  HIT:          0  MISS:          0
cpu0_STLB TOTAL     ACCESS:    1392888  HIT:     236609  MISS:    1156279
cpu0_STLB LOAD      ACCESS:     326033  HIT:     231703  MISS:      94330
cpu0_STLB RFO       ACCESS:    1066855  HIT:       4906  MISS:    1061949
cpu0_STLB PREFETCH  ACCESS:          0  HIT:          0  MISS:          0
cpu0_STLB WRITEBACK ACCESS:          0  HIT:          0  MISS:          0
cpu0_L1D TOTAL     ACCESS:   25291228  HIT:   20892892  MISS:    4398336
cpu0_L1D LOAD      ACCESS:   14657555  HIT:   12434463  MISS:    2223092
cpu0_L1D RFO       ACCESS:    9478109  HIT:    7379047  MISS:    2099062
cpu0_L1D PREFETCH  ACCESS:          0  HIT:          0  MISS:          0
cpu0_L1D WRITEBACK ACCESS:          0  HIT:          0  MISS:          0
cpu0_L2C TOTAL     ACCESS:    8720482  HIT:    4676437  MISS:    4044045
cpu0_L2C LOAD      ACCESS:    2223061  HIT:     284105  MISS:    1938956
cpu0_L2C RFO       ACCESS:    2099062  HIT:        320  MISS:    2098742
cpu0_L2C PREFETCH  ACCESS:          0  HIT:          0  MISS:          0
cpu0_L2C WRITEBACK ACCESS:    4322177  HIT:    4321003  MISS:       1174
LLC TOTAL     ACCESS:    8080767  HIT:    4743556  MISS:    3337211
LLC LOAD      ACCESS:    1938907  HIT:     667724  MISS:    1271183
LLC RFO       ACCESS:    2098742  HIT:      33675  MISS:    2065067
LLC PREFETCH  ACCESS:          0  HIT:          0  MISS:          0
LLC WRITEBACK ACCESS:    4037945  HIT:    4037931  MISS:         14
Heartbeat CPU 0 instructions: 100000001 cycles: 389394409 heartbeat IPC: 0.132469 cumulative IPC: 0.134444 (Simulation time: 2 hr 42 min 42 sec) 

Region of Interest Statistics
cpu0_DTLB TOTAL     ACCESS:   29466835  HIT:   28015380  MISS:    1451455
cpu0_DTLB LOAD      ACCESS:   14170041  HIT:   13829942  MISS:     340099
cpu0_DTLB RFO       ACCESS:   15296794  HIT:   14185438  MISS:    1111356
cpu0_DTLB PREFETCH  ACCESS:          0  HIT:          0  MISS:          0
cpu0_DTLB WRITEBACK ACCESS:          0  HIT:          0  MISS:          0
cpu0_ITLB TOTAL     ACCESS:    4989702  HIT:    4989702  MISS:          0
cpu0_ITLB LOAD      ACCESS:    4989702  HIT:    4989702  MISS:          0
cpu0_ITLB RFO       ACCESS:          0  HIT:          0  MISS:          0
cpu0_ITLB PREFETCH  ACCESS:          0  HIT:          0  MISS:          0
cpu0_ITLB WRITEBACK ACCESS:          0  HIT:          0  MISS:          0
cpu0_L1I TOTAL     ACCESS:     766795  HIT:     766795  MISS:          0
cpu0_L1I LOAD      ACCESS:     766795  HIT:     766795  MISS:          0
cpu0_L1I RFO       ACCESS:          0  HIT:          0  MISS:          0
cpu0_L1I PREFETCH  ACCESS:          0  HIT:          0  MISS:          0
cpu0_L1I WRITEBACK ACCESS:          0  HIT:          0  MISS:          0
cpu0_STLB TOTAL     ACCESS:    1451455  HIT:     246159  MISS:    1205296
cpu0_STLB LOAD      ACCESS:     340099  HIT:     241091  MISS:      99008
cpu0_STLB RFO       ACCESS:    1111356  HIT:       5068  MISS:    1106288
cpu0_STLB PREFETCH  ACCESS:          0  HIT:          0  MISS:          0
cpu0_STLB WRITEBACK ACCESS:          0  HIT:          0  MISS:          0
cpu0_L1D TOTAL     ACCESS:   26348099  HIT:   21766764  MISS:    4581335
cpu0_L1D LOAD      ACCESS:   15270123  HIT:   12954826  MISS:    2315297
cpu0_L1D RFO       ACCESS:    9873422  HIT:    7686782  MISS:    2186640
cpu0_L1D PREFETCH  ACCESS:          0  HIT:          0  MISS:          0
cpu0_L1D WRITEBACK ACCESS:          0  HIT:          0  MISS:          0
cpu0_L2C TOTAL     ACCESS:    9083265  HIT:    4868673  MISS:    4214592
cpu0_L2C LOAD      ACCESS:    2315262  HIT:     293627  MISS:    2021635
cpu0_L2C RFO       ACCESS:    2186640  HIT:        320  MISS:    2186320
cpu0_L2C PREFETCH  ACCESS:          0  HIT:          0  MISS:          0
cpu0_L2C WRITEBACK ACCESS:    4501965  HIT:    4500740  MISS:       1225
LLC TOTAL     ACCESS:    8421524  HIT:    4943600  MISS:    3477924
LLC LOAD      ACCESS:    2021586  HIT:     696482  MISS:    1325104
LLC RFO       ACCESS:    2186320  HIT:      34509  MISS:    2151811
LLC PREFETCH  ACCESS:          0  HIT:          0  MISS:          0
LLC WRITEBACK ACCESS:    4208206  HIT:    4208190  MISS:         16
Heartbeat CPU 0 instructions: 102000000 cycles: 404463076 heartbeat IPC: 0.132726 cumulative IPC: 0.134377 (Simulation time: 2 hr 47 min 10 sec) 

Region of Interest Statistics
cpu0_DTLB TOTAL     ACCESS:   30644545  HIT:   29136179  MISS:    1508366
cpu0_DTLB LOAD      ACCESS:   14736741  HIT:   14384018  MISS:     352723
cpu0_DTLB RFO       ACCESS:   15907804  HIT:   14752161  MISS:    1155643
cpu0_DTLB PREFETCH  ACCESS:          0  HIT:          0  MISS:          0
cpu0_DTLB WRITEBACK ACCESS:          0  HIT:          0  MISS:          0
cpu0_ITLB TOTAL     ACCESS:    5192526  HIT:    5192526  MISS:          0
cpu0_ITLB LOAD      ACCESS:    5192526  HIT:    5192526  MISS:          0
cpu0_ITLB RFO       ACCESS:          0  HIT:          0  MISS:          0
cpu0_ITLB PREFETCH  ACCESS:          0  HIT:          0  MISS:          0
cpu0_ITLB WRITEBACK ACCESS:          0  HIT:          0  MISS:          0
cpu0_L1I TOTAL     ACCESS:     791621  HIT:     791621  MISS:          0
cpu0_L1I LOAD      ACCESS:     791621  HIT:     791621  MISS:          0
cpu0_L1I RFO       ACCESS:          0  HIT:          0  MISS:          0
cpu0_L1I PREFETCH  ACCESS:          0  HIT:          0  MISS:          0
cpu0_L1I WRITEBACK ACCESS:          0  HIT:          0  MISS:          0
cpu0_STLB TOTAL     ACCESS:    1508366  HIT:     254215  MISS:    1254151
cpu0_STLB LOAD      ACCESS:     352723  HIT:     248917  MISS:     103806
cpu0_STLB RFO       ACCESS:    1155643  HIT:       5298  MISS:    1150345
cpu0_STLB PREFETCH  ACCESS:          0  HIT:          0  MISS:          0
cpu0_STLB WRITEBACK ACCESS:          0  HIT:          0  MISS:          0
cpu0_L1D TOTAL     ACCESS:   27402528  HIT:   22638320  MISS:    4764208
cpu0_L1D LOAD      ACCESS:   15882496  HIT:   13474873  MISS:    2407623
cpu0_L1D RFO       ACCESS:   10266648  HIT:    7992669  MISS:    2273979
cpu0_L1D PREFETCH  ACCESS:          0  HIT:          0  MISS:          0
cpu0_L1D WRITEBACK ACCESS:          0  HIT:          0  MISS:          0
cpu0_L2C TOTAL     ACCESS:    9445789  HIT:    5060948  MISS:    4384841
cpu0_L2C LOAD      ACCESS:    2407586  HIT:     303342  MISS:    2104244
cpu0_L2C RFO       ACCESS:    2273979  HIT:        320  MISS:    2273659
cpu0_L2C PREFETCH  ACCESS:          0  HIT:          0  MISS:          0
cpu0_L2C WRITEBACK ACCESS:    4681618  HIT:    4680333  MISS:       1285
LLC TOTAL     ACCESS:    8761668  HIT:    5142589  MISS:    3619079
LLC LOAD      ACCESS:    2104195  HIT:     725230  MISS:    1378965
LLC RFO       ACCESS:    2273659  HIT:      34585  MISS:    2239074
LLC PREFETCH  ACCESS:          0  HIT:          0  MISS:          0
LLC WRITEBACK ACCESS:    4378161  HIT:    4378143  MISS:         18
Heartbeat CPU 0 instructions: 104000000 cycles: 419350282 heartbeat IPC: 0.134344 cumulative IPC: 0.134376 (Simulation time: 2 hr 51 min 53 sec) 

Region of Interest Statistics
cpu0_DTLB TOTAL     ACCESS:   31821162  HIT:   30254386  MISS:    1566776
cpu0_DTLB LOAD      ACCESS:   15302456  HIT:   14935729  MISS:     366727
cpu0_DTLB RFO       ACCESS:   16518706  HIT:   15318657  MISS:    1200049
cpu0_DTLB PREFETCH  ACCESS:          0  HIT:          0  MISS:          0
cpu0_DTLB WRITEBACK ACCESS:          0  HIT:          0  MISS:          0
cpu0_ITLB TOTAL     ACCESS:    5382587  HIT:    5382587  MISS:          0
cpu0_ITLB LOAD      ACCESS:    5382587  HIT:    5382587  MISS:          0
cpu0_ITLB RFO       ACCESS:          0  HIT:          0  MISS:          0
cpu0_ITLB PREFETCH  ACCESS:          0  HIT:          0  MISS:          0
cpu0_ITLB WRITEBACK ACCESS:          0  HIT:          0  MISS:          0
cpu0_L1I TOTAL     ACCESS:     837474  HIT:     837474  MISS:          0
cpu0_L1I LOAD      ACCESS:     837474  HIT:     837474  MISS:          0
cpu0_L1I RFO       ACCESS:          0  HIT:          0  MISS:          0
cpu0_L1I PREFETCH  ACCESS:          0  HIT:          0  MISS:          0
cpu0_L1I WRITEBACK ACCESS:          0  HIT:          0  MISS:          0
cpu0_STLB TOTAL     ACCESS:    1566776  HIT:     263673  MISS:    1303103
cpu0_STLB LOAD      ACCESS:     366727  HIT:     258187  MISS:     108540
cpu0_STLB RFO       ACCESS:    1200049  HIT:       5486  MISS:    1194563
cpu0_STLB PREFETCH  ACCESS:          0  HIT:          0  MISS:          0
cpu0_STLB WRITEBACK ACCESS:          0  HIT:          0  MISS:          0
cpu0_L1D TOTAL     ACCESS:   28451238  HIT:   23504280  MISS:    4946958
cpu0_L1D LOAD      ACCESS:   16487442  HIT:   13987628  MISS:    2499814
cpu0_L1D RFO       ACCESS:   10661499  HIT:    8300196  MISS:    2361303
cpu0_L1D PREFETCH  ACCESS:          0  HIT:          0  MISS:          0
cpu0_L1D WRITEBACK ACCESS:          0  HIT:          0  MISS:          0
cpu0_L2C TOTAL     ACCESS:    9808055  HIT:    5254715  MISS:    4553340
cpu0_L2C LOAD      ACCESS:    2499775  HIT:     314629  MISS:    2185146
cpu0_L2C RFO       ACCESS:    2361303  HIT:        332  MISS:    2360971
cpu0_L2C PREFETCH  ACCESS:          0  HIT:          0  MISS:          0
cpu0_L2C WRITEBACK ACCESS:    4861136  HIT:    4859800  MISS:       1336
LLC TOTAL     ACCESS:    9098346  HIT:    5340178  MISS:    3758168
LLC LOAD      ACCESS:    2185096  HIT:     752172  MISS:    1432924
LLC RFO       ACCESS:    2360971  HIT:      36810  MISS:    2324161
LLC PREFETCH  ACCESS:          0  HIT:          0  MISS:          0
LLC WRITEBACK ACCESS:    4546392  HIT:    4546373  MISS:         19
Heartbeat CPU 0 instructions: 106000003 cycles: 434503341 heartbeat IPC: 0.131987 cumulative IPC: 0.134289 (Simulation time: 2 hr 56 min 33 sec) 

Region of Interest Statistics
cpu0_DTLB TOTAL     ACCESS:   33000831  HIT:   31375953  MISS:    1624878
cpu0_DTLB LOAD      ACCESS:   15870035  HIT:   15489634  MISS:     380401
cpu0_DTLB RFO       ACCESS:   17130796  HIT:   15886319  MISS:    1244477
cpu0_DTLB PREFETCH  ACCESS:          0  HIT:          0  MISS:          0
cpu0_DTLB WRITEBACK ACCESS:          0  HIT:          0  MISS:          0
cpu0_ITLB TOTAL     ACCESS:    5580778  HIT:    5580778  MISS:          0
cpu0_ITLB LOAD      ACCESS:    5580778  HIT:    5580778  MISS:          0
cpu0_ITLB RFO       ACCESS:          0  HIT:          0  MISS:          0
cpu0_ITLB PREFETCH  ACCESS:          0  HIT:          0  MISS:          0
cpu0_ITLB WRITEBACK ACCESS:          0  HIT:          0  MISS:          0
cpu0_L1I TOTAL     ACCESS:     870622  HIT:     870622  MISS:          0
cpu0_L1I LOAD      ACCESS:     870622  HIT:     870622  MISS:          0
cpu0_L1I RFO       ACCESS:          0  HIT:          0  MISS:          0
cpu0_L1I PREFETCH  ACCESS:          0  HIT:          0  MISS:          0
cpu0_L1I WRITEBACK ACCESS:          0  HIT:          0  MISS:          0
cpu0_STLB TOTAL     ACCESS:    1624878  HIT:     272729  MISS:    1352149
cpu0_STLB LOAD      ACCESS:     380401  HIT:     267081  MISS:     113320
cpu0_STLB RFO       ACCESS:    1244477  HIT:       5648  MISS:    1238829
cpu0_STLB PREFETCH  ACCESS:          0  HIT:          0  MISS:          0
cpu0_STLB WRITEBACK ACCESS:          0  HIT:          0  MISS:          0
cpu0_L1D TOTAL     ACCESS:   29506350  HIT:   24376031  MISS:    5130319
cpu0_L1D LOAD      ACCESS:   17098689  HIT:   14506330  MISS:    2592359
cpu0_L1D RFO       ACCESS:   11056343  HIT:    8607544  MISS:    2448799
cpu0_L1D PREFETCH  ACCESS:          0  HIT:          0  MISS:          0
cpu0_L1D WRITEBACK ACCESS:          0  HIT:          0  MISS:          0
cpu0_L2C TOTAL     ACCESS:   10171448  HIT:    5448537  MISS:    4722911
cpu0_L2C LOAD      ACCESS:    2592320  HIT:     325348  MISS:    2266972
cpu0_L2C RFO       ACCESS:    2448799  HIT:        332  MISS:    2448467
cpu0_L2C PREFETCH  ACCESS:          0  HIT:          0  MISS:          0
[...]
cpu0_DTLB LOAD      ACCESS:  353480774  HIT:  344810200  MISS:    8670574
cpu0_DTLB RFO       ACCESS:  190511909  HIT:  180328934  MISS:   10182975
cpu0_DTLB PREFETCH  ACCESS:          0  HIT:          0  MISS:          0
cpu0_DTLB WRITEBACK ACCESS:          0  HIT:          0  MISS:          0
cpu0_ITLB TOTAL     ACCESS:  164043810  HIT:  164043791  MISS:         19
cpu0_ITLB LOAD      ACCESS:  164043810  HIT:  164043791  MISS:         19
cpu0_ITLB RFO       ACCESS:          0  HIT:          0  MISS:          0
cpu0_ITLB PREFETCH  ACCESS:          0  HIT:          0  MISS:          0
cpu0_ITLB WRITEBACK ACCESS:          0  HIT:          0  MISS:          0
cpu0_L1I TOTAL     ACCESS:   95931823  HIT:   95931597  MISS:        226
cpu0_L1I LOAD      ACCESS:   95931823  HIT:   95931597  MISS:        226
cpu0_L1I RFO       ACCESS:          0  HIT:          0  MISS:          0
cpu0_L1I PREFETCH  ACCESS:          0  HIT:          0  MISS:          0
cpu0_L1I WRITEBACK ACCESS:          0  HIT:          0  MISS:          0
cpu0_STLB TOTAL     ACCESS:   18853568  HIT:    8967067  MISS:    9886501
cpu0_STLB LOAD      ACCESS:    8670593  HIT:    7779815  MISS:     890778
cpu0_STLB RFO       ACCESS:   10182975  HIT:    1187252  MISS:    8995723
cpu0_STLB PREFETCH  ACCESS:          0  HIT:          0  MISS:          0
cpu0_STLB WRITEBACK ACCESS:          0  HIT:          0  MISS:          0
cpu0_L1D TOTAL     ACCESS:  605344844  HIT:  536680095  MISS:   68664749
cpu0_L1D LOAD      ACCESS:  409126821  HIT:  362800846  MISS:   46325975
cpu0_L1D RFO       ACCESS:  186337330  HIT:  164653847  MISS:   21683483
cpu0_L1D PREFETCH  ACCESS:          0  HIT:          0  MISS:          0
cpu0_L1D WRITEBACK ACCESS:          0  HIT:          0  MISS:          0
cpu0_L2C TOTAL     ACCESS:  109576514  HIT:   62006560  MISS:   47569954
cpu0_L2C LOAD      ACCESS:   46325542  HIT:   17709555  MISS:   28615987
cpu0_L2C RFO       ACCESS:   21683085  HIT:    2789143  MISS:   18893942
cpu0_L2C PREFETCH  ACCESS:          0  HIT:          0  MISS:          0
cpu0_L2C WRITEBACK ACCESS:   40912596  HIT:   40902380  MISS:      10216
LLC TOTAL     ACCESS:   82790696  HIT:   50329494  MISS:   32461202
LLC LOAD      ACCESS:   28615514  HIT:   13530509  MISS:   15085005
LLC RFO       ACCESS:   18893664  HIT:    1536777  MISS:   17356887
LLC PREFETCH  ACCESS:          0  HIT:          0  MISS:          0
LLC WRITEBACK ACCESS:   35231709  HIT:   35220561  MISS:      11148
Heartbeat CPU 0 instructions: 1550000004 cycles: 4200428541 heartbeat IPC: 0.880148 cumulative IPC: 0.3586 (Simulation time: 16 hr 40 min 19 sec) 

Region of Interest Statistics
cpu0_DTLB TOTAL     ACCESS:  544553483  HIT:  525680425  MISS:   18873058
cpu0_DTLB LOAD      ACCESS:  353912638  HIT:  345226471  MISS:    8686167
cpu0_DTLB RFO       ACCESS:  190640845  HIT:  180453954  MISS:   10186891
cpu0_DTLB PREFETCH  ACCESS:          0  HIT:          0  MISS:          0
cpu0_DTLB WRITEBACK ACCESS:          0  HIT:          0  MISS:          0
cpu0_ITLB TOTAL     ACCESS:  164268150  HIT:  164268131  MISS:         19
cpu0_ITLB LOAD      ACCESS:  164268150  HIT:  164268131  MISS:         19
cpu0_ITLB RFO       ACCESS:          0  HIT:          0  MISS:          0
cpu0_ITLB PREFETCH  ACCESS:          0  HIT:          0  MISS:          0
cpu0_ITLB WRITEBACK ACCESS:          0  HIT:          0  MISS:          0
cpu0_L1I TOTAL     ACCESS:   96083766  HIT:   96083540  MISS:        226
cpu0_L1I LOAD      ACCESS:   96083766  HIT:   96083540  MISS:        226
cpu0_L1I RFO       ACCESS:          0  HIT:          0  MISS:          0
cpu0_L1I PREFETCH  ACCESS:          0  HIT:          0  MISS:          0
cpu0_L1I WRITEBACK ACCESS:          0  HIT:          0  MISS:          0
cpu0_STLB TOTAL     ACCESS:   18873077  HIT:    8986423  MISS:    9886654
cpu0_STLB LOAD      ACCESS:    8686186  HIT:    7795257  MISS:     890929
cpu0_STLB RFO       ACCESS:   10186891  HIT:    1191166  MISS:    8995725
cpu0_STLB PREFETCH  ACCESS:          0  HIT:          0  MISS:          0
cpu0_STLB WRITEBACK ACCESS:          0  HIT:          0  MISS:          0
cpu0_L1D TOTAL     ACCESS:  606060132  HIT:  537325898  MISS:   68734234
cpu0_L1D LOAD      ACCESS:  409641565  HIT:  363257043  MISS:   46384522
cpu0_L1D RFO       ACCESS:  186537721  HIT:  164843309  MISS:   21694412
cpu0_L1D PREFETCH  ACCESS:          0  HIT:          0  MISS:          0
cpu0_L1D WRITEBACK ACCESS:          0  HIT:          0  MISS:          0
cpu0_L2C TOTAL     ACCESS:  109659162  HIT:   62058764  MISS:   47600398
cpu0_L2C LOAD      ACCESS:   46384087  HIT:   17740537  MISS:   28643550
cpu0_L2C RFO       ACCESS:   21694014  HIT:    2797204  MISS:   18896810
cpu0_L2C PREFETCH  ACCESS:          0  HIT:          0  MISS:          0
cpu0_L2C WRITEBACK ACCESS:   40925761  HIT:   40915541  MISS:      10220
LLC TOTAL     ACCESS:   82825690  HIT:   50354550  MISS:   32471140
LLC LOAD      ACCESS:   28643077  HIT:   13548171  MISS:   15094906
LLC RFO       ACCESS:   18896531  HIT:    1539641  MISS:   17356890
LLC PREFETCH  ACCESS:          0  HIT:          0  MISS:          0
LLC WRITEBACK ACCESS:   35236264  HIT:   35225082  MISS:      11182
Finished CPU 0 instructions: 1500000000 cycles: 4182935033 cumulative IPC: 0.3586 (Simulation time: 16 hr 40 min 19 sec) 

ChampSim completed all CPUs

Region of Interest Statistics

CPU 0 cumulative IPC: 0.3586 instructions: 1500000000 cycles: 4182935033
cpu0_DTLB TOTAL     ACCESS:  544553483  HIT:  525680425  MISS:   18873058
cpu0_DTLB LOAD      ACCESS:  353912638  HIT:  345226471  MISS:    8686167
cpu0_DTLB RFO       ACCESS:  190640845  HIT:  180453954  MISS:   10186891
cpu0_DTLB PREFETCH  ACCESS:          0  HIT:          0  MISS:          0
cpu0_DTLB WRITEBACK ACCESS:          0  HIT:          0  MISS:          0
cpu0_DTLB TRANSLATION ACCESS:          0  HIT:          0  MISS:          0
cpu0_DTLB PREFETCH  REQUESTED:          0  ISSUED:          0  USEFUL:          0  USELESS:          0
cpu0_DTLB AVERAGE MISS LATENCY: 15.9148 cycles
cpu0_ITLB TOTAL     ACCESS:  164268150  HIT:  164268131  MISS:         19
cpu0_ITLB LOAD      ACCESS:  164268150  HIT:  164268131  MISS:         19
cpu0_ITLB RFO       ACCESS:          0  HIT:          0  MISS:          0
cpu0_ITLB PREFETCH  ACCESS:          0  HIT:          0  MISS:          0
cpu0_ITLB WRITEBACK ACCESS:          0  HIT:          0  MISS:          0
cpu0_ITLB TRANSLATION ACCESS:          0  HIT:          0  MISS:          0
cpu0_ITLB PREFETCH  REQUESTED:          0  ISSUED:          0  USEFUL:          0  USELESS:          0
cpu0_ITLB AVERAGE MISS LATENCY: 238.579 cycles
cpu0_L1I TOTAL     ACCESS:   96083766  HIT:   96083540  MISS:        226
cpu0_L1I LOAD      ACCESS:   96083766  HIT:   96083540  MISS:        226
cpu0_L1I RFO       ACCESS:          0  HIT:          0  MISS:          0
cpu0_L1I PREFETCH  ACCESS:          0  HIT:          0  MISS:          0
cpu0_L1I WRITEBACK ACCESS:          0  HIT:          0  MISS:          0
cpu0_L1I TRANSLATION ACCESS:          0  HIT:          0  MISS:          0
cpu0_L1I PREFETCH  REQUESTED:          0  ISSUED:          0  USEFUL:          0  USELESS:          0
cpu0_L1I AVERAGE MISS LATENCY: 223.372 cycles
cpu0_STLB TOTAL     ACCESS:   18873077  HIT:    8986423  MISS:    9886654
cpu0_STLB LOAD      ACCESS:    8686186  HIT:    7795257  MISS:     890929
cpu0_STLB RFO       ACCESS:   10186891  HIT:    1191166  MISS:    8995725
cpu0_STLB PREFETCH  ACCESS:          0  HIT:          0  MISS:          0
cpu0_STLB WRITEBACK ACCESS:          0  HIT:          0  MISS:          0
cpu0_STLB TRANSLATION ACCESS:          0  HIT:          0  MISS:          0
cpu0_STLB PREFETCH  REQUESTED:          0  ISSUED:          0  USEFUL:          0  USELESS:          0
cpu0_STLB AVERAGE MISS LATENCY: 13.1702 cycles
cpu0_L1D TOTAL     ACCESS:  606060132  HIT:  537325898  MISS:   68734234
cpu0_L1D LOAD      ACCESS:  409641565  HIT:  363257043  MISS:   46384522
cpu0_L1D RFO       ACCESS:  186537721  HIT:  164843309  MISS:   21694412
cpu0_L1D PREFETCH  ACCESS:          0  HIT:          0  MISS:          0
cpu0_L1D WRITEBACK ACCESS:          0  HIT:          0  MISS:          0
cpu0_L1D TRANSLATION ACCESS:    9880846  HIT:    9225546  MISS:     655300
cpu0_L1D PREFETCH  REQUESTED:          0  ISSUED:          0  USEFUL:          0  USELESS:          0
cpu0_L1D AVERAGE MISS LATENCY: 322.363 cycles
cpu0_L2C TOTAL     ACCESS:  109659162  HIT:   62058764  MISS:   47600398
cpu0_L2C LOAD      ACCESS:   46384087  HIT:   17740537  MISS:   28643550
cpu0_L2C RFO       ACCESS:   21694014  HIT:    2797204  MISS:   18896810
cpu0_L2C PREFETCH  ACCESS:          0  HIT:          0  MISS:          0
cpu0_L2C WRITEBACK ACCESS:   40925761  HIT:   40915541  MISS:      10220
cpu0_L2C TRANSLATION ACCESS:     655300  HIT:     605482  MISS:      49818
cpu0_L2C PREFETCH  REQUESTED:          0  ISSUED:          0  USEFUL:          0  USELESS:          0
cpu0_L2C AVERAGE MISS LATENCY: 449.54 cycles
LLC TOTAL     ACCESS:   82825690  HIT:   50354550  MISS:   32471140
LLC LOAD      ACCESS:   28643077  HIT:   13548171  MISS:   15094906
LLC RFO       ACCESS:   18896531  HIT:    1539641  MISS:   17356890
LLC PREFETCH  ACCESS:          0  HIT:          0  MISS:          0
LLC WRITEBACK ACCESS:   35236264  HIT:   35225082  MISS:      11182
LLC TRANSLATION ACCESS:      49818  HIT:      41656  MISS:       8162
LLC PREFETCH  REQUESTED:          0  ISSUED:          0  USEFUL:          0  USELESS:          0
LLC AVERAGE MISS LATENCY: 628.207 cycles
~~~~~~~~~~Reuse Distance Profiler output~~~~~~~~~~
0	0	0
1	0	0
2	0	0
3	0	0
4	0	0
5	0	0
6	0	0
7	0	0
8	0	0
9	0	0
10	0	0
11	0	0
12	0	0
13	0	0
14	0	0
15	0	0
16	0	0
17	0	0
18	0	0
19	0	0
20	0	0
21	0	0
22	0	0
23	0	0
24	0	0
25	0	0
26	0	0
27	0	0
28	0	0
29	0	0
30	0	0
31	0	0
32	0	0
33	0	0
34	0	0
35	0	0
36	0	0
37	0	0
38	0	0
39	0	0
40	0	0
41	0	0
42	0	0
43	0	0
44	0	0
45	0	0
46	0	0
47	0	0
48	0	0
49	0	0
50	0	0
51	0	0
52	0	0
53	0	0
54	0	0
55	0	0
56	0	0
57	0	0
58	0	0
59	0	0
60	0	0
61	0	0
62	0	0
63	0	0
64	0	0
66	0	0
68	0	0
70	0	0
72	0	0
74	0	0
76	0	0
78	0	0
80	0	0
82	0	0
84	0	0
86	0	0
88	0	0
90	0	0
92	0	0
94	0	0
96	0	0
98	0	0
100	0	0
102	0	0
104	0	0
106	0	0
108	0	0
110	0	0
112	0	0
114	0	0
116	0	0
118	0	0
120	0	0
122	0	0
124	0	0
126	0	0
128	0	0
132	0	0
136	0	0
140	0	0
144	0	0
148	0	0
152	0	0
156	0	0
160	0	0
164	0	0
168	0	0
172	0	0
176	0	0
180	0	0
184	0	0
188	0	0
192	0	0
196	0	0
200	0	0
204	0	0
208	0	0
212	0	0
216	0	0
220	0	0
224	0	0
228	0	0
232	0	0
236	0	0
240	0	0
244	0	0
248	0	0
252	0	0
256	0	0
264	0	0
272	0	0
280	0	0
288	0	0
296	0	0
304	0	0
312	0	0
320	0	0
328	0	0
336	0	0
344	0	0
352	0	0
360	0	0
368	0	0
376	0	0
384	0	0
392	0	0
400	0	0
408	0	0
416	0	0
424	0	0
432	0	0
440	0	0
448	0	0
456	0	0
464	0	0
472	0	0
480	0	0
488	0	0
496	0	0
504	0	0
512	0	0
528	0	0
544	0	0
560	0	0
576	0	0
592	0	0
608	0	0
624	0	0
640	0	0
656	0	0
672	0	0
688	0	0
704	0	0
720	0	0
736	0	0
752	0	0
768	0	0
784	0	0
800	0	0
816	0	0
832	0	0
848	0	0
864	0	0
880	0	0
896	0	0
912	0	0
928	0	0
944	0	0
960	0	0
976	0	0
992	0	0
1008	0	0
1024	0	0
1056	0	0
1088	0	0
1120	0	0
1152	0	0
1184	0	0
1216	0	0
1248	0	0
1280	0	0
1312	0	0
1344	0	0
1376	0	0
1408	0	0
1440	0	0
1472	0	0
1504	0	0
1536	0	0
1568	0	0
1600	0	0
1632	0	0
1664	0	0
1696	0	0
1728	0	0
1760	0	0
1792	0	0
1824	0	0
1856	0	0
1888	0	0
1920	0	0
1952	0	0
1984	0	0
2016	0	0
2048	0	0
2112	0	0
2176	0	0
2240	0	0
2304	0	0
2368	0	0
2432	0	0
2496	0	0
2560	0	0
2624	0	0
2688	0	0
2752	0	0
2816	0	0
2880	0	0
2944	0	0
3008	0	0
3072	0	0
3136	0	0
3200	0	0
3264	0	0
3328	0	0
3392	0	0
3456	0	0
3520	0	0
3584	0	0
3648	0	0
3712	0	0
3776	0	0
3840	0	0
3904	0	0
3968	0	0
4032	0	0
4096	0	0
4224	0	0
4352	0	0
4480	0	0
4608	0	0
4736	0	0
4864	0	0
4992	0	0
5120	0	0
5248	0	0
5376	0	0
5504	0	0
5632	0	0
5760	0	0
5888	0	0
6016	0	0
6144	0	0
6272	0	0
6400	0	0
6528	0	0
6656	0	0
6784	0	0
6912	0	0
7040	0	0
7168	0	0
7296	0	0
7424	0	0
7552	0	0
7680	0	0
7808	0	0
7936	0	0
8064	0	0
8192	0	0
8448	0	0
8704	0	0
8960	0	0
9216	0	0
9472	0	0
9728	0	0
9984	0	0
10240	0	0
10496	0	0
10752	0	0
11008	0	0
11264	0	0
11520	0	0
11776	0	0
12032	0	0
12288	0	0
12544	0	0
12800	0	0
13056	0	0
13312	0	0
13568	0	0
13824	0	0
14080	0	0
14336	0	0
14592	0	0
14848	0	0
15104	0	0
15360	0	0
15616	0	0
15872	0	0
16128	0	0
16384	0	0
16896	0	0
17408	0	0
17920	0	0
18432	0	0
18944	0	0
19456	0	0
19968	0	0
20480	0	0
20992	0	0
21504	0	0
22016	0	0
22528	0	0
23040	0	0
23552	0	0
24064	0	0
24576	0	0
25088	0	0
25600	0	0
26112	0	0
26624	0	0
27136	0	0
27648	0	0
28160	0	0
28672	0	0
29184	0	0
29696	0	0
30208	0	0
30720	0	0
31232	0	0
31744	0	0
32256	0	0
32768	0	0
33792	0	0
34816	0	0
35840	0	0
36864	0	0
37888	0	0
38912	0	0
39936	0	0
40960	0	0
41984	0	0
43008	0	0
44032	0	0
45056	0	0
46080	0	0
47104	0	0
48128	0	0
49152	0	0
50176	0	0
51200	0	0
52224	0	0
53248	0	0
54272	0	0
55296	0	0
56320	0	0
57344	0	0
58368	0	0
59392	0	0
60416	0	0
61440	0	0
62464	0	0
63488	0	0
64512	0	0
65536	0	0
67584	0	0
69632	0	0
71680	0	0
73728	0	0
75776	0	0
77824	0	0
79872	0	0
81920	0	0
83968	0	0
86016	0	0
88064	0	0
90112	0	0
92160	0	0
94208	0	0
96256	0	0
98304	0	0
100352	0	0
102400	0	0
104448	0	0
106496	0	0
108544	0	0
110592	0	0
112640	0	0
114688	0	0
116736	0	0
118784	0	0
120832	0	0
122880	0	0
124928	0	0
126976	0	0
129024	0	0
131072	0	0
135168	0	0
139264	0	0
143360	0	0
147456	0	0
151552	0	0
155648	0	0
159744	0	0
163840	0	0
167936	0	0
172032	0	0
176128	0	0
180224	0	0
184320	0	0
188416	0	0
192512	0	0
196608	0	0
200704	0	0
204800	0	0
208896	0	0
212992	0	0
217088	0	0
221184	0	0
225280	0	0
229376	0	0
233472	0	0
237568	0	0
241664	0	0
245760	0	0
249856	0	0
253952	0	0
258048	0	0
262144	0	0
270336	0	0
278528	0	0
286720	0	0
294912	0	0
303104	0	0
311296	0	0
319488	0	0
327680	0	0
335872	0	0
344064	0	0
352256	0	0
360448	0	0
368640	0	0
376832	0	0
385024	0	0
393216	0	0
401408	0	0
409600	0	0
417792	0	0
425984	0	0
434176	0	0
442368	0	0
450560	0	0
458752	0	0
466944	0	0
475136	0	0
483328	0	0
491520	0	0
499712	0	0
507904	0	0
516096	0	0
524288	0	0
540672	0	0
557056	0	0
573440	0	0
589824	0	0
606208	0	0
622592	0	0
638976	0	0
655360	0	0
671744	0	0
688128	0	0
704512	0	0
720896	0	0
737280	0	0
753664	0	0
770048	0	0
786432	0	0
802816	0	0
819200	0	0
835584	0	0
851968	0	0
868352	0	0
884736	0	0
901120	0	0
917504	0	0
933888	0	0
950272	0	0
966656	0	0
983040	0	0
999424	0	0
1015808	0	0
1032192	0	0
1048576	0	0
1081344	0	0
1114112	0	0
1146880	0	0
1179648	0	0
1212416	0	0
1245184	0	0
1277952	0	0
1310720	0	0
1343488	0	0
1376256	0	0
1409024	0	0
1441792	0	0
1474560	0	0
1507328	0	0
1540096	0	0
1572864	0	0
1605632	0	0
1638400	0	0
1671168	0	0
1703936	0	0
1736704	0	0
1769472	0	0
1802240	0	0
1835008	0	0
1867776	0	0
1900544	0	0
1933312	0	0
1966080	0	0
1998848	0	0
2031616	0	0
2064384	0	0
2097152	0	0
2162688	0	0
2228224	0	0
2293760	0	0
2359296	0	0
2424832	0	0
2490368	0	0
2555904	0	0
2621440	0	0
2686976	0	0
2752512	0	0
2818048	0	0
2883584	0	0
2949120	0	0
3014656	0	0
3080192	0	0
3145728	0	0
3211264	0	0
3276800	0	0
3342336	0	0
3407872	0	0
3473408	0	0
3538944	0	0
3604480	0	0
3670016	0	0
3735552	0	0
3801088	0	0
3866624	0	0
3932160	0	0
3997696	0	0
4063232	0	0
4128768	0	0
4194304	0	0
4325376	0	0
4456448	0	0
4587520	0	0
4718592	0	0
4849664	0	0
4980736	0	0
5111808	0	0
5242880	0	0
5373952	0	0
5505024	0	0
5636096	0	0
5767168	0	0
5898240	0	0
6029312	0	0
6160384	0	0
6291456	0	0
6422528	0	0
6553600	0	0
6684672	0	0
6815744	0	0
6946816	0	0
7077888	0	0
7208960	0	0
7340032	0	0
7471104	0	0
7602176	0	0
7733248	0	0
7864320	0	0
7995392	0	0
8126464	0	0
8257536	0	0
8388608	0	0
8650752	0	0
8912896	0	0
9175040	0	0
9437184	0	0
9699328	0	0
9961472	0	0
10223616	0	0
10485760	0	0
10747904	0	0
11010048	0	0
11272192	0	0
11534336	0	0
11796480	0	0
12058624	0	0
12320768	0	0
12582912	0	0
12845056	0	0
13107200	0	0
13369344	0	0
13631488	0	0
13893632	0	0
14155776	0	0
14417920	0	0
14680064	0	0
14942208	0	0
15204352	0	0
15466496	0	0
15728640	0	0
15990784	0	0
16252928	0	0
16515072	0	0
16777216	0	0
17301504	0	0
17825792	0	0
18350080	0	0
18874368	0	0
19398656	0	0
19922944	0	0
20447232	0	0
20971520	0	0
21495808	0	0
22020096	0	0
22544384	0	0
23068672	0	0
23592960	0	0
24117248	0	0
24641536	0	0
25165824	0	0
25690112	0	0
26214400	0	0
26738688	0	0
27262976	0	0
27787264	0	0
28311552	0	0
28835840	0	0
29360128	0	0
29884416	0	0
30408704	0	0
30932992	0	0
31457280	0	0
31981568	0	0
32505856	0	0
33030144	0	0
33554432	0	0
34603008	0	0
35651584	0	0
36700160	0	0
37748736	0	0
38797312	0	0
39845888	0	0
40894464	0	0
41943040	0	0
42991616	0	0
44040192	0	0
45088768	0	0
46137344	0	0
47185920	0	0
48234496	0	0
49283072	0	0
50331648	0	0
51380224	0	0
52428800	0	0
53477376	0	0
54525952	0	0
55574528	0	0
56623104	0	0
57671680	0	0
58720256	0	0
59768832	0	0
60817408	0	0
61865984	0	0
62914560	0	0
63963136	0	0
65011712	0	0
66060288	0	0
67108864	0	0
69206016	0	0
71303168	0	0
73400320	0	0
75497472	0	0
77594624	0	0
79691776	0	0
81788928	0	0
83886080	0	0
85983232	0	0
88080384	0	0
90177536	0	0
92274688	0	0
94371840	0	0
96468992	0	0
98566144	0	0
100663296	0	0
102760448	0	0
104857600	0	0
106954752	0	0
109051904	0	0
111149056	0	0
113246208	0	0
115343360	0	0
117440512	0	0
119537664	0	0
121634816	0	0
123731968	0	0
125829120	0	0
127926272	0	0
130023424	0	0
132120576	0	0
134217728	0	0
138412032	0	0
142606336	0	0
146800640	0	0
150994944	0	0
155189248	0	0
159383552	0	0
163577856	0	0
167772160	0	0
171966464	0	0
176160768	0	0
180355072	0	0
184549376	0	0
188743680	0	0
192937984	0	0
197132288	0	0
201326592	0	0
205520896	0	0
209715200	0	0
213909504	0	0
218103808	0	0
222298112	0	0
226492416	0	0
230686720	0	0
234881024	0	0
239075328	0	0
243269632	0	0
247463936	0	0
251658240	0	0
255852544	0	0
260046848	0	0
264241152	0	0
268435456	0	0
276824064	0	0
285212672	0	0
293601280	0	0
301989888	0	0
310378496	0	0
318767104	0	0
327155712	0	0
335544320	0	0
343932928	0	0
352321536	0	0
360710144	0	0
369098752	0	0
377487360	0	0
385875968	0	0
394264576	0	0
402653184	0	0
411041792	0	0
419430400	0	0
427819008	0	0
436207616	0	0
444596224	0	0
452984832	0	0
461373440	0	0
469762048	0	0
478150656	0	0
486539264	0	0
494927872	0	0
503316480	0	0
511705088	0	0
520093696	0	0
528482304	0	0
536870912	0	0
553648128	0	0
570425344	0	0
587202560	0	0
603979776	0	0
620756992	0	0
637534208	0	0
654311424	0	0
671088640	0	0
687865856	0	0
704643072	0	0
721420288	0	0
738197504	0	0
754974720	0	0
771751936	0	0
788529152	0	0
805306368	0	0
822083584	0	0
838860800	0	0
855638016	0	0
872415232	0	0
889192448	0	0
905969664	0	0
922746880	0	0
939524096	0	0
956301312	0	0
973078528	0	0
989855744	0	0
1006632960	0	0
1023410176	0	0
1040187392	0	0
1056964608	0	0
1073741824	0	0
1107296256	0	0
1140850688	0	0
1174405120	0	0
1207959552	0	0
1241513984	0	0
1275068416	0	0
1308622848	0	0
1342177280	0	0
1375731712	0	0
1409286144	0	0
1442840576	0	0
1476395008	0	0
1509949440	0	0
1543503872	0	0
1577058304	0	0
1610612736	0	0
1644167168	0	0
1677721600	0	0
1711276032	0	0
1744830464	0	0
1778384896	0	0
1811939328	0	0
1845493760	0	0
1879048192	0	0
1912602624	0	0
1946157056	0	0
1979711488	0	0
2013265920	0	0
2046820352	0	0
2080374784	0	0
2113929216	0	0
2147483648	0	0
2214592512	0	0
2281701376	0	0
2348810240	0	0
2415919104	0	0
2483027968	0	0
2550136832	0	0
2617245696	0	0
2684354560	0	0
2751463424	0	0
2818572288	0	0
2885681152	0	0
2952790016	0	0
3019898880	0	0
3087007744	0	0
3154116608	0	0
3221225472	0	0
3288334336	0	0
3355443200	0	0
3422552064	0	0
3489660928	0	0
3556769792	0	0
3623878656	0	0
3690987520	0	0
3758096384	0	0
3825205248	0	0
3892314112	0	0
3959422976	0	0
4026531840	0	0
4093640704	0	0
4160749568	0	0
4227858432	0	0
~~~~~~~~~~Reuse Distance Profiler output end~~~~~~~~~~


DRAM Statistics
 CHANNEL 0
 RQ ROW_BUFFER_HIT:    3172222  ROW_BUFFER_MISS:   29286358
 DBUS AVG_CONGESTED_CYCLE:    3.99125
 WQ ROW_BUFFER_HIT:      41851  ROW_BUFFER_MISS:   27850065  FULL:          0


CPU 0 Branch Prediction Accuracy: 94.5645% MPKI: 11.6727 Average ROB Occupancy at Mispredict: 38.2384
Branch type MPKI
BRANCH_DIRECT_JUMP: 3.33333e-05
BRANCH_INDIRECT: 1.33333e-06
BRANCH_CONDITIONAL: 11.6716
BRANCH_DIRECT_CALL: 2.8e-05
BRANCH_INDIRECT_CALL: 0.00102533
BRANCH_RETURN: 2.6e-05

