
*** ChampSim Multicore Out-of-Order Simulator ***

Warmup Instructions: 50000000
Simulation Instructions: 1500000000
Number of CPUs: 1
Off-chip DRAM Size: 4 GiB Channels: 1 Width: 64-bit Data Rate: 3200 MT/s

VirtualMemory physical capacity: 8588881920 num_ppages: 2096895
VirtualMemory page size: 4096 log2_page_size: 12

CPU 0 runs traces/607.cactuBSSN_s-2421B.champsimtrace.xz
CPU 0 Bimodal branch predictor
Basic BTB sets: 1024 ways: 8 indirect buffer size: 4096 RAS size: 64
Initializing LRU.
Initializing LRU.
Initializing LRU.
Initializing LRU.
Initializing rdLRU.
Initializing LRU.
Initializing LRU.
Heartbeat CPU 0 instructions: 2000001 cycles: 740084 heartbeat IPC: 2.7024 cumulative IPC: 2.7024 (Simulation time: 0 hr 1 min 29 sec) 
Heartbeat CPU 0 instructions: 4000003 cycles: 1480352 heartbeat IPC: 2.70173 cumulative IPC: 2.70206 (Simulation time: 0 hr 3 min 1 sec) 
Heartbeat CPU 0 instructions: 6000000 cycles: 2219911 heartbeat IPC: 2.70431 cumulative IPC: 2.70281 (Simulation time: 0 hr 4 min 32 sec) 
Heartbeat CPU 0 instructions: 8000001 cycles: 2960178 heartbeat IPC: 2.70173 cumulative IPC: 2.70254 (Simulation time: 0 hr 6 min 3 sec) 
Heartbeat CPU 0 instructions: 10000001 cycles: 3699721 heartbeat IPC: 2.70437 cumulative IPC: 2.70291 (Simulation time: 0 hr 7 min 36 sec) 
Heartbeat CPU 0 instructions: 12000002 cycles: 4438474 heartbeat IPC: 2.70727 cumulative IPC: 2.70363 (Simulation time: 0 hr 9 min 4 sec) 
Heartbeat CPU 0 instructions: 14000001 cycles: 5178414 heartbeat IPC: 2.70292 cumulative IPC: 2.70353 (Simulation time: 0 hr 10 min 29 sec) 
Heartbeat CPU 0 instructions: 16000001 cycles: 5918322 heartbeat IPC: 2.70304 cumulative IPC: 2.70347 (Simulation time: 0 hr 11 min 51 sec) 
Heartbeat CPU 0 instructions: 18000000 cycles: 6658277 heartbeat IPC: 2.70287 cumulative IPC: 2.7034 (Simulation time: 0 hr 13 min 14 sec) 
Heartbeat CPU 0 instructions: 20000004 cycles: 7398188 heartbeat IPC: 2.70303 cumulative IPC: 2.70337 (Simulation time: 0 hr 14 min 46 sec) 
Heartbeat CPU 0 instructions: 22000002 cycles: 8138133 heartbeat IPC: 2.7029 cumulative IPC: 2.70332 (Simulation time: 0 hr 16 min 17 sec) 
Heartbeat CPU 0 instructions: 24000001 cycles: 8878023 heartbeat IPC: 2.7031 cumulative IPC: 2.7033 (Simulation time: 0 hr 17 min 49 sec) 
Heartbeat CPU 0 instructions: 26000002 cycles: 9617949 heartbeat IPC: 2.70297 cumulative IPC: 2.70328 (Simulation time: 0 hr 19 min 16 sec) 
Heartbeat CPU 0 instructions: 28000000 cycles: 10357838 heartbeat IPC: 2.70311 cumulative IPC: 2.70327 (Simulation time: 0 hr 20 min 42 sec) 
Heartbeat CPU 0 instructions: 30000002 cycles: 11097801 heartbeat IPC: 2.70284 cumulative IPC: 2.70324 (Simulation time: 0 hr 22 min 10 sec) 
Heartbeat CPU 0 instructions: 32000000 cycles: 11837644 heartbeat IPC: 2.70327 cumulative IPC: 2.70324 (Simulation time: 0 hr 23 min 37 sec) 
Heartbeat CPU 0 instructions: 34000000 cycles: 12577597 heartbeat IPC: 2.70287 cumulative IPC: 2.70322 (Simulation time: 0 hr 25 min 3 sec) 
Heartbeat CPU 0 instructions: 36000002 cycles: 13317476 heartbeat IPC: 2.70315 cumulative IPC: 2.70322 (Simulation time: 0 hr 26 min 31 sec) 
Heartbeat CPU 0 instructions: 38000002 cycles: 14057505 heartbeat IPC: 2.7026 cumulative IPC: 2.70318 (Simulation time: 0 hr 27 min 57 sec) 
Heartbeat CPU 0 instructions: 40000002 cycles: 14797388 heartbeat IPC: 2.70313 cumulative IPC: 2.70318 (Simulation time: 0 hr 29 min 23 sec) 
Heartbeat CPU 0 instructions: 42000002 cycles: 15537412 heartbeat IPC: 2.70262 cumulative IPC: 2.70315 (Simulation time: 0 hr 30 min 49 sec) 
Heartbeat CPU 0 instructions: 44000003 cycles: 16277293 heartbeat IPC: 2.70314 cumulative IPC: 2.70315 (Simulation time: 0 hr 32 min 13 sec) 
Heartbeat CPU 0 instructions: 46000001 cycles: 17017251 heartbeat IPC: 2.70285 cumulative IPC: 2.70314 (Simulation time: 0 hr 33 min 36 sec) 
Heartbeat CPU 0 instructions: 48000000 cycles: 17757052 heartbeat IPC: 2.70343 cumulative IPC: 2.70315 (Simulation time: 0 hr 35 min 4 sec) 
Heartbeat CPU 0 instructions: 50000003 cycles: 18497033 heartbeat IPC: 2.70278 cumulative IPC: 2.70314 (Simulation time: 0 hr 36 min 29 sec) 

Warmup complete CPU 0 instructions: 50000003 cycles: 18497033 (Simulation time: 0 hr 36 min 29 sec) 

Heartbeat CPU 0 instructions: 52000002 cycles: 19952366 heartbeat IPC: 1.37426 cumulative IPC: 1.37426 (Simulation time: 0 hr 38 min 18 sec) 

Region of Interest Statistics
cpu0_DTLB TOTAL     ACCESS:     471342  HIT:     398121  MISS:      73221
cpu0_DTLB LOAD      ACCESS:     406759  HIT:     342094  MISS:      64665
cpu0_DTLB RFO       ACCESS:      64583  HIT:      56027  MISS:       8556
cpu0_DTLB PREFETCH  ACCESS:          0  HIT:          0  MISS:          0
cpu0_DTLB WRITEBACK ACCESS:          0  HIT:          0  MISS:          0
cpu0_ITLB TOTAL     ACCESS:      49882  HIT:      49834  MISS:         48
cpu0_ITLB LOAD      ACCESS:      49882  HIT:      49834  MISS:         48
cpu0_ITLB RFO       ACCESS:          0  HIT:          0  MISS:          0
cpu0_ITLB PREFETCH  ACCESS:          0  HIT:          0  MISS:          0
cpu0_ITLB WRITEBACK ACCESS:          0  HIT:          0  MISS:          0
cpu0_L1I TOTAL     ACCESS:     195554  HIT:     178379  MISS:      17175
cpu0_L1I LOAD      ACCESS:     195554  HIT:     178379  MISS:      17175
cpu0_L1I RFO       ACCESS:          0  HIT:          0  MISS:          0
cpu0_L1I PREFETCH  ACCESS:          0  HIT:          0  MISS:          0
cpu0_L1I WRITEBACK ACCESS:          0  HIT:          0  MISS:          0
cpu0_STLB TOTAL     ACCESS:      73269  HIT:      72825  MISS:        444
cpu0_STLB LOAD      ACCESS:      64713  HIT:      64297  MISS:        416
cpu0_STLB RFO       ACCESS:       8556  HIT:       8528  MISS:         28
cpu0_STLB PREFETCH  ACCESS:          0  HIT:          0  MISS:          0
cpu0_STLB WRITEBACK ACCESS:          0  HIT:          0  MISS:          0
cpu0_L1D TOTAL     ACCESS:     722593  HIT:     584433  MISS:     138160
cpu0_L1D LOAD      ACCESS:     562192  HIT:     435721  MISS:     126471
cpu0_L1D RFO       ACCESS:     160094  HIT:     148528  MISS:      11566
cpu0_L1D PREFETCH  ACCESS:          0  HIT:          0  MISS:          0
cpu0_L1D WRITEBACK ACCESS:          0  HIT:          0  MISS:          0
cpu0_L2C TOTAL     ACCESS:     167672  HIT:     157179  MISS:      10493
cpu0_L2C LOAD      ACCESS:     143632  HIT:     134318  MISS:       9314
cpu0_L2C RFO       ACCESS:      11561  HIT:      10453  MISS:       1108
cpu0_L2C PREFETCH  ACCESS:          0  HIT:          0  MISS:          0
cpu0_L2C WRITEBACK ACCESS:      12356  HIT:      12354  MISS:          2
LLC TOTAL     ACCESS:      11727  HIT:       5227  MISS:       6500
LLC LOAD      ACCESS:       9314  HIT:       3956  MISS:       5358
LLC RFO       ACCESS:       1108  HIT:          0  MISS:       1108
LLC PREFETCH  ACCESS:          0  HIT:          0  MISS:          0
LLC WRITEBACK ACCESS:       1236  HIT:       1236  MISS:          0
Heartbeat CPU 0 instructions: 54000004 cycles: 21978613 heartbeat IPC: 0.987047 cumulative IPC: 1.1489 (Simulation time: 0 hr 40 min 19 sec) 

Region of Interest Statistics
cpu0_DTLB TOTAL     ACCESS:     835680  HIT:     611738  MISS:     223942
cpu0_DTLB LOAD      ACCESS:     663155  HIT:     450393  MISS:     212762
cpu0_DTLB RFO       ACCESS:     172525  HIT:     161345  MISS:      11180
cpu0_DTLB PREFETCH  ACCESS:          0  HIT:          0  MISS:          0
cpu0_DTLB WRITEBACK ACCESS:          0  HIT:          0  MISS:          0
cpu0_ITLB TOTAL     ACCESS:      87739  HIT:      87689  MISS:         50
cpu0_ITLB LOAD      ACCESS:      87739  HIT:      87689  MISS:         50
cpu0_ITLB RFO       ACCESS:          0  HIT:          0  MISS:          0
cpu0_ITLB PREFETCH  ACCESS:          0  HIT:          0  MISS:          0
cpu0_ITLB WRITEBACK ACCESS:          0  HIT:          0  MISS:          0
cpu0_L1I TOTAL     ACCESS:     397199  HIT:     379955  MISS:      17244
cpu0_L1I LOAD      ACCESS:     397199  HIT:     379955  MISS:      17244
cpu0_L1I RFO       ACCESS:          0  HIT:          0  MISS:          0
cpu0_L1I PREFETCH  ACCESS:          0  HIT:          0  MISS:          0
cpu0_L1I WRITEBACK ACCESS:          0  HIT:          0  MISS:          0
cpu0_STLB TOTAL     ACCESS:     223992  HIT:     223321  MISS:        671
cpu0_STLB LOAD      ACCESS:     212812  HIT:     212169  MISS:        643
cpu0_STLB RFO       ACCESS:      11180  HIT:      11152  MISS:         28
cpu0_STLB PREFETCH  ACCESS:          0  HIT:          0  MISS:          0
cpu0_STLB WRITEBACK ACCESS:          0  HIT:          0  MISS:          0
cpu0_L1D TOTAL     ACCESS:    1283308  HIT:     914738  MISS:     368570
cpu0_L1D LOAD      ACCESS:     898930  HIT:     550817  MISS:     348113
cpu0_L1D RFO       ACCESS:     383844  HIT:     363707  MISS:      20137
cpu0_L1D PREFETCH  ACCESS:          0  HIT:          0  MISS:          0
cpu0_L1D WRITEBACK ACCESS:          0  HIT:          0  MISS:          0
cpu0_L2C TOTAL     ACCESS:     412759  HIT:     379355  MISS:      33404
cpu0_L2C LOAD      ACCESS:     365297  HIT:     333131  MISS:      32166
cpu0_L2C RFO       ACCESS:      20117  HIT:      19009  MISS:       1108
cpu0_L2C PREFETCH  ACCESS:          0  HIT:          0  MISS:          0
cpu0_L2C WRITEBACK ACCESS:      27025  HIT:      27023  MISS:          2
LLC TOTAL     ACCESS:      36684  HIT:      11863  MISS:      24821
LLC LOAD      ACCESS:      32166  HIT:       8490  MISS:      23676
LLC RFO       ACCESS:       1108  HIT:          0  MISS:       1108
LLC PREFETCH  ACCESS:          0  HIT:          0  MISS:          0
LLC WRITEBACK ACCESS:       3282  HIT:       3279  MISS:          3
Heartbeat CPU 0 instructions: 56000003 cycles: 23944077 heartbeat IPC: 1.01757 cumulative IPC: 1.10151 (Simulation time: 0 hr 42 min 21 sec) 

Region of Interest Statistics
cpu0_DTLB TOTAL     ACCESS:    1198859  HIT:     824093  MISS:     374766
cpu0_DTLB LOAD      ACCESS:     918565  HIT:     557698  MISS:     360867
cpu0_DTLB RFO       ACCESS:     280294  HIT:     266395  MISS:      13899
cpu0_DTLB PREFETCH  ACCESS:          0  HIT:          0  MISS:          0
cpu0_DTLB WRITEBACK ACCESS:          0  HIT:          0  MISS:          0
cpu0_ITLB TOTAL     ACCESS:     125604  HIT:     125554  MISS:         50
cpu0_ITLB LOAD      ACCESS:     125604  HIT:     125554  MISS:         50
cpu0_ITLB RFO       ACCESS:          0  HIT:          0  MISS:          0
cpu0_ITLB PREFETCH  ACCESS:          0  HIT:          0  MISS:          0
cpu0_ITLB WRITEBACK ACCESS:          0  HIT:          0  MISS:          0
cpu0_L1I TOTAL     ACCESS:     598717  HIT:     581473  MISS:      17244
cpu0_L1I LOAD      ACCESS:     598717  HIT:     581473  MISS:      17244
cpu0_L1I RFO       ACCESS:          0  HIT:          0  MISS:          0
cpu0_L1I PREFETCH  ACCESS:          0  HIT:          0  MISS:          0
cpu0_L1I WRITEBACK ACCESS:          0  HIT:          0  MISS:          0
cpu0_STLB TOTAL     ACCESS:     374816  HIT:     373895  MISS:        921
cpu0_STLB LOAD      ACCESS:     360917  HIT:     360024  MISS:        893
cpu0_STLB RFO       ACCESS:      13899  HIT:      13871  MISS:         28
cpu0_STLB PREFETCH  ACCESS:          0  HIT:          0  MISS:          0
cpu0_STLB WRITEBACK ACCESS:          0  HIT:          0  MISS:          0
cpu0_L1D TOTAL     ACCESS:    1843634  HIT:    1244312  MISS:     599322
cpu0_L1D LOAD      ACCESS:    1235245  HIT:     665419  MISS:     569826
cpu0_L1D RFO       ACCESS:     607605  HIT:     578654  MISS:      28951
cpu0_L1D PREFETCH  ACCESS:          0  HIT:          0  MISS:          0
cpu0_L1D WRITEBACK ACCESS:          0  HIT:          0  MISS:          0
cpu0_L2C TOTAL     ACCESS:     658021  HIT:     603104  MISS:      54917
cpu0_L2C LOAD      ACCESS:     586963  HIT:     533353  MISS:      53610
cpu0_L2C RFO       ACCESS:      28910  HIT:      27790  MISS:       1120
cpu0_L2C PREFETCH  ACCESS:          0  HIT:          0  MISS:          0
cpu0_L2C WRITEBACK ACCESS:      41603  HIT:      41601  MISS:          2
LLC TOTAL     ACCESS:      60167  HIT:      20041  MISS:      40126
LLC LOAD      ACCESS:      53601  HIT:      14621  MISS:      38980
LLC RFO       ACCESS:       1120  HIT:         12  MISS:       1108
LLC PREFETCH  ACCESS:          0  HIT:          0  MISS:          0
LLC WRITEBACK ACCESS:       5261  HIT:       5257  MISS:          4
Heartbeat CPU 0 instructions: 58000001 cycles: 25898764 heartbeat IPC: 1.02318 cumulative IPC: 1.08083 (Simulation time: 0 hr 44 min 19 sec) 

Region of Interest Statistics
cpu0_DTLB TOTAL     ACCESS:    1561008  HIT:    1035396  MISS:     525612
cpu0_DTLB LOAD      ACCESS:    1173593  HIT:     664724  MISS:     508869
cpu0_DTLB RFO       ACCESS:     387415  HIT:     370672  MISS:      16743
cpu0_DTLB PREFETCH  ACCESS:          0  HIT:          0  MISS:          0
cpu0_DTLB WRITEBACK ACCESS:          0  HIT:          0  MISS:          0
cpu0_ITLB TOTAL     ACCESS:     163585  HIT:     163535  MISS:         50
cpu0_ITLB LOAD      ACCESS:     163585  HIT:     163535  MISS:         50
cpu0_ITLB RFO       ACCESS:          0  HIT:          0  MISS:          0
cpu0_ITLB PREFETCH  ACCESS:          0  HIT:          0  MISS:          0
cpu0_ITLB WRITEBACK ACCESS:          0  HIT:          0  MISS:          0
cpu0_L1I TOTAL     ACCESS:     799722  HIT:     782478  MISS:      17244
cpu0_L1I LOAD      ACCESS:     799722  HIT:     782478  MISS:      17244
cpu0_L1I RFO       ACCESS:          0  HIT:          0  MISS:          0
cpu0_L1I PREFETCH  ACCESS:          0  HIT:          0  MISS:          0
cpu0_L1I WRITEBACK ACCESS:          0  HIT:          0  MISS:          0
cpu0_STLB TOTAL     ACCESS:     525662  HIT:     524516  MISS:       1146
cpu0_STLB LOAD      ACCESS:     508919  HIT:     507801  MISS:       1118
cpu0_STLB RFO       ACCESS:      16743  HIT:      16715  MISS:         28
cpu0_STLB PREFETCH  ACCESS:          0  HIT:          0  MISS:          0
cpu0_STLB WRITEBACK ACCESS:          0  HIT:          0  MISS:          0
cpu0_L1D TOTAL     ACCESS:    2403133  HIT:    1573877  MISS:     829256
cpu0_L1D LOAD      ACCESS:    1571253  HIT:     779775  MISS:     791478
cpu0_L1D RFO       ACCESS:     830871  HIT:     793843  MISS:      37028
cpu0_L1D PREFETCH  ACCESS:          0  HIT:          0  MISS:          0
cpu0_L1D WRITEBACK ACCESS:          0  HIT:          0  MISS:          0
cpu0_L2C TOTAL     ACCESS:     901990  HIT:     824310  MISS:      77680
cpu0_L2C LOAD      ACCESS:     808583  HIT:     732307  MISS:      76276
cpu0_L2C RFO       ACCESS:      36971  HIT:      35811  MISS:       1160
cpu0_L2C PREFETCH  ACCESS:          0  HIT:          0  MISS:          0
cpu0_L2C WRITEBACK ACCESS:      55686  HIT:      55680  MISS:          6
LLC TOTAL     ACCESS:      85008  HIT:      29618  MISS:      55390
LLC LOAD      ACCESS:      76261  HIT:      22019  MISS:      54242
LLC RFO       ACCESS:       1158  HIT:         50  MISS:       1108
LLC PREFETCH  ACCESS:          0  HIT:          0  MISS:          0
LLC WRITEBACK ACCESS:       7351  HIT:       7345  MISS:          6
Heartbeat CPU 0 instructions: 60000003 cycles: 27859725 heartbeat IPC: 1.01991 cumulative IPC: 1.06807 (Simulation time: 0 hr 46 min 21 sec) 

Region of Interest Statistics
cpu0_DTLB TOTAL     ACCESS:    1924416  HIT:    1247846  MISS:     676570
cpu0_DTLB LOAD      ACCESS:    1428577  HIT:     771906  MISS:     656671
cpu0_DTLB RFO       ACCESS:     495839  HIT:     475940  MISS:      19899
cpu0_DTLB PREFETCH  ACCESS:          0  HIT:          0  MISS:          0
cpu0_DTLB WRITEBACK ACCESS:          0  HIT:          0  MISS:          0
cpu0_ITLB TOTAL     ACCESS:     201530  HIT:     201480  MISS:         50
cpu0_ITLB LOAD      ACCESS:     201530  HIT:     201480  MISS:         50
cpu0_ITLB RFO       ACCESS:          0  HIT:          0  MISS:          0
cpu0_ITLB PREFETCH  ACCESS:          0  HIT:          0  MISS:          0
cpu0_ITLB WRITEBACK ACCESS:          0  HIT:          0  MISS:          0
cpu0_L1I TOTAL     ACCESS:    1001172  HIT:     983928  MISS:      17244
cpu0_L1I LOAD      ACCESS:    1001172  HIT:     983928  MISS:      17244
cpu0_L1I RFO       ACCESS:          0  HIT:          0  MISS:          0
cpu0_L1I PREFETCH  ACCESS:          0  HIT:          0  MISS:          0
cpu0_L1I WRITEBACK ACCESS:          0  HIT:          0  MISS:          0
cpu0_STLB TOTAL     ACCESS:     676620  HIT:     675224  MISS:       1396
cpu0_STLB LOAD      ACCESS:     656721  HIT:     655353  MISS:       1368
cpu0_STLB RFO       ACCESS:      19899  HIT:      19871  MISS:         28
cpu0_STLB PREFETCH  ACCESS:          0  HIT:          0  MISS:          0
cpu0_STLB WRITEBACK ACCESS:          0  HIT:          0  MISS:          0
cpu0_L1D TOTAL     ACCESS:    2963009  HIT:    1903242  MISS:    1059767
cpu0_L1D LOAD      ACCESS:    1907382  HIT:     894353  MISS:    1013029
cpu0_L1D RFO       ACCESS:    1054368  HIT:    1008612  MISS:      45756
cpu0_L1D PREFETCH  ACCESS:          0  HIT:          0  MISS:          0
cpu0_L1D WRITEBACK ACCESS:          0  HIT:          0  MISS:          0
cpu0_L2C TOTAL     ACCESS:    1146716  HIT:    1047966  MISS:      98750
cpu0_L2C LOAD      ACCESS:    1030099  HIT:     932830  MISS:      97269
cpu0_L2C RFO       ACCESS:      45680  HIT:      44511  MISS:       1169
cpu0_L2C PREFETCH  ACCESS:          0  HIT:          0  MISS:          0
cpu0_L2C WRITEBACK ACCESS:      69955  HIT:      69948  MISS:          7
LLC TOTAL     ACCESS:     107937  HIT:      37288  MISS:      70649
LLC LOAD      ACCESS:      97250  HIT:      27749  MISS:      69501
LLC RFO       ACCESS:       1167  HIT:         59  MISS:       1108
LLC PREFETCH  ACCESS:          0  HIT:          0  MISS:          0
LLC WRITEBACK ACCESS:       9215  HIT:       9209  MISS:          6
Heartbeat CPU 0 instructions: 62000002 cycles: 29818690 heartbeat IPC: 1.02095 cumulative IPC: 1.05992 (Simulation time: 0 hr 48 min 23 sec) 

Region of Interest Statistics
cpu0_DTLB TOTAL     ACCESS:    2287181  HIT:    1459850  MISS:     827331
cpu0_DTLB LOAD      ACCESS:    1684058  HIT:     879729  MISS:     804329
cpu0_DTLB RFO       ACCESS:     603123  HIT:     580121  MISS:      23002
cpu0_DTLB PREFETCH  ACCESS:          0  HIT:          0  MISS:          0
cpu0_DTLB WRITEBACK ACCESS:          0  HIT:          0  MISS:          0
cpu0_ITLB TOTAL     ACCESS:     239446  HIT:     239396  MISS:         50
cpu0_ITLB LOAD      ACCESS:     239446  HIT:     239396  MISS:         50
cpu0_ITLB RFO       ACCESS:          0  HIT:          0  MISS:          0
cpu0_ITLB PREFETCH  ACCESS:          0  HIT:          0  MISS:          0
cpu0_ITLB WRITEBACK ACCESS:          0  HIT:          0  MISS:          0
cpu0_L1I TOTAL     ACCESS:    1202748  HIT:    1185504  MISS:      17244
cpu0_L1I LOAD      ACCESS:    1202748  HIT:    1185504  MISS:      17244
cpu0_L1I RFO       ACCESS:          0  HIT:          0  MISS:          0
cpu0_L1I PREFETCH  ACCESS:          0  HIT:          0  MISS:          0
cpu0_L1I WRITEBACK ACCESS:          0  HIT:          0  MISS:          0
cpu0_STLB TOTAL     ACCESS:     827381  HIT:     825760  MISS:       1621
cpu0_STLB LOAD      ACCESS:     804379  HIT:     802786  MISS:       1593
cpu0_STLB RFO       ACCESS:      23002  HIT:      22974  MISS:         28
cpu0_STLB PREFETCH  ACCESS:          0  HIT:          0  MISS:          0
cpu0_STLB WRITEBACK ACCESS:          0  HIT:          0  MISS:          0
cpu0_L1D TOTAL     ACCESS:    3522822  HIT:    2233114  MISS:    1289708
cpu0_L1D LOAD      ACCESS:    2243463  HIT:    1009041  MISS:    1234422
cpu0_L1D RFO       ACCESS:    1277875  HIT:    1223778  MISS:      54097
cpu0_L1D PREFETCH  ACCESS:          0  HIT:          0  MISS:          0
cpu0_L1D WRITEBACK ACCESS:          0  HIT:          0  MISS:          0
cpu0_L2C TOTAL     ACCESS:    1390634  HIT:    1268616  MISS:     122018
cpu0_L2C LOAD      ACCESS:    1251447  HIT:    1130995  MISS:     120452
cpu0_L2C RFO       ACCESS:      53991  HIT:      52766  MISS:       1225
cpu0_L2C PREFETCH  ACCESS:          0  HIT:          0  MISS:          0
cpu0_L2C WRITEBACK ACCESS:      84007  HIT:      84000  MISS:          7
LLC TOTAL     ACCESS:     133234  HIT:      47384  MISS:      85850
LLC LOAD      ACCESS:     120427  HIT:      35725  MISS:      84702
LLC RFO       ACCESS:       1215  HIT:        107  MISS:       1108
LLC PREFETCH  ACCESS:          0  HIT:          0  MISS:          0
LLC WRITEBACK ACCESS:      11258  HIT:      11252  MISS:          6
Heartbeat CPU 0 instructions: 64000003 cycles: 31778728 heartbeat IPC: 1.02039 cumulative IPC: 1.05408 (Simulation time: 0 hr 50 min 29 sec) 

Region of Interest Statistics
cpu0_DTLB TOTAL     ACCESS:    2648216  HIT:    1670104  MISS:     978112
cpu0_DTLB LOAD      ACCESS:    1939473  HIT:     987637  MISS:     951836
cpu0_DTLB RFO       ACCESS:     708743  HIT:     682467  MISS:      26276
cpu0_DTLB PREFETCH  ACCESS:          0  HIT:          0  MISS:          0
cpu0_DTLB WRITEBACK ACCESS:          0  HIT:          0  MISS:          0
cpu0_ITLB TOTAL     ACCESS:     277440  HIT:     277390  MISS:         50
cpu0_ITLB LOAD      ACCESS:     277440  HIT:     277390  MISS:         50
cpu0_ITLB RFO       ACCESS:          0  HIT:          0  MISS:          0
cpu0_ITLB PREFETCH  ACCESS:          0  HIT:          0  MISS:          0
cpu0_ITLB WRITEBACK ACCESS:          0  HIT:          0  MISS:          0
cpu0_L1I TOTAL     ACCESS:    1404105  HIT:    1386861  MISS:      17244
cpu0_L1I LOAD      ACCESS:    1404105  HIT:    1386861  MISS:      17244
cpu0_L1I RFO       ACCESS:          0  HIT:          0  MISS:          0
cpu0_L1I PREFETCH  ACCESS:          0  HIT:          0  MISS:          0
cpu0_L1I WRITEBACK ACCESS:          0  HIT:          0  MISS:          0
cpu0_STLB TOTAL     ACCESS:     978162  HIT:     976291  MISS:       1871
cpu0_STLB LOAD      ACCESS:     951886  HIT:     950043  MISS:       1843
cpu0_STLB RFO       ACCESS:      26276  HIT:      26248  MISS:         28
cpu0_STLB PREFETCH  ACCESS:          0  HIT:          0  MISS:          0
cpu0_STLB WRITEBACK ACCESS:          0  HIT:          0  MISS:          0
cpu0_L1D TOTAL     ACCESS:    4083199  HIT:    2562973  MISS:    1520226
cpu0_L1D LOAD      ACCESS:    2580077  HIT:    1124132  MISS:    1455945
cpu0_L1D RFO       ACCESS:    1501388  HIT:    1438519  MISS:      62869
cpu0_L1D PREFETCH  ACCESS:          0  HIT:          0  MISS:          0
cpu0_L1D WRITEBACK ACCESS:          0  HIT:          0  MISS:          0
cpu0_L2C TOTAL     ACCESS:    1635319  HIT:    1488223  MISS:     147096
cpu0_L2C LOAD      ACCESS:    1472939  HIT:    1327582  MISS:     145357
cpu0_L2C RFO       ACCESS:      62743  HIT:      61394  MISS:       1349
cpu0_L2C PREFETCH  ACCESS:          0  HIT:          0  MISS:          0
cpu0_L2C WRITEBACK ACCESS:      98225  HIT:      98217  MISS:          8
LLC TOTAL     ACCESS:     160354  HIT:      59104  MISS:     101250
LLC LOAD      ACCESS:     145332  HIT:      45230  MISS:     100102
LLC RFO       ACCESS:       1317  HIT:        209  MISS:       1108
LLC PREFETCH  ACCESS:          0  HIT:          0  MISS:          0
LLC WRITEBACK ACCESS:      13323  HIT:      13317  MISS:          6
Heartbeat CPU 0 instructions: 66000003 cycles: 33738293 heartbeat IPC: 1.02063 cumulative IPC: 1.04978 (Simulation time: 0 hr 52 min 29 sec) 

Region of Interest Statistics
cpu0_DTLB TOTAL     ACCESS:    3010427  HIT:    1881541  MISS:    1128886
cpu0_DTLB LOAD      ACCESS:    2194036  HIT:    1094783  MISS:    1099253
cpu0_DTLB RFO       ACCESS:     816391  HIT:     786758  MISS:      29633
cpu0_DTLB PREFETCH  ACCESS:          0  HIT:          0  MISS:          0
cpu0_DTLB WRITEBACK ACCESS:          0  HIT:          0  MISS:          0
cpu0_ITLB TOTAL     ACCESS:     315372  HIT:     315322  MISS:         50
cpu0_ITLB LOAD      ACCESS:     315372  HIT:     315322  MISS:         50
cpu0_ITLB RFO       ACCESS:          0  HIT:          0  MISS:          0
cpu0_ITLB PREFETCH  ACCESS:          0  HIT:          0  MISS:          0
cpu0_ITLB WRITEBACK ACCESS:          0  HIT:          0  MISS:          0
cpu0_L1I TOTAL     ACCESS:    1605441  HIT:    1588197  MISS:      17244
cpu0_L1I LOAD      ACCESS:    1605441  HIT:    1588197  MISS:      17244
cpu0_L1I RFO       ACCESS:          0  HIT:          0  MISS:          0
cpu0_L1I PREFETCH  ACCESS:          0  HIT:          0  MISS:          0
cpu0_L1I WRITEBACK ACCESS:          0  HIT:          0  MISS:          0
cpu0_STLB TOTAL     ACCESS:    1128936  HIT:    1126815  MISS:       2121
cpu0_STLB LOAD      ACCESS:    1099303  HIT:    1097210  MISS:       2093
cpu0_STLB RFO       ACCESS:      29633  HIT:      29605  MISS:         28
cpu0_STLB PREFETCH  ACCESS:          0  HIT:          0  MISS:          0
cpu0_STLB WRITEBACK ACCESS:          0  HIT:          0  MISS:          0
cpu0_L1D TOTAL     ACCESS:    4642603  HIT:    2892131  MISS:    1750472
cpu0_L1D LOAD      ACCESS:    2915926  HIT:    1238431  MISS:    1677495
cpu0_L1D RFO       ACCESS:    1724693  HIT:    1653353  MISS:      71340
cpu0_L1D PREFETCH  ACCESS:          0  HIT:          0  MISS:          0
cpu0_L1D WRITEBACK ACCESS:          0  HIT:          0  MISS:          0
cpu0_L2C TOTAL     ACCESS:    1879561  HIT:    1710486  MISS:     169075
cpu0_L2C LOAD      ACCESS:    1694451  HIT:    1527199  MISS:     167252
cpu0_L2C RFO       ACCESS:      71191  HIT:      69830  MISS:       1361
cpu0_L2C PREFETCH  ACCESS:          0  HIT:          0  MISS:          0
cpu0_L2C WRITEBACK ACCESS:     112282  HIT:     112271  MISS:         11
LLC TOTAL     ACCESS:     184255  HIT:      67804  MISS:     116451
LLC LOAD      ACCESS:     167227  HIT:      51925  MISS:     115302
LLC RFO       ACCESS:       1328  HIT:        220  MISS:       1108
LLC PREFETCH  ACCESS:          0  HIT:          0  MISS:          0
LLC WRITEBACK ACCESS:      15249  HIT:      15243  MISS:          6
Heartbeat CPU 0 instructions: 68000004 cycles: 35699128 heartbeat IPC: 1.01997 cumulative IPC: 1.04638 (Simulation time: 0 hr 54 min 38 sec) 

Region of Interest Statistics
cpu0_DTLB TOTAL     ACCESS:    3371973  HIT:    2092374  MISS:    1279599
cpu0_DTLB LOAD      ACCESS:    2449439  HIT:    1202638  MISS:    1246801
cpu0_DTLB RFO       ACCESS:     922534  HIT:     889736  MISS:      32798
cpu0_DTLB PREFETCH  ACCESS:          0  HIT:          0  MISS:          0
cpu0_DTLB WRITEBACK ACCESS:          0  HIT:          0  MISS:          0
cpu0_ITLB TOTAL     ACCESS:     353267  HIT:     353217  MISS:         50
cpu0_ITLB LOAD      ACCESS:     353267  HIT:     353217  MISS:         50
cpu0_ITLB RFO       ACCESS:          0  HIT:          0  MISS:          0
cpu0_ITLB PREFETCH  ACCESS:          0  HIT:          0  MISS:          0
cpu0_ITLB WRITEBACK ACCESS:          0  HIT:          0  MISS:          0
cpu0_L1I TOTAL     ACCESS:    1806745  HIT:    1789501  MISS:      17244
cpu0_L1I LOAD      ACCESS:    1806745  HIT:    1789501  MISS:      17244
cpu0_L1I RFO       ACCESS:          0  HIT:          0  MISS:          0
cpu0_L1I PREFETCH  ACCESS:          0  HIT:          0  MISS:          0
cpu0_L1I WRITEBACK ACCESS:          0  HIT:          0  MISS:          0
cpu0_STLB TOTAL     ACCESS:    1279649  HIT:    1277303  MISS:       2346
cpu0_STLB LOAD      ACCESS:    1246851  HIT:    1244533  MISS:       2318
cpu0_STLB RFO       ACCESS:      32798  HIT:      32770  MISS:         28
cpu0_STLB PREFETCH  ACCESS:          0  HIT:          0  MISS:          0
cpu0_STLB WRITEBACK ACCESS:          0  HIT:          0  MISS:          0
cpu0_L1D TOTAL     ACCESS:    5202776  HIT:    3221874  MISS:    1980902
cpu0_L1D LOAD      ACCESS:    3251992  HIT:    1353083  MISS:    1898909
cpu0_L1D RFO       ACCESS:    1948575  HIT:    1868424  MISS:      80151
cpu0_L1D PREFETCH  ACCESS:          0  HIT:          0  MISS:          0
cpu0_L1D WRITEBACK ACCESS:          0  HIT:          0  MISS:          0
cpu0_L2C TOTAL     ACCESS:    2124225  HIT:    1929079  MISS:     195146
cpu0_L2C LOAD      ACCESS:    1915836  HIT:    1722653  MISS:     193183
cpu0_L2C RFO       ACCESS:      79974  HIT:      78552  MISS:       1422
cpu0_L2C PREFETCH  ACCESS:          0  HIT:          0  MISS:          0
cpu0_L2C WRITEBACK ACCESS:     126573  HIT:     126552  MISS:         21
LLC TOTAL     ACCESS:     212871  HIT:      81031  MISS:     131840
LLC LOAD      ACCESS:     193152  HIT:      62475  MISS:     130677
LLC RFO       ACCESS:       1378  HIT:        270  MISS:       1108
LLC PREFETCH  ACCESS:          0  HIT:          0  MISS:          0
LLC WRITEBACK ACCESS:      17821  HIT:      17801  MISS:         20
Heartbeat CPU 0 instructions: 70000001 cycles: 37646511 heartbeat IPC: 1.02702 cumulative IPC: 1.04441 (Simulation time: 0 hr 56 min 45 sec) 

Region of Interest Statistics
cpu0_DTLB TOTAL     ACCESS:    3732899  HIT:    2302331  MISS:    1430568
cpu0_DTLB LOAD      ACCESS:    2704891  HIT:    1310585  MISS:    1394306
cpu0_DTLB RFO       ACCESS:    1028008  HIT:     991746  MISS:      36262
cpu0_DTLB PREFETCH  ACCESS:          0  HIT:          0  MISS:          0
cpu0_DTLB WRITEBACK ACCESS:          0  HIT:          0  MISS:          0
cpu0_ITLB TOTAL     ACCESS:     391073  HIT:     391023  MISS:         50
cpu0_ITLB LOAD      ACCESS:     391073  HIT:     391023  MISS:         50
cpu0_ITLB RFO       ACCESS:          0  HIT:          0  MISS:          0
cpu0_ITLB PREFETCH  ACCESS:          0  HIT:          0  MISS:          0
cpu0_ITLB WRITEBACK ACCESS:          0  HIT:          0  MISS:          0
cpu0_L1I TOTAL     ACCESS:    2008044  HIT:    1990800  MISS:      17244
cpu0_L1I LOAD      ACCESS:    2008044  HIT:    1990800  MISS:      17244
cpu0_L1I RFO       ACCESS:          0  HIT:          0  MISS:          0
cpu0_L1I PREFETCH  ACCESS:          0  HIT:          0  MISS:          0
cpu0_L1I WRITEBACK ACCESS:          0  HIT:          0  MISS:          0
cpu0_STLB TOTAL     ACCESS:    1430618  HIT:    1428022  MISS:       2596
cpu0_STLB LOAD      ACCESS:    1394356  HIT:    1391788  MISS:       2568
cpu0_STLB RFO       ACCESS:      36262  HIT:      36234  MISS:         28
cpu0_STLB PREFETCH  ACCESS:          0  HIT:          0  MISS:          0
cpu0_STLB WRITEBACK ACCESS:          0  HIT:          0  MISS:          0
cpu0_L1D TOTAL     ACCESS:    5762604  HIT:    3550854  MISS:    2211750
cpu0_L1D LOAD      ACCESS:    3587479  HIT:    1467683  MISS:    2119796
cpu0_L1D RFO       ACCESS:    2172666  HIT:    2082786  MISS:      89880
cpu0_L1D PREFETCH  ACCESS:          0  HIT:          0  MISS:          0
cpu0_L1D WRITEBACK ACCESS:          0  HIT:          0  MISS:          0
cpu0_L2C TOTAL     ACCESS:    2369233  HIT:    2143934  MISS:     225299
cpu0_L2C LOAD      ACCESS:    2136697  HIT:    1913596  MISS:     223101
cpu0_L2C RFO       ACCESS:      89679  HIT:      88112  MISS:       1567
cpu0_L2C PREFETCH  ACCESS:          0  HIT:          0  MISS:          0
cpu0_L2C WRITEBACK ACCESS:     140783  HIT:     140756  MISS:         27
LLC TOTAL     ACCESS:     245333  HIT:      98093  MISS:     147240
LLC LOAD      ACCESS:     223062  HIT:      76985  MISS:     146077
LLC RFO       ACCESS:       1520  HIT:        412  MISS:       1108
LLC PREFETCH  ACCESS:          0  HIT:          0  MISS:          0
LLC WRITEBACK ACCESS:      20147  HIT:      20127  MISS:         20
Heartbeat CPU 0 instructions: 72000004 cycles: 39599080 heartbeat IPC: 1.02429 cumulative IPC: 1.04255 (Simulation time: 0 hr 58 min 54 sec) 

Region of Interest Statistics
cpu0_DTLB TOTAL     ACCESS:    4092407  HIT:    2510988  MISS:    1581419
cpu0_DTLB LOAD      ACCESS:    2960992  HIT:    1418841  MISS:    1542151
cpu0_DTLB RFO       ACCESS:    1131415  HIT:    1092147  MISS:      39268
cpu0_DTLB PREFETCH  ACCESS:          0  HIT:          0  MISS:          0
cpu0_DTLB WRITEBACK ACCESS:          0  HIT:          0  MISS:          0
cpu0_ITLB TOTAL     ACCESS:     428914  HIT:     428864  MISS:         50
cpu0_ITLB LOAD      ACCESS:     428914  HIT:     428864  MISS:         50
cpu0_ITLB RFO       ACCESS:          0  HIT:          0  MISS:          0
cpu0_ITLB PREFETCH  ACCESS:          0  HIT:          0  MISS:          0
cpu0_ITLB WRITEBACK ACCESS:          0  HIT:          0  MISS:          0
cpu0_L1I TOTAL     ACCESS:    2209789  HIT:    2192545  MISS:      17244
cpu0_L1I LOAD      ACCESS:    2209789  HIT:    2192545  MISS:      17244
cpu0_L1I RFO       ACCESS:          0  HIT:          0  MISS:          0
cpu0_L1I PREFETCH  ACCESS:          0  HIT:          0  MISS:          0
cpu0_L1I WRITEBACK ACCESS:          0  HIT:          0  MISS:          0
cpu0_STLB TOTAL     ACCESS:    1581469  HIT:    1578648  MISS:       2821
cpu0_STLB LOAD      ACCESS:    1542201  HIT:    1539408  MISS:       2793
cpu0_STLB RFO       ACCESS:      39268  HIT:      39240  MISS:         28
cpu0_STLB PREFETCH  ACCESS:          0  HIT:          0  MISS:          0
cpu0_STLB WRITEBACK ACCESS:          0  HIT:          0  MISS:          0
cpu0_L1D TOTAL     ACCESS:    6323073  HIT:    3881109  MISS:    2441964
cpu0_L1D LOAD      ACCESS:    3924198  HIT:    1582992  MISS:    2341206
cpu0_L1D RFO       ACCESS:    2396191  HIT:    2297713  MISS:      98478
cpu0_L1D PREFETCH  ACCESS:          0  HIT:          0  MISS:          0
cpu0_L1D WRITEBACK ACCESS:          0  HIT:          0  MISS:          0
cpu0_L2C TOTAL     ACCESS:    2613480  HIT:    2356577  MISS:     256903
cpu0_L2C LOAD      ACCESS:    2358087  HIT:    2104128  MISS:     253959
cpu0_L2C RFO       ACCESS:      98245  HIT:      96011  MISS:       2234
cpu0_L2C PREFETCH  ACCESS:          0  HIT:          0  MISS:          0
cpu0_L2C WRITEBACK ACCESS:     154868  HIT:     154840  MISS:         28
LLC TOTAL     ACCESS:     280191  HIT:     117751  MISS:     162440
LLC LOAD      ACCESS:     253824  HIT:      92547  MISS:     161277
LLC RFO       ACCESS:       2179  HIT:       1071  MISS:       1108
LLC PREFETCH  ACCESS:          0  HIT:          0  MISS:          0
LLC WRITEBACK ACCESS:      23506  HIT:      23486  MISS:         20
Heartbeat CPU 0 instructions: 74000000 cycles: 41571613 heartbeat IPC: 1.01392 cumulative IPC: 1.04011 (Simulation time: 1 hr 0 min 53 sec) 

Region of Interest Statistics
cpu0_DTLB TOTAL     ACCESS:    4454300  HIT:    2722080  MISS:    1732220
cpu0_DTLB LOAD      ACCESS:    3216360  HIT:    1526666  MISS:    1689694
cpu0_DTLB RFO       ACCESS:    1237940  HIT:    1195414  MISS:      42526
cpu0_DTLB PREFETCH  ACCESS:          0  HIT:          0  MISS:          0
cpu0_DTLB WRITEBACK ACCESS:          0  HIT:          0  MISS:          0
cpu0_ITLB TOTAL     ACCESS:     466635  HIT:     466585  MISS:         50
cpu0_ITLB LOAD      ACCESS:     466635  HIT:     466585  MISS:         50
cpu0_ITLB RFO       ACCESS:          0  HIT:          0  MISS:          0
cpu0_ITLB PREFETCH  ACCESS:          0  HIT:          0  MISS:          0
cpu0_ITLB WRITEBACK ACCESS:          0  HIT:          0  MISS:          0
cpu0_L1I TOTAL     ACCESS:    2411489  HIT:    2394245  MISS:      17244
cpu0_L1I LOAD      ACCESS:    2411489  HIT:    2394245  MISS:      17244
cpu0_L1I RFO       ACCESS:          0  HIT:          0  MISS:          0
cpu0_L1I PREFETCH  ACCESS:          0  HIT:          0  MISS:          0
cpu0_L1I WRITEBACK ACCESS:          0  HIT:          0  MISS:          0
cpu0_STLB TOTAL     ACCESS:    1732270  HIT:    1729199  MISS:       3071
cpu0_STLB LOAD      ACCESS:    1689744  HIT:    1686701  MISS:       3043
cpu0_STLB RFO       ACCESS:      42526  HIT:      42498  MISS:         28
cpu0_STLB PREFETCH  ACCESS:          0  HIT:          0  MISS:          0
cpu0_STLB WRITEBACK ACCESS:          0  HIT:          0  MISS:          0
cpu0_L1D TOTAL     ACCESS:    6883313  HIT:    4210989  MISS:    2672324
cpu0_L1D LOAD      ACCESS:    4260580  HIT:    1697890  MISS:    2562690
cpu0_L1D RFO       ACCESS:    2619799  HIT:    2512668  MISS:     107131
cpu0_L1D PREFETCH  ACCESS:          0  HIT:          0  MISS:          0
cpu0_L1D WRITEBACK ACCESS:          0  HIT:          0  MISS:          0
cpu0_L2C TOTAL     ACCESS:    2857943  HIT:    2577453  MISS:     280490
cpu0_L2C LOAD      ACCESS:    2579537  HIT:    2302090  MISS:     277447
cpu0_L2C RFO       ACCESS:     106883  HIT:     104603  MISS:       2280
cpu0_L2C PREFETCH  ACCESS:          0  HIT:          0  MISS:          0
cpu0_L2C WRITEBACK ACCESS:     169020  HIT:     168990  MISS:         30
LLC TOTAL     ACCESS:     305914  HIT:     128119  MISS:     177795
LLC LOAD      ACCESS:     277284  HIT:     100653  MISS:     176631
LLC RFO       ACCESS:       2224  HIT:       1116  MISS:       1108
LLC PREFETCH  ACCESS:          0  HIT:          0  MISS:          0
LLC WRITEBACK ACCESS:      25673  HIT:      25652  MISS:         21
Heartbeat CPU 0 instructions: 76000000 cycles: 43537410 heartbeat IPC: 1.0174 cumulative IPC: 1.03832 (Simulation time: 1 hr 2 min 58 sec) 

Region of Interest Statistics
cpu0_DTLB TOTAL     ACCESS:    4816861  HIT:    2933826  MISS:    1883035
cpu0_DTLB LOAD      ACCESS:    3471905  HIT:    1634373  MISS:    1837532
cpu0_DTLB RFO       ACCESS:    1344956  HIT:    1299453  MISS:      45503
cpu0_DTLB PREFETCH  ACCESS:          0  HIT:          0  MISS:          0
cpu0_DTLB WRITEBACK ACCESS:          0  HIT:          0  MISS:          0
cpu0_ITLB TOTAL     ACCESS:     504539  HIT:     504489  MISS:         50
cpu0_ITLB LOAD      ACCESS:     504539  HIT:     504489  MISS:         50
cpu0_ITLB RFO       ACCESS:          0  HIT:          0  MISS:          0
cpu0_ITLB PREFETCH  ACCESS:          0  HIT:          0  MISS:          0
cpu0_ITLB WRITEBACK ACCESS:          0  HIT:          0  MISS:          0
cpu0_L1I TOTAL     ACCESS:    2612788  HIT:    2595544  MISS:      17244
cpu0_L1I LOAD      ACCESS:    2612788  HIT:    2595544  MISS:      17244
cpu0_L1I RFO       ACCESS:          0  HIT:          0  MISS:          0
cpu0_L1I PREFETCH  ACCESS:          0  HIT:          0  MISS:          0
cpu0_L1I WRITEBACK ACCESS:          0  HIT:          0  MISS:          0
cpu0_STLB TOTAL     ACCESS:    1883085  HIT:    1879764  MISS:       3321
cpu0_STLB LOAD      ACCESS:    1837582  HIT:    1834289  MISS:       3293
cpu0_STLB RFO       ACCESS:      45503  HIT:      45475  MISS:         28
cpu0_STLB PREFETCH  ACCESS:          0  HIT:          0  MISS:          0
cpu0_STLB WRITEBACK ACCESS:          0  HIT:          0  MISS:          0
cpu0_L1D TOTAL     ACCESS:    7442519  HIT:    4540175  MISS:    2902344
cpu0_L1D LOAD      ACCESS:    4596199  HIT:    1811942  MISS:    2784257
cpu0_L1D RFO       ACCESS:    2843136  HIT:    2727777  MISS:     115359
cpu0_L1D PREFETCH  ACCESS:          0  HIT:          0  MISS:          0
cpu0_L1D WRITEBACK ACCESS:          0  HIT:          0  MISS:          0
cpu0_L2C TOTAL     ACCESS:    3101966  HIT:    2796467  MISS:     305499
cpu0_L2C LOAD      ACCESS:    2801068  HIT:    2498841  MISS:     302227
cpu0_L2C RFO       ACCESS:     115096  HIT:     112631  MISS:       2465
cpu0_L2C PREFETCH  ACCESS:          0  HIT:          0  MISS:          0
cpu0_L2C WRITEBACK ACCESS:     183074  HIT:     183044  MISS:         30
LLC TOTAL     ACCESS:     333253  HIT:     140212  MISS:     193041
LLC LOAD      ACCESS:     301944  HIT:     110067  MISS:     191877
LLC RFO       ACCESS:       2405  HIT:       1297  MISS:       1108
LLC PREFETCH  ACCESS:          0  HIT:          0  MISS:          0
LLC WRITEBACK ACCESS:      28127  HIT:      28106  MISS:         21
Heartbeat CPU 0 instructions: 78000003 cycles: 45473405 heartbeat IPC: 1.03306 cumulative IPC: 1.03795 (Simulation time: 1 hr 4 min 58 sec) 

Region of Interest Statistics
cpu0_DTLB TOTAL     ACCESS:    5177535  HIT:    3143766  MISS:    2033769
cpu0_DTLB LOAD      ACCESS:    3727795  HIT:    1742658  MISS:    1985137
cpu0_DTLB RFO       ACCESS:    1449740  HIT:    1401108  MISS:      48632
cpu0_DTLB PREFETCH  ACCESS:          0  HIT:          0  MISS:          0
cpu0_DTLB WRITEBACK ACCESS:          0  HIT:          0  MISS:          0
cpu0_ITLB TOTAL     ACCESS:     542468  HIT:     542418  MISS:         50
cpu0_ITLB LOAD      ACCESS:     542468  HIT:     542418  MISS:         50
cpu0_ITLB RFO       ACCESS:          0  HIT:          0  MISS:          0
cpu0_ITLB PREFETCH  ACCESS:          0  HIT:          0  MISS:          0
cpu0_ITLB WRITEBACK ACCESS:          0  HIT:          0  MISS:          0
cpu0_L1I TOTAL     ACCESS:    2814079  HIT:    2796835  MISS:      17244
cpu0_L1I LOAD      ACCESS:    2814079  HIT:    2796835  MISS:      17244
cpu0_L1I RFO       ACCESS:          0  HIT:          0  MISS:          0
cpu0_L1I PREFETCH  ACCESS:          0  HIT:          0  MISS:          0
cpu0_L1I WRITEBACK ACCESS:          0  HIT:          0  MISS:          0
cpu0_STLB TOTAL     ACCESS:    2033819  HIT:    2030273  MISS:       3546
cpu0_STLB LOAD      ACCESS:    1985187  HIT:    1981669  MISS:       3518
cpu0_STLB RFO       ACCESS:      48632  HIT:      48604  MISS:         28
cpu0_STLB PREFETCH  ACCESS:          0  HIT:          0  MISS:          0
cpu0_STLB WRITEBACK ACCESS:          0  HIT:          0  MISS:          0
cpu0_L1D TOTAL     ACCESS:    8002583  HIT:    4870264  MISS:    3132319
cpu0_L1D LOAD      ACCESS:    4932760  HIT:    1927246  MISS:    3005514
cpu0_L1D RFO       ACCESS:    3066414  HIT:    2942542  MISS:     123872
cpu0_L1D PREFETCH  ACCESS:          0  HIT:          0  MISS:          0
cpu0_L1D WRITEBACK ACCESS:          0  HIT:          0  MISS:          0
cpu0_L2C TOTAL     ACCESS:    3345673  HIT:    3012232  MISS:     333441
cpu0_L2C LOAD      ACCESS:    3022286  HIT:    2692526  MISS:     329760
cpu0_L2C RFO       ACCESS:     123600  HIT:     120784  MISS:       2816
cpu0_L2C PREFETCH  ACCESS:          0  HIT:          0  MISS:          0
cpu0_L2C WRITEBACK ACCESS:     196854  HIT:     196823  MISS:         31
LLC TOTAL     ACCESS:     364159  HIT:     155893  MISS:     208266
LLC LOAD      ACCESS:     329175  HIT:     122073  MISS:     207102
LLC RFO       ACCESS:       2736  HIT:       1628  MISS:       1108
LLC PREFETCH  ACCESS:          0  HIT:          0  MISS:          0
LLC WRITEBACK ACCESS:      31414  HIT:      31393  MISS:         21
Heartbeat CPU 0 instructions: 80000002 cycles: 47417537 heartbeat IPC: 1.02874 cumulative IPC: 1.03733 (Simulation time: 1 hr 6 min 58 sec) 

Region of Interest Statistics
cpu0_DTLB TOTAL     ACCESS:    5538866  HIT:    3354111  MISS:    2184755
cpu0_DTLB LOAD      ACCESS:    3983208  HIT:    1850296  MISS:    2132912
cpu0_DTLB RFO       ACCESS:    1555658  HIT:    1503815  MISS:      51843
cpu0_DTLB PREFETCH  ACCESS:          0  HIT:          0  MISS:          0
cpu0_DTLB WRITEBACK ACCESS:          0  HIT:          0  MISS:          0
cpu0_ITLB TOTAL     ACCESS:     580547  HIT:     580497  MISS:         50
cpu0_ITLB LOAD      ACCESS:     580547  HIT:     580497  MISS:         50
cpu0_ITLB RFO       ACCESS:          0  HIT:          0  MISS:          0
cpu0_ITLB PREFETCH  ACCESS:          0  HIT:          0  MISS:          0
cpu0_ITLB WRITEBACK ACCESS:          0  HIT:          0  MISS:          0
cpu0_L1I TOTAL     ACCESS:    3015224  HIT:    2997980  MISS:      17244
cpu0_L1I LOAD      ACCESS:    3015224  HIT:    2997980  MISS:      17244
cpu0_L1I RFO       ACCESS:          0  HIT:          0  MISS:          0
cpu0_L1I PREFETCH  ACCESS:          0  HIT:          0  MISS:          0
cpu0_L1I WRITEBACK ACCESS:          0  HIT:          0  MISS:          0
cpu0_STLB TOTAL     ACCESS:    2184805  HIT:    2181009  MISS:       3796
cpu0_STLB LOAD      ACCESS:    2132962  HIT:    2129194  MISS:       3768
cpu0_STLB RFO       ACCESS:      51843  HIT:      51815  MISS:         28
cpu0_STLB PREFETCH  ACCESS:          0  HIT:          0  MISS:          0
cpu0_STLB WRITEBACK ACCESS:          0  HIT:          0  MISS:          0
cpu0_L1D TOTAL     ACCESS:    8563003  HIT:    5200159  MISS:    3362844
cpu0_L1D LOAD      ACCESS:    5269086  HIT:    2042094  MISS:    3226992
cpu0_L1D RFO       ACCESS:    3290258  HIT:    3157571  MISS:     132687
cpu0_L1D PREFETCH  ACCESS:          0  HIT:          0  MISS:          0
cpu0_L1D WRITEBACK ACCESS:          0  HIT:          0  MISS:          0
cpu0_L2C TOTAL     ACCESS:    3590338  HIT:    3229302  MISS:     361036
cpu0_L2C LOAD      ACCESS:    3243731  HIT:    2886557  MISS:     357174
cpu0_L2C RFO       ACCESS:     132392  HIT:     129472  MISS:       2920
cpu0_L2C PREFETCH  ACCESS:          0  HIT:          0  MISS:          0
cpu0_L2C WRITEBACK ACCESS:     211050  HIT:     211019  MISS:         31
LLC TOTAL     ACCESS:     394230  HIT:     170764  MISS:     223466
LLC LOAD      ACCESS:     356555  HIT:     134253  MISS:     222302
LLC RFO       ACCESS:       2833  HIT:       1725  MISS:       1108
LLC PREFETCH  ACCESS:          0  HIT:          0  MISS:          0
LLC WRITEBACK ACCESS:      33931  HIT:      33910  MISS:         21
Heartbeat CPU 0 instructions: 82000004 cycles: 49372576 heartbeat IPC: 1.023 cumulative IPC: 1.03642 (Simulation time: 1 hr 9 min 0 sec) 

Region of Interest Statistics
cpu0_DTLB TOTAL     ACCESS:    5897983  HIT:    3562477  MISS:    2335506
cpu0_DTLB LOAD      ACCESS:    4238043  HIT:    1957285  MISS:    2280758
cpu0_DTLB RFO       ACCESS:    1659940  HIT:    1605192  MISS:      54748
cpu0_DTLB PREFETCH  ACCESS:          0  HIT:          0  MISS:          0
cpu0_DTLB WRITEBACK ACCESS:          0  HIT:          0  MISS:          0
cpu0_ITLB TOTAL     ACCESS:     618628  HIT:     618578  MISS:         50
cpu0_ITLB LOAD      ACCESS:     618628  HIT:     618578  MISS:         50
cpu0_ITLB RFO       ACCESS:          0  HIT:          0  MISS:          0
cpu0_ITLB PREFETCH  ACCESS:          0  HIT:          0  MISS:          0
cpu0_ITLB WRITEBACK ACCESS:          0  HIT:          0  MISS:          0
cpu0_L1I TOTAL     ACCESS:    3216004  HIT:    3198760  MISS:      17244
cpu0_L1I LOAD      ACCESS:    3216004  HIT:    3198760  MISS:      17244
cpu0_L1I RFO       ACCESS:          0  HIT:          0  MISS:          0
cpu0_L1I PREFETCH  ACCESS:          0  HIT:          0  MISS:          0
cpu0_L1I WRITEBACK ACCESS:          0  HIT:          0  MISS:          0
cpu0_STLB TOTAL     ACCESS:    2335556  HIT:    2331535  MISS:       4021
cpu0_STLB LOAD      ACCESS:    2280808  HIT:    2276815  MISS:       3993
cpu0_STLB RFO       ACCESS:      54748  HIT:      54720  MISS:         28
cpu0_STLB PREFETCH  ACCESS:          0  HIT:          0  MISS:          0
cpu0_STLB WRITEBACK ACCESS:          0  HIT:          0  MISS:          0
cpu0_L1D TOTAL     ACCESS:    9123651  HIT:    5530292  MISS:    3593359
cpu0_L1D LOAD      ACCESS:    5605854  HIT:    2157187  MISS:    3448667
cpu0_L1D RFO       ACCESS:    3513913  HIT:    3372594  MISS:     141319
cpu0_L1D PREFETCH  ACCESS:          0  HIT:          0  MISS:          0
cpu0_L1D WRITEBACK ACCESS:          0  HIT:          0  MISS:          0
cpu0_L2C TOTAL     ACCESS:    3835271  HIT:    3440438  MISS:     394833
cpu0_L2C LOAD      ACCESS:    3465372  HIT:    3074594  MISS:     390778
cpu0_L2C RFO       ACCESS:     140995  HIT:     137920  MISS:       3075
cpu0_L2C PREFETCH  ACCESS:          0  HIT:          0  MISS:          0
cpu0_L2C WRITEBACK ACCESS:     225531  HIT:     225499  MISS:         32
LLC TOTAL     ACCESS:     430778  HIT:     191912  MISS:     238866
LLC LOAD      ACCESS:     390142  HIT:     152440  MISS:     237702
LLC RFO       ACCESS:       2988  HIT:       1880  MISS:       1108
LLC PREFETCH  ACCESS:          0  HIT:          0  MISS:          0
LLC WRITEBACK ACCESS:      36700  HIT:      36679  MISS:         21
Heartbeat CPU 0 instructions: 84000002 cycles: 51316126 heartbeat IPC: 1.02904 cumulative IPC: 1.03598 (Simulation time: 1 hr 10 min 57 sec) 

Region of Interest Statistics
cpu0_DTLB TOTAL     ACCESS:    6257639  HIT:    3771371  MISS:    2486268
cpu0_DTLB LOAD      ACCESS:    4492459  HIT:    2064187  MISS:    2428272
cpu0_DTLB RFO       ACCESS:    1765180  HIT:    1707184  MISS:      57996
cpu0_DTLB PREFETCH  ACCESS:          0  HIT:          0  MISS:          0
cpu0_DTLB WRITEBACK ACCESS:          0  HIT:          0  MISS:          0
cpu0_ITLB TOTAL     ACCESS:     656665  HIT:     656615  MISS:         50
cpu0_ITLB LOAD      ACCESS:     656665  HIT:     656615  MISS:         50
cpu0_ITLB RFO       ACCESS:          0  HIT:          0  MISS:          0
cpu0_ITLB PREFETCH  ACCESS:          0  HIT:          0  MISS:          0
cpu0_ITLB WRITEBACK ACCESS:          0  HIT:          0  MISS:          0
cpu0_L1I TOTAL     ACCESS:    3417204  HIT:    3399960  MISS:      17244
cpu0_L1I LOAD      ACCESS:    3417204  HIT:    3399960  MISS:      17244
cpu0_L1I RFO       ACCESS:          0  HIT:          0  MISS:          0
cpu0_L1I PREFETCH  ACCESS:          0  HIT:          0  MISS:          0
cpu0_L1I WRITEBACK ACCESS:          0  HIT:          0  MISS:          0
cpu0_STLB TOTAL     ACCESS:    2486318  HIT:    2482047  MISS:       4271
cpu0_STLB LOAD      ACCESS:    2428322  HIT:    2424079  MISS:       4243
cpu0_STLB RFO       ACCESS:      57996  HIT:      57968  MISS:         28
cpu0_STLB PREFETCH  ACCESS:          0  HIT:          0  MISS:          0
cpu0_STLB WRITEBACK ACCESS:          0  HIT:          0  MISS:          0
cpu0_L1D TOTAL     ACCESS:    9683277  HIT:    5859730  MISS:    3823547
cpu0_L1D LOAD      ACCESS:    5941881  HIT:    2271755  MISS:    3670126
cpu0_L1D RFO       ACCESS:    3737262  HIT:    3587439  MISS:     149823
cpu0_L1D PREFETCH  ACCESS:          0  HIT:          0  MISS:          0
cpu0_L1D WRITEBACK ACCESS:          0  HIT:          0  MISS:          0
cpu0_L2C TOTAL     ACCESS:    4079465  HIT:    3657396  MISS:     422069
cpu0_L2C LOAD      ACCESS:    3686807  HIT:    3268926  MISS:     417881
cpu0_L2C RFO       ACCESS:     149485  HIT:     146326  MISS:       3159
cpu0_L2C PREFETCH  ACCESS:          0  HIT:          0  MISS:          0
cpu0_L2C WRITEBACK ACCESS:     239575  HIT:     239543  MISS:         32
LLC TOTAL     ACCESS:     460170  HIT:     206104  MISS:     254066
LLC LOAD      ACCESS:     417219  HIT:     164317  MISS:     252902
LLC RFO       ACCESS:       3072  HIT:       1964  MISS:       1108
LLC PREFETCH  ACCESS:          0  HIT:          0  MISS:          0
LLC WRITEBACK ACCESS:      38882  HIT:      38861  MISS:         21
Heartbeat CPU 0 instructions: 86000001 cycles: 53279414 heartbeat IPC: 1.0187 cumulative IPC: 1.03501 (Simulation time: 1 hr 13 min 3 sec) 

Region of Interest Statistics
cpu0_DTLB TOTAL     ACCESS:    6619518  HIT:    3982527  MISS:    2636991
cpu0_DTLB LOAD      ACCESS:    4747007  HIT:    2171154  MISS:    2575853
cpu0_DTLB RFO       ACCESS:    1872511  HIT:    1811373  MISS:      61138
cpu0_DTLB PREFETCH  ACCESS:          0  HIT:          0  MISS:          0
cpu0_DTLB WRITEBACK ACCESS:          0  HIT:          0  MISS:          0
cpu0_ITLB TOTAL     ACCESS:     694662  HIT:     694612  MISS:         50
cpu0_ITLB LOAD      ACCESS:     694662  HIT:     694612  MISS:         50
cpu0_ITLB RFO       ACCESS:          0  HIT:          0  MISS:          0
cpu0_ITLB PREFETCH  ACCESS:          0  HIT:          0  MISS:          0
cpu0_ITLB WRITEBACK ACCESS:          0  HIT:          0  MISS:          0
cpu0_L1I TOTAL     ACCESS:    3618423  HIT:    3601179  MISS:      17244
cpu0_L1I LOAD      ACCESS:    3618423  HIT:    3601179  MISS:      17244
cpu0_L1I RFO       ACCESS:          0  HIT:          0  MISS:          0
cpu0_L1I PREFETCH  ACCESS:          0  HIT:          0  MISS:          0
cpu0_L1I WRITEBACK ACCESS:          0  HIT:          0  MISS:          0
cpu0_STLB TOTAL     ACCESS:    2637041  HIT:    2632520  MISS:       4521
cpu0_STLB LOAD      ACCESS:    2575903  HIT:    2571410  MISS:       4493
cpu0_STLB RFO       ACCESS:      61138  HIT:      61110  MISS:         28
cpu0_STLB PREFETCH  ACCESS:          0  HIT:          0  MISS:          0
cpu0_STLB WRITEBACK ACCESS:          0  HIT:          0  MISS:          0
cpu0_L1D TOTAL     ACCESS:   10243193  HIT:    6189397  MISS:    4053796
cpu0_L1D LOAD      ACCESS:    6277940  HIT:    2386431  MISS:    3891509
cpu0_L1D RFO       ACCESS:    3960869  HIT:    3802406  MISS:     158463
cpu0_L1D PREFETCH  ACCESS:          0  HIT:          0  MISS:          0
cpu0_L1D WRITEBACK ACCESS:          0  HIT:          0  MISS:          0
cpu0_L2C TOTAL     ACCESS:    4323891  HIT:    3880004  MISS:     443887
cpu0_L2C LOAD      ACCESS:    3908160  HIT:    3468571  MISS:     439589
cpu0_L2C RFO       ACCESS:     158116  HIT:     154890  MISS:       3226
cpu0_L2C PREFETCH  ACCESS:          0  HIT:          0  MISS:          0
cpu0_L2C WRITEBACK ACCESS:     253791  HIT:     253759  MISS:         32
LLC TOTAL     ACCESS:     484220  HIT:     214776  MISS:     269444
LLC LOAD      ACCESS:     438895  HIT:     170616  MISS:     268279
LLC RFO       ACCESS:       3138  HIT:       2030  MISS:       1108
LLC PREFETCH  ACCESS:          0  HIT:          0  MISS:          0
LLC WRITEBACK ACCESS:      41147  HIT:      41126  MISS:         21
Heartbeat CPU 0 instructions: 88000000 cycles: 55239191 heartbeat IPC: 1.02052 cumulative IPC: 1.03423 (Simulation time: 1 hr 15 min 5 sec) 

Region of Interest Statistics
cpu0_DTLB TOTAL     ACCESS:    6980075  HIT:    4192259  MISS:    2787816
cpu0_DTLB LOAD      ACCESS:    5001800  HIT:    2278565  MISS:    2723235
cpu0_DTLB RFO       ACCESS:    1978275  HIT:    1913694  MISS:      64581
cpu0_DTLB PREFETCH  ACCESS:          0  HIT:          0  MISS:          0
cpu0_DTLB WRITEBACK ACCESS:          0  HIT:          0  MISS:          0
cpu0_ITLB TOTAL     ACCESS:     732707  HIT:     732657  MISS:         50
cpu0_ITLB LOAD      ACCESS:     732707  HIT:     732657  MISS:         50
cpu0_ITLB RFO       ACCESS:          0  HIT:          0  MISS:          0
cpu0_ITLB PREFETCH  ACCESS:          0  HIT:          0  MISS:          0
cpu0_ITLB WRITEBACK ACCESS:          0  HIT:          0  MISS:          0
cpu0_L1I TOTAL     ACCESS:    3819643  HIT:    3802399  MISS:      17244
cpu0_L1I LOAD      ACCESS:    3819643  HIT:    3802399  MISS:      17244
cpu0_L1I RFO       ACCESS:          0  HIT:          0  MISS:          0
cpu0_L1I PREFETCH  ACCESS:          0  HIT:          0  MISS:          0
cpu0_L1I WRITEBACK ACCESS:          0  HIT:          0  MISS:          0
cpu0_STLB TOTAL     ACCESS:    2787866  HIT:    2783120  MISS:       4746
cpu0_STLB LOAD      ACCESS:    2723285  HIT:    2718567  MISS:       4718
cpu0_STLB RFO       ACCESS:      64581  HIT:      64553  MISS:         28
cpu0_STLB PREFETCH  ACCESS:          0  HIT:          0  MISS:          0
cpu0_STLB WRITEBACK ACCESS:          0  HIT:          0  MISS:          0
cpu0_L1D TOTAL     ACCESS:   10803346  HIT:    6519374  MISS:    4283972
cpu0_L1D LOAD      ACCESS:    6614271  HIT:    2501367  MISS:    4112904
cpu0_L1D RFO       ACCESS:    4184466  HIT:    4017428  MISS:     167038
cpu0_L1D PREFETCH  ACCESS:          0  HIT:          0  MISS:          0
cpu0_L1D WRITEBACK ACCESS:          0  HIT:          0  MISS:          0
cpu0_L2C TOTAL     ACCESS:    4568019  HIT:    4095977  MISS:     472042
cpu0_L2C LOAD      ACCESS:    4129527  HIT:    3662163  MISS:     467364
cpu0_L2C RFO       ACCESS:     166668  HIT:     163120  MISS:       3548
cpu0_L2C PREFETCH  ACCESS:          0  HIT:          0  MISS:          0
cpu0_L2C WRITEBACK ACCESS:     267794  HIT:     267758  MISS:         36
LLC TOTAL     ACCESS:     515015  HIT:     230169  MISS:     284846
LLC LOAD      ACCESS:     466656  HIT:     182977  MISS:     283679
LLC RFO       ACCESS:       3456  HIT:       2348  MISS:       1108
LLC PREFETCH  ACCESS:          0  HIT:          0  MISS:          0
LLC WRITEBACK ACCESS:      43809  HIT:      43788  MISS:         21
Heartbeat CPU 0 instructions: 90000000 cycles: 57195707 heartbeat IPC: 1.02223 cumulative IPC: 1.03363 (Simulation time: 1 hr 17 min 3 sec) 

Region of Interest Statistics
cpu0_DTLB TOTAL     ACCESS:    7342901  HIT:    4404108  MISS:    2938793
cpu0_DTLB LOAD      ACCESS:    5256800  HIT:    2386003  MISS:    2870797
cpu0_DTLB RFO       ACCESS:    2086101  HIT:    2018105  MISS:      67996
cpu0_DTLB PREFETCH  ACCESS:          0  HIT:          0  MISS:          0
cpu0_DTLB WRITEBACK ACCESS:          0  HIT:          0  MISS:          0
cpu0_ITLB TOTAL     ACCESS:     770720  HIT:     770670  MISS:         50
cpu0_ITLB LOAD      ACCESS:     770720  HIT:     770670  MISS:         50
cpu0_ITLB RFO       ACCESS:          0  HIT:          0  MISS:          0
cpu0_ITLB PREFETCH  ACCESS:          0  HIT:          0  MISS:          0
cpu0_ITLB WRITEBACK ACCESS:          0  HIT:          0  MISS:          0
cpu0_L1I TOTAL     ACCESS:    4021066  HIT:    4003822  MISS:      17244
cpu0_L1I LOAD      ACCESS:    4021066  HIT:    4003822  MISS:      17244
cpu0_L1I RFO       ACCESS:          0  HIT:          0  MISS:          0
cpu0_L1I PREFETCH  ACCESS:          0  HIT:          0  MISS:          0
cpu0_L1I WRITEBACK ACCESS:          0  HIT:          0  MISS:          0
cpu0_STLB TOTAL     ACCESS:    2938843  HIT:    2933847  MISS:       4996
cpu0_STLB LOAD      ACCESS:    2870847  HIT:    2865879  MISS:       4968
cpu0_STLB RFO       ACCESS:      67996  HIT:      67968  MISS:         28
cpu0_STLB PREFETCH  ACCESS:          0  HIT:          0  MISS:          0
cpu0_STLB WRITEBACK ACCESS:          0  HIT:          0  MISS:          0
cpu0_L1D TOTAL     ACCESS:   11363243  HIT:    6848898  MISS:    4514345
cpu0_L1D LOAD      ACCESS:    6950425  HIT:    2616000  MISS:    4334425
cpu0_L1D RFO       ACCESS:    4407959  HIT:    4232302  MISS:     175657
cpu0_L1D PREFETCH  ACCESS:          0  HIT:          0  MISS:          0
cpu0_L1D WRITEBACK ACCESS:          0  HIT:          0  MISS:          0
cpu0_L2C TOTAL     ACCESS:    4812405  HIT:    4315973  MISS:     496432
cpu0_L2C LOAD      ACCESS:    4351021  HIT:    3859457  MISS:     491564
cpu0_L2C RFO       ACCESS:     175269  HIT:     171605  MISS:       3664
cpu0_L2C PREFETCH  ACCESS:          0  HIT:          0  MISS:          0
cpu0_L2C WRITEBACK ACCESS:     281852  HIT:     281815  MISS:         37
LLC TOTAL     ACCESS:     541640  HIT:     241594  MISS:     300046
LLC LOAD      ACCESS:     490853  HIT:     191974  MISS:     298879
LLC RFO       ACCESS:       3570  HIT:       2462  MISS:       1108
LLC PREFETCH  ACCESS:          0  HIT:          0  MISS:          0
LLC WRITEBACK ACCESS:      46050  HIT:      46029  MISS:         21
Heartbeat CPU 0 instructions: 92000003 cycles: 59166682 heartbeat IPC: 1.01473 cumulative IPC: 1.03271 (Simulation time: 1 hr 19 min 7 sec) 

Region of Interest Statistics
cpu0_DTLB TOTAL     ACCESS:    7705269  HIT:    4615698  MISS:    3089571
cpu0_DTLB LOAD      ACCESS:    5512059  HIT:    2493529  MISS:    3018530
cpu0_DTLB RFO       ACCESS:    2193210  HIT:    2122169  MISS:      71041
cpu0_DTLB PREFETCH  ACCESS:          0  HIT:          0  MISS:          0
cpu0_DTLB WRITEBACK ACCESS:          0  HIT:          0  MISS:          0
cpu0_ITLB TOTAL     ACCESS:     808639  HIT:     808589  MISS:         50
cpu0_ITLB LOAD      ACCESS:     808639  HIT:     808589  MISS:         50
cpu0_ITLB RFO       ACCESS:          0  HIT:          0  MISS:          0
cpu0_ITLB PREFETCH  ACCESS:          0  HIT:          0  MISS:          0
cpu0_ITLB WRITEBACK ACCESS:          0  HIT:          0  MISS:          0
cpu0_L1I TOTAL     ACCESS:    4222580  HIT:    4205336  MISS:      17244
cpu0_L1I LOAD      ACCESS:    4222580  HIT:    4205336  MISS:      17244
cpu0_L1I RFO       ACCESS:          0  HIT:          0  MISS:          0
cpu0_L1I PREFETCH  ACCESS:          0  HIT:          0  MISS:          0
cpu0_L1I WRITEBACK ACCESS:          0  HIT:          0  MISS:          0
cpu0_STLB TOTAL     ACCESS:    3089621  HIT:    3084400  MISS:       5221
cpu0_STLB LOAD      ACCESS:    3018580  HIT:    3013387  MISS:       5193
cpu0_STLB RFO       ACCESS:      71041  HIT:      71013  MISS:         28
cpu0_STLB PREFETCH  ACCESS:          0  HIT:          0  MISS:          0
cpu0_STLB WRITEBACK ACCESS:          0  HIT:          0  MISS:          0
cpu0_L1D TOTAL     ACCESS:   11923095  HIT:    7178456  MISS:    4744639
cpu0_L1D LOAD      ACCESS:    7286529  HIT:    2730652  MISS:    4555877
cpu0_L1D RFO       ACCESS:    4631482  HIT:    4447191  MISS:     184291
cpu0_L1D PREFETCH  ACCESS:          0  HIT:          0  MISS:          0
cpu0_L1D WRITEBACK ACCESS:          0  HIT:          0  MISS:          0
cpu0_L2C TOTAL     ACCESS:    5056864  HIT:    4537530  MISS:     519334
cpu0_L2C LOAD      ACCESS:    4572435  HIT:    4058183  MISS:     514252
cpu0_L2C RFO       ACCESS:     183875  HIT:     180029  MISS:       3846
cpu0_L2C PREFETCH  ACCESS:          0  HIT:          0  MISS:          0
cpu0_L2C WRITEBACK ACCESS:     296083  HIT:     296045  MISS:         38
LLC TOTAL     ACCESS:     566692  HIT:     251245  MISS:     315447
LLC LOAD      ACCESS:     513506  HIT:     199227  MISS:     314279
LLC RFO       ACCESS:       3745  HIT:       2637  MISS:       1108
LLC PREFETCH  ACCESS:          0  HIT:          0  MISS:          0
LLC WRITEBACK ACCESS:      48243  HIT:      48221  MISS:         22
Heartbeat CPU 0 instructions: 94000004 cycles: 61115407 heartbeat IPC: 1.02631 cumulative IPC: 1.03242 (Simulation time: 1 hr 21 min 4 sec) 

Region of Interest Statistics
cpu0_DTLB TOTAL     ACCESS:    8067074  HIT:    4826790  MISS:    3240284
cpu0_DTLB LOAD      ACCESS:    5767061  HIT:    2600980  MISS:    3166081
cpu0_DTLB RFO       ACCESS:    2300013  HIT:    2225810  MISS:      74203
cpu0_DTLB PREFETCH  ACCESS:          0  HIT:          0  MISS:          0
cpu0_DTLB WRITEBACK ACCESS:          0  HIT:          0  MISS:          0
cpu0_ITLB TOTAL     ACCESS:     846581  HIT:     846531  MISS:         50
cpu0_ITLB LOAD      ACCESS:     846581  HIT:     846531  MISS:         50
cpu0_ITLB RFO       ACCESS:          0  HIT:          0  MISS:          0
cpu0_ITLB PREFETCH  ACCESS:          0  HIT:          0  MISS:          0
cpu0_ITLB WRITEBACK ACCESS:          0  HIT:          0  MISS:          0
cpu0_L1I TOTAL     ACCESS:    4423925  HIT:    4406681  MISS:      17244
cpu0_L1I LOAD      ACCESS:    4423925  HIT:    4406681  MISS:      17244
cpu0_L1I RFO       ACCESS:          0  HIT:          0  MISS:          0
cpu0_L1I PREFETCH  ACCESS:          0  HIT:          0  MISS:          0
cpu0_L1I WRITEBACK ACCESS:          0  HIT:          0  MISS:          0
cpu0_STLB TOTAL     ACCESS:    3240334  HIT:    3234863  MISS:       5471
cpu0_STLB LOAD      ACCESS:    3166131  HIT:    3160688  MISS:       5443
cpu0_STLB RFO       ACCESS:      74203  HIT:      74175  MISS:         28
cpu0_STLB PREFETCH  ACCESS:          0  HIT:          0  MISS:          0
cpu0_STLB WRITEBACK ACCESS:          0  HIT:          0  MISS:          0
cpu0_L1D TOTAL     ACCESS:   12483051  HIT:    7508178  MISS:    4974873
cpu0_L1D LOAD      ACCESS:    7622692  HIT:    2845404  MISS:    4777288
cpu0_L1D RFO       ACCESS:    4855025  HIT:    4662136  MISS:     192889
cpu0_L1D PREFETCH  ACCESS:          0  HIT:          0  MISS:          0
cpu0_L1D WRITEBACK ACCESS:          0  HIT:          0  MISS:          0
cpu0_L2C TOTAL     ACCESS:    5301265  HIT:    4757784  MISS:     543481
cpu0_L2C LOAD      ACCESS:    4793823  HIT:    4255519  MISS:     538304
cpu0_L2C RFO       ACCESS:     192460  HIT:     188551  MISS:       3909
cpu0_L2C PREFETCH  ACCESS:          0  HIT:          0  MISS:          0
cpu0_L2C WRITEBACK ACCESS:     310286  HIT:     310248  MISS:         38
LLC TOTAL     ACCESS:     592954  HIT:     262305  MISS:     330649
LLC LOAD      ACCESS:     537547  HIT:     208068  MISS:     329479
LLC RFO       ACCESS:       3802  HIT:       2694  MISS:       1108
LLC PREFETCH  ACCESS:          0  HIT:          0  MISS:          0
LLC WRITEBACK ACCESS:      50375  HIT:      50353  MISS:         22
Heartbeat CPU 0 instructions: 96000001 cycles: 63063230 heartbeat IPC: 1.02679 cumulative IPC: 1.03217 (Simulation time: 1 hr 23 min 2 sec) 

Region of Interest Statistics
cpu0_DTLB TOTAL     ACCESS:    8428297  HIT:    5037274  MISS:    3391023
cpu0_DTLB LOAD      ACCESS:    6022302  HIT:    2708529  MISS:    3313773
cpu0_DTLB RFO       ACCESS:    2405995  HIT:    2328745  MISS:      77250
cpu0_DTLB PREFETCH  ACCESS:          0  HIT:          0  MISS:          0
cpu0_DTLB WRITEBACK ACCESS:          0  HIT:          0  MISS:          0
cpu0_ITLB TOTAL     ACCESS:     884416  HIT:     884366  MISS:         50
cpu0_ITLB LOAD      ACCESS:     884416  HIT:     884366  MISS:         50
cpu0_ITLB RFO       ACCESS:          0  HIT:          0  MISS:          0
cpu0_ITLB PREFETCH  ACCESS:          0  HIT:          0  MISS:          0
cpu0_ITLB WRITEBACK ACCESS:          0  HIT:          0  MISS:          0
cpu0_L1I TOTAL     ACCESS:    4625443  HIT:    4608199  MISS:      17244
cpu0_L1I LOAD      ACCESS:    4625443  HIT:    4608199  MISS:      17244
cpu0_L1I RFO       ACCESS:          0  HIT:          0  MISS:          0
cpu0_L1I PREFETCH  ACCESS:          0  HIT:          0  MISS:          0
cpu0_L1I WRITEBACK ACCESS:          0  HIT:          0  MISS:          0
cpu0_STLB TOTAL     ACCESS:    3391073  HIT:    3385377  MISS:       5696
cpu0_STLB LOAD      ACCESS:    3313823  HIT:    3308155  MISS:       5668
cpu0_STLB RFO       ACCESS:      77250  HIT:      77222  MISS:         28
cpu0_STLB PREFETCH  ACCESS:          0  HIT:          0  MISS:          0
cpu0_STLB WRITEBACK ACCESS:          0  HIT:          0  MISS:          0
cpu0_L1D TOTAL     ACCESS:   13043066  HIT:    7837949  MISS:    5205117
cpu0_L1D LOAD      ACCESS:    7958954  HIT:    2960134  MISS:    4998820
cpu0_L1D RFO       ACCESS:    5078553  HIT:    4877159  MISS:     201394
cpu0_L1D PREFETCH  ACCESS:          0  HIT:          0  MISS:          0
cpu0_L1D WRITEBACK ACCESS:          0  HIT:          0  MISS:          0
cpu0_L2C TOTAL     ACCESS:    5545717  HIT:    4976308  MISS:     569409
cpu0_L2C LOAD      ACCESS:    5015324  HIT:    4451312  MISS:     564012
cpu0_L2C RFO       ACCESS:     200952  HIT:     196875  MISS:       4077
cpu0_L2C PREFETCH  ACCESS:          0  HIT:          0  MISS:          0
cpu0_L2C WRITEBACK ACCESS:     324538  HIT:     324499  MISS:         39
LLC TOTAL     ACCESS:     621161  HIT:     275283  MISS:     345878
LLC LOAD      ACCESS:     563235  HIT:     218531  MISS:     344704
LLC RFO       ACCESS:       3960  HIT:       2852  MISS:       1108
LLC PREFETCH  ACCESS:          0  HIT:          0  MISS:          0
LLC WRITEBACK ACCESS:      52685  HIT:      52663  MISS:         22
Heartbeat CPU 0 instructions: 98000003 cycles: 65023712 heartbeat IPC: 1.02016 cumulative IPC: 1.03167 (Simulation time: 1 hr 25 min 9 sec) 

Region of Interest Statistics
cpu0_DTLB TOTAL     ACCESS:    8790223  HIT:    5248318  MISS:    3541905
cpu0_DTLB LOAD      ACCESS:    6276640  HIT:    2815425  MISS:    3461215
cpu0_DTLB RFO       ACCESS:    2513583  HIT:    2432893  MISS:      80690
cpu0_DTLB PREFETCH  ACCESS:          0  HIT:          0  MISS:          0
cpu0_DTLB WRITEBACK ACCESS:          0  HIT:          0  MISS:          0
cpu0_ITLB TOTAL     ACCESS:     922321  HIT:     922271  MISS:         50
cpu0_ITLB LOAD      ACCESS:     922321  HIT:     922271  MISS:         50
cpu0_ITLB RFO       ACCESS:          0  HIT:          0  MISS:          0
cpu0_ITLB PREFETCH  ACCESS:          0  HIT:          0  MISS:          0
cpu0_ITLB WRITEBACK ACCESS:          0  HIT:          0  MISS:          0
cpu0_L1I TOTAL     ACCESS:    4827047  HIT:    4809803  MISS:      17244
cpu0_L1I LOAD      ACCESS:    4827047  HIT:    4809803  MISS:      17244
cpu0_L1I RFO       ACCESS:          0  HIT:          0  MISS:          0
cpu0_L1I PREFETCH  ACCESS:          0  HIT:          0  MISS:          0
cpu0_L1I WRITEBACK ACCESS:          0  HIT:          0  MISS:          0
cpu0_STLB TOTAL     ACCESS:    3541955  HIT:    3536009  MISS:       5946
cpu0_STLB LOAD      ACCESS:    3461265  HIT:    3455347  MISS:       5918
cpu0_STLB RFO       ACCESS:      80690  HIT:      80662  MISS:         28
cpu0_STLB PREFETCH  ACCESS:          0  HIT:          0  MISS:          0
cpu0_STLB WRITEBACK ACCESS:          0  HIT:          0  MISS:          0
cpu0_L1D TOTAL     ACCESS:   13602981  HIT:    8167555  MISS:    5435426
cpu0_L1D LOAD      ACCESS:    8295065  HIT:    3074730  MISS:    5220335
cpu0_L1D RFO       ACCESS:    5302107  HIT:    5092144  MISS:     209963
cpu0_L1D PREFETCH  ACCESS:          0  HIT:          0  MISS:          0
cpu0_L1D WRITEBACK ACCESS:          0  HIT:          0  MISS:          0
cpu0_L2C TOTAL     ACCESS:    5790076  HIT:    5197665  MISS:     592411
cpu0_L2C LOAD      ACCESS:    5236810  HIT:    4649930  MISS:     586880
cpu0_L2C RFO       ACCESS:     209498  HIT:     205350  MISS:       4148
cpu0_L2C PREFETCH  ACCESS:          0  HIT:          0  MISS:          0
cpu0_L2C WRITEBACK ACCESS:     338640  HIT:     338599  MISS:         41
LLC TOTAL     ACCESS:     646098  HIT:     285020  MISS:     361078
LLC LOAD      ACCESS:     586098  HIT:     226194  MISS:     359904
LLC RFO       ACCESS:       4031  HIT:       2923  MISS:       1108
LLC PREFETCH  ACCESS:          0  HIT:          0  MISS:          0
LLC WRITEBACK ACCESS:      54627  HIT:      54605  MISS:         22
Heartbeat CPU 0 instructions: 100000001 cycles: 66988494 heartbeat IPC: 1.01792 cumulative IPC: 1.03111 (Simulation time: 1 hr 27 min 16 sec) 

Region of Interest Statistics
cpu0_DTLB TOTAL     ACCESS:    9152576  HIT:    5459695  MISS:    3692881
cpu0_DTLB LOAD      ACCESS:    6531363  HIT:    2922402  MISS:    3608961
cpu0_DTLB RFO       ACCESS:    2621213  HIT:    2537293  MISS:      83920
cpu0_DTLB PREFETCH  ACCESS:          0  HIT:          0  MISS:          0
cpu0_DTLB WRITEBACK ACCESS:          0  HIT:          0  MISS:          0
cpu0_ITLB TOTAL     ACCESS:     960269  HIT:     960219  MISS:         50
cpu0_ITLB LOAD      ACCESS:     960269  HIT:     960219  MISS:         50
cpu0_ITLB RFO       ACCESS:          0  HIT:          0  MISS:          0
cpu0_ITLB PREFETCH  ACCESS:          0  HIT:          0  MISS:          0
cpu0_ITLB WRITEBACK ACCESS:          0  HIT:          0  MISS:          0
cpu0_L1I TOTAL     ACCESS:    5028650  HIT:    5011406  MISS:      17244
cpu0_L1I LOAD      ACCESS:    5028650  HIT:    5011406  MISS:      17244
cpu0_L1I RFO       ACCESS:          0  HIT:          0  MISS:          0
cpu0_L1I PREFETCH  ACCESS:          0  HIT:          0  MISS:          0
cpu0_L1I WRITEBACK ACCESS:          0  HIT:          0  MISS:          0
cpu0_STLB TOTAL     ACCESS:    3692931  HIT:    3686735  MISS:       6196
cpu0_STLB LOAD      ACCESS:    3609011  HIT:    3602843  MISS:       6168
cpu0_STLB RFO       ACCESS:      83920  HIT:      83892  MISS:         28
cpu0_STLB PREFETCH  ACCESS:          0  HIT:          0  MISS:          0
cpu0_STLB WRITEBACK ACCESS:          0  HIT:          0  MISS:          0
cpu0_L1D TOTAL     ACCESS:   14162712  HIT:    8497167  MISS:    5665545
cpu0_L1D LOAD      ACCESS:    8631247  HIT:    3189390  MISS:    5441857
cpu0_L1D RFO       ACCESS:    5525406  HIT:    5307079  MISS:     218327
cpu0_L1D PREFETCH  ACCESS:          0  HIT:          0  MISS:          0
cpu0_L1D WRITEBACK ACCESS:          0  HIT:          0  MISS:          0
cpu0_L2C TOTAL     ACCESS:    6034071  HIT:    5417425  MISS:     616646
cpu0_L2C LOAD      ACCESS:    5458290  HIT:    4847370  MISS:     610920
cpu0_L2C RFO       ACCESS:     217847  HIT:     213619  MISS:       4228
cpu0_L2C PREFETCH  ACCESS:          0  HIT:          0  MISS:          0
cpu0_L2C WRITEBACK ACCESS:     352573  HIT:     352532  MISS:         41
LLC TOTAL     ACCESS:     672576  HIT:     296098  MISS:     376478
LLC LOAD      ACCESS:     610121  HIT:     234817  MISS:     375304
LLC RFO       ACCESS:       4111  HIT:       3003  MISS:       1108
LLC PREFETCH  ACCESS:          0  HIT:          0  MISS:          0
LLC WRITEBACK ACCESS:      56887  HIT:      56865  MISS:         22
Heartbeat CPU 0 instructions: 102000002 cycles: 68923968 heartbeat IPC: 1.03334 cumulative IPC: 1.03119 (Simulation time: 1 hr 29 min 23 sec) 

Region of Interest Statistics
cpu0_DTLB TOTAL     ACCESS:    9514158  HIT:    5670563  MISS:    3843595
cpu0_DTLB LOAD      ACCESS:    6787626  HIT:    3031040  MISS:    3756586
cpu0_DTLB RFO       ACCESS:    2726532  HIT:    2639523  MISS:      87009
cpu0_DTLB PREFETCH  ACCESS:          0  HIT:          0  MISS:          0
cpu0_DTLB WRITEBACK ACCESS:          0  HIT:          0  MISS:          0
cpu0_ITLB TOTAL     ACCESS:     998213  HIT:     998163  MISS:         50
cpu0_ITLB LOAD      ACCESS:     998213  HIT:     998163  MISS:         50
cpu0_ITLB RFO       ACCESS:          0  HIT:          0  MISS:          0
cpu0_ITLB PREFETCH  ACCESS:          0  HIT:          0  MISS:          0
cpu0_ITLB WRITEBACK ACCESS:          0  HIT:          0  MISS:          0
cpu0_L1I TOTAL     ACCESS:    5229786  HIT:    5212542  MISS:      17244
cpu0_L1I LOAD      ACCESS:    5229786  HIT:    5212542  MISS:      17244
cpu0_L1I RFO       ACCESS:          0  HIT:          0  MISS:          0
cpu0_L1I PREFETCH  ACCESS:          0  HIT:          0  MISS:          0
cpu0_L1I WRITEBACK ACCESS:          0  HIT:          0  MISS:          0
cpu0_STLB TOTAL     ACCESS:    3843645  HIT:    3837249  MISS:       6396
cpu0_STLB LOAD      ACCESS:    3756636  HIT:    3750268  MISS:       6368
cpu0_STLB RFO       ACCESS:      87009  HIT:      86981  MISS:         28
cpu0_STLB PREFETCH  ACCESS:          0  HIT:          0  MISS:          0
cpu0_STLB WRITEBACK ACCESS:          0  HIT:          0  MISS:          0
cpu0_L1D TOTAL     ACCESS:   14722360  HIT:    8827276  MISS:    5895084
cpu0_L1D LOAD      ACCESS:    8967406  HIT:    3304241  MISS:    5663165
cpu0_L1D RFO       ACCESS:    5748695  HIT:    5522320  MISS:     226375
cpu0_L1D PREFETCH  ACCESS:          0  HIT:          0  MISS:          0
cpu0_L1D WRITEBACK ACCESS:          0  HIT:          0  MISS:          0
cpu0_L2C TOTAL     ACCESS:    6277472  HIT:    5632300  MISS:     645172
cpu0_L2C LOAD      ACCESS:    5679567  HIT:    5040483  MISS:     639084
cpu0_L2C RFO       ACCESS:     225864  HIT:     221349  MISS:       4515
cpu0_L2C PREFETCH  ACCESS:          0  HIT:          0  MISS:          0
cpu0_L2C WRITEBACK ACCESS:     366497  HIT:     366456  MISS:         41
LLC TOTAL     ACCESS:     703916  HIT:     312236  MISS:     391680
LLC LOAD      ACCESS:     637974  HIT:     247468  MISS:     390506
LLC RFO       ACCESS:       4382  HIT:       3274  MISS:       1108
LLC PREFETCH  ACCESS:          0  HIT:          0  MISS:          0
LLC WRITEBACK ACCESS:      60028  HIT:      60006  MISS:         22
Heartbeat CPU 0 instructions: 104000001 cycles: 70871069 heartbeat IPC: 1.02717 cumulative IPC: 1.03105 (Simulation time: 1 hr 31 min 28 sec) 

Region of Interest Statistics
cpu0_DTLB TOTAL     ACCESS:    9875318  HIT:    5880879  MISS:    3994439
cpu0_DTLB LOAD      ACCESS:    7044182  HIT:    3139701  MISS:    3904481
cpu0_DTLB RFO       ACCESS:    2831136  HIT:    2741178  MISS:      89958
cpu0_DTLB PREFETCH  ACCESS:          0  HIT:          0  MISS:          0
cpu0_DTLB WRITEBACK ACCESS:          0  HIT:          0  MISS:          0
cpu0_ITLB TOTAL     ACCESS:    1036149  HIT:    1036099  MISS:         50
cpu0_ITLB LOAD      ACCESS:    1036149  HIT:    1036099  MISS:         50
cpu0_ITLB RFO       ACCESS:          0  HIT:          0  MISS:          0
cpu0_ITLB PREFETCH  ACCESS:          0  HIT:          0  MISS:          0
cpu0_ITLB WRITEBACK ACCESS:          0  HIT:          0  MISS:          0
cpu0_L1I TOTAL     ACCESS:    5431169  HIT:    5413925  MISS:      17244
cpu0_L1I LOAD      ACCESS:    5431169  HIT:    5413925  MISS:      17244
cpu0_L1I RFO       ACCESS:          0  HIT:          0  MISS:          0
cpu0_L1I PREFETCH  ACCESS:          0  HIT:          0  MISS:          0
cpu0_L1I WRITEBACK ACCESS:          0  HIT:          0  MISS:          0
cpu0_STLB TOTAL     ACCESS:    3994490  HIT:    3987844  MISS:       6646
cpu0_STLB LOAD      ACCESS:    3904532  HIT:    3897914  MISS:       6618
cpu0_STLB RFO       ACCESS:      89958  HIT:      89930  MISS:         28
cpu0_STLB PREFETCH  ACCESS:          0  HIT:          0  MISS:          0
cpu0_STLB WRITEBACK ACCESS:          0  HIT:          0  MISS:          0
cpu0_L1D TOTAL     ACCESS:   15283090  HIT:    9157535  MISS:    6125555
cpu0_L1D LOAD      ACCESS:    9304173  HIT:    3419492  MISS:    5884681
cpu0_L1D RFO       ACCESS:    5972408  HIT:    5737308  MISS:     235100
cpu0_L1D PREFETCH  ACCESS:          0  HIT:          0  MISS:          0
cpu0_L1D WRITEBACK ACCESS:          0  HIT:          0  MISS:          0
cpu0_L2C TOTAL     ACCESS:    6522169  HIT:    5846516  MISS:     675653
cpu0_L2C LOAD      ACCESS:    5901044  HIT:    5231942  MISS:     669102
cpu0_L2C RFO       ACCESS:     234570  HIT:     229677  MISS:       4893
cpu0_L2C PREFETCH  ACCESS:          0  HIT:          0  MISS:          0
cpu0_L2C WRITEBACK ACCESS:     380781  HIT:     380739  MISS:         42
LLC TOTAL     ACCESS:     737278  HIT:     330218  MISS:     407060
LLC LOAD      ACCESS:     667895  HIT:     262009  MISS:     405886
LLC RFO       ACCESS:       4760  HIT:       3652  MISS:       1108
LLC PREFETCH  ACCESS:          0  HIT:          0  MISS:          0
LLC WRITEBACK ACCESS:      63007  HIT:      62985  MISS:         22
Heartbeat CPU 0 instructions: 106000000 cycles: 72820135 heartbeat IPC: 1.02613 cumulative IPC: 1.03087 (Simulation time: 1 hr 33 min 31 sec) 

Region of Interest Statistics
cpu0_DTLB TOTAL     ACCESS:   10236591  HIT:    6091405  MISS:    4145186
cpu0_DTLB LOAD      ACCESS:    7300407  HIT:    3248085  MISS:    4052322
cpu0_DTLB RFO       ACCESS:    2936184  HIT:    2843320  MISS:      92864
cpu0_DTLB PREFETCH  ACCESS:          0  HIT:          0  MISS:          0
cpu0_DTLB WRITEBACK ACCESS:          0  HIT:          0  MISS:          0
cpu0_ITLB TOTAL     ACCESS:    1074088  HIT:    1074038  MISS:         50
cpu0_ITLB LOAD      ACCESS:    1074088  HIT:    1074038  MISS:         50
cpu0_ITLB RFO       ACCESS:          0  HIT:          0  MISS:          0
cpu0_ITLB PREFETCH  ACCESS:          0  HIT:          0  MISS:          0
cpu0_ITLB WRITEBACK ACCESS:          0  HIT:          0  MISS:          0
cpu0_L1I TOTAL     ACCESS:    5632160  HIT:    5614916  MISS:      17244
cpu0_L1I LOAD      ACCESS:    5632160  HIT:    5614916  MISS:      17244
cpu0_L1I RFO       ACCESS:          0  HIT:          0  MISS:          0
cpu0_L1I PREFETCH  ACCESS:          0  HIT:          0  MISS:          0
cpu0_L1I WRITEBACK ACCESS:          0  HIT:          0  MISS:          0
cpu0_STLB TOTAL     ACCESS:    4145236  HIT:    4138340  MISS:       6896
cpu0_STLB LOAD      ACCESS:    4052372  HIT:    4045504  MISS:       6868
cpu0_STLB RFO       ACCESS:      92864  HIT:      92836  MISS:         28
cpu0_STLB PREFETCH  ACCESS:          0  HIT:          0  MISS:          0
cpu0_STLB WRITEBACK ACCESS:          0  HIT:          0  MISS:          0
cpu0_L1D TOTAL     ACCESS:   15842930  HIT:    9487193  MISS:    6355737
cpu0_L1D LOAD      ACCESS:    9640659  HIT:    3534384  MISS:    6106275
cpu0_L1D RFO       ACCESS:    6195512  HIT:    5952051  MISS:     243461
cpu0_L1D PREFETCH  ACCESS:          0  HIT:          0  MISS:          0
cpu0_L1D WRITEBACK ACCESS:          0  HIT:          0  MISS:          0
cpu0_L2C TOTAL     ACCESS:    6766297  HIT:    6061076  MISS:     705221
cpu0_L2C LOAD      ACCESS:    6122591  HIT:    5424239  MISS:     698352
cpu0_L2C RFO       ACCESS:     242921  HIT:     237764  MISS:       5157
cpu0_L2C PREFETCH  ACCESS:          0  HIT:          0  MISS:          0
cpu0_L2C WRITEBACK ACCESS:     394784  HIT:     394742  MISS:         42
[...]
cpu0_DTLB LOAD      ACCESS:  191477999  HIT:   80971033  MISS:  110506966
cpu0_DTLB RFO       ACCESS:   79589112  HIT:   77221692  MISS:    2367420
cpu0_DTLB PREFETCH  ACCESS:          0  HIT:          0  MISS:          0
cpu0_DTLB WRITEBACK ACCESS:          0  HIT:          0  MISS:          0
cpu0_ITLB TOTAL     ACCESS:   28434007  HIT:   28433957  MISS:         50
cpu0_ITLB LOAD      ACCESS:   28434007  HIT:   28433957  MISS:         50
cpu0_ITLB RFO       ACCESS:          0  HIT:          0  MISS:          0
cpu0_ITLB PREFETCH  ACCESS:          0  HIT:          0  MISS:          0
cpu0_ITLB WRITEBACK ACCESS:          0  HIT:          0  MISS:          0
cpu0_L1I TOTAL     ACCESS:  150798053  HIT:  150780809  MISS:      17244
cpu0_L1I LOAD      ACCESS:  150798053  HIT:  150780809  MISS:      17244
cpu0_L1I RFO       ACCESS:          0  HIT:          0  MISS:          0
cpu0_L1I PREFETCH  ACCESS:          0  HIT:          0  MISS:          0
cpu0_L1I WRITEBACK ACCESS:          0  HIT:          0  MISS:          0
cpu0_STLB TOTAL     ACCESS:  112874436  HIT:  112691626  MISS:     182810
cpu0_STLB LOAD      ACCESS:  110507016  HIT:  110324237  MISS:     182779
cpu0_STLB RFO       ACCESS:    2367420  HIT:    2367389  MISS:         31
cpu0_STLB PREFETCH  ACCESS:          0  HIT:          0  MISS:          0
cpu0_STLB WRITEBACK ACCESS:          0  HIT:          0  MISS:          0
cpu0_L1D TOTAL     ACCESS:  419559178  HIT:  247226618  MISS:  172332560
cpu0_L1D LOAD      ACCESS:  252071848  HIT:   86287253  MISS:  165784595
cpu0_L1D RFO       ACCESS:  167306660  HIT:  160920911  MISS:    6385749
cpu0_L1D PREFETCH  ACCESS:          0  HIT:          0  MISS:          0
cpu0_L1D WRITEBACK ACCESS:          0  HIT:          0  MISS:          0
cpu0_L2C TOTAL     ACCESS:  182863647  HIT:  163580047  MISS:   19283600
cpu0_L2C LOAD      ACCESS:  165776177  HIT:  146700317  MISS:   19075860
cpu0_L2C RFO       ACCESS:    6371086  HIT:    6208897  MISS:     162189
cpu0_L2C PREFETCH  ACCESS:          0  HIT:          0  MISS:          0
cpu0_L2C WRITEBACK ACCESS:   10554168  HIT:   10553281  MISS:        887
LLC TOTAL     ACCESS:   21064572  HIT:    9565725  MISS:   11498847
LLC LOAD      ACCESS:   19029976  HIT:    7533171  MISS:   11496805
LLC RFO       ACCESS:     157032  HIT:     155924  MISS:       1108
LLC PREFETCH  ACCESS:          0  HIT:          0  MISS:          0
LLC WRITEBACK ACCESS:    1832900  HIT:    1832119  MISS:        781
Heartbeat CPU 0 instructions: 1550000001 cycles: 1484118666 heartbeat IPC: 1.02972 cumulative IPC: 1.02346 (Simulation time: 15 hr 25 min 16 sec) 

Region of Interest Statistics
cpu0_DTLB TOTAL     ACCESS:  271428229  HIT:  158403050  MISS:  113025179
cpu0_DTLB LOAD      ACCESS:  191733645  HIT:   81078958  MISS:  110654687
cpu0_DTLB RFO       ACCESS:   79694584  HIT:   77324092  MISS:    2370492
cpu0_DTLB PREFETCH  ACCESS:          0  HIT:          0  MISS:          0
cpu0_DTLB WRITEBACK ACCESS:          0  HIT:          0  MISS:          0
cpu0_ITLB TOTAL     ACCESS:   28472075  HIT:   28472025  MISS:         50
cpu0_ITLB LOAD      ACCESS:   28472075  HIT:   28472025  MISS:         50
cpu0_ITLB RFO       ACCESS:          0  HIT:          0  MISS:          0
cpu0_ITLB PREFETCH  ACCESS:          0  HIT:          0  MISS:          0
cpu0_ITLB WRITEBACK ACCESS:          0  HIT:          0  MISS:          0
cpu0_L1I TOTAL     ACCESS:  150998830  HIT:  150981586  MISS:      17244
cpu0_L1I LOAD      ACCESS:  150998830  HIT:  150981586  MISS:      17244
cpu0_L1I RFO       ACCESS:          0  HIT:          0  MISS:          0
cpu0_L1I PREFETCH  ACCESS:          0  HIT:          0  MISS:          0
cpu0_L1I WRITEBACK ACCESS:          0  HIT:          0  MISS:          0
cpu0_STLB TOTAL     ACCESS:  113025230  HIT:  112842195  MISS:     183035
cpu0_STLB LOAD      ACCESS:  110654738  HIT:  110471734  MISS:     183004
cpu0_STLB RFO       ACCESS:    2370492  HIT:    2370461  MISS:         31
cpu0_STLB PREFETCH  ACCESS:          0  HIT:          0  MISS:          0
cpu0_STLB WRITEBACK ACCESS:          0  HIT:          0  MISS:          0
cpu0_L1D TOTAL     ACCESS:  420118923  HIT:  247556442  MISS:  172562481
cpu0_L1D LOAD      ACCESS:  252408079  HIT:   86401918  MISS:  166006161
cpu0_L1D RFO       ACCESS:  167529949  HIT:  161136051  MISS:    6393898
cpu0_L1D PREFETCH  ACCESS:          0  HIT:          0  MISS:          0
cpu0_L1D WRITEBACK ACCESS:          0  HIT:          0  MISS:          0
cpu0_L2C TOTAL     ACCESS:  183107541  HIT:  163792369  MISS:   19315172
cpu0_L2C LOAD      ACCESS:  165997713  HIT:  146890661  MISS:   19107052
cpu0_L2C RFO       ACCESS:    6379210  HIT:    6216682  MISS:     162528
cpu0_L2C PREFETCH  ACCESS:          0  HIT:          0  MISS:          0
cpu0_L2C WRITEBACK ACCESS:   10568196  HIT:   10567309  MISS:        887
LLC TOTAL     ACCESS:   21099032  HIT:    9584785  MISS:   11514247
LLC LOAD      ACCESS:   19061119  HIT:    7548914  MISS:   11512205
LLC RFO       ACCESS:     157354  HIT:     156246  MISS:       1108
LLC PREFETCH  ACCESS:          0  HIT:          0  MISS:          0
LLC WRITEBACK ACCESS:    1835854  HIT:    1835073  MISS:        781
Finished CPU 0 instructions: 1500000000 cycles: 1465621634 cumulative IPC: 1.02346 (Simulation time: 15 hr 25 min 16 sec) 

ChampSim completed all CPUs

Region of Interest Statistics

CPU 0 cumulative IPC: 1.02346 instructions: 1500000000 cycles: 1465621634
cpu0_DTLB TOTAL     ACCESS:  271428230  HIT:  158403050  MISS:  113025180
cpu0_DTLB LOAD      ACCESS:  191733646  HIT:   81078958  MISS:  110654688
cpu0_DTLB RFO       ACCESS:   79694584  HIT:   77324092  MISS:    2370492
cpu0_DTLB PREFETCH  ACCESS:          0  HIT:          0  MISS:          0
cpu0_DTLB WRITEBACK ACCESS:          0  HIT:          0  MISS:          0
cpu0_DTLB TRANSLATION ACCESS:          0  HIT:          0  MISS:          0
cpu0_DTLB PREFETCH  REQUESTED:          0  ISSUED:          0  USEFUL:          0  USELESS:          0
cpu0_DTLB AVERAGE MISS LATENCY: 9.87829 cycles
cpu0_ITLB TOTAL     ACCESS:   28472075  HIT:   28472025  MISS:         50
cpu0_ITLB LOAD      ACCESS:   28472075  HIT:   28472025  MISS:         50
cpu0_ITLB RFO       ACCESS:          0  HIT:          0  MISS:          0
cpu0_ITLB PREFETCH  ACCESS:          0  HIT:          0  MISS:          0
cpu0_ITLB WRITEBACK ACCESS:          0  HIT:          0  MISS:          0
cpu0_ITLB TRANSLATION ACCESS:          0  HIT:          0  MISS:          0
cpu0_ITLB PREFETCH  REQUESTED:          0  ISSUED:          0  USEFUL:          0  USELESS:          0
cpu0_ITLB AVERAGE MISS LATENCY: 231.68 cycles
cpu0_L1I TOTAL     ACCESS:  150998830  HIT:  150981586  MISS:      17244
cpu0_L1I LOAD      ACCESS:  150998830  HIT:  150981586  MISS:      17244
cpu0_L1I RFO       ACCESS:          0  HIT:          0  MISS:          0
cpu0_L1I PREFETCH  ACCESS:          0  HIT:          0  MISS:          0
cpu0_L1I WRITEBACK ACCESS:          0  HIT:          0  MISS:          0
cpu0_L1I TRANSLATION ACCESS:          0  HIT:          0  MISS:          0
cpu0_L1I PREFETCH  REQUESTED:          0  ISSUED:          0  USEFUL:          0  USELESS:          0
cpu0_L1I AVERAGE MISS LATENCY: 23.637 cycles
cpu0_STLB TOTAL     ACCESS:  113025230  HIT:  112842195  MISS:     183035
cpu0_STLB LOAD      ACCESS:  110654738  HIT:  110471734  MISS:     183004
cpu0_STLB RFO       ACCESS:    2370492  HIT:    2370461  MISS:         31
cpu0_STLB PREFETCH  ACCESS:          0  HIT:          0  MISS:          0
cpu0_STLB WRITEBACK ACCESS:          0  HIT:          0  MISS:          0
cpu0_STLB TRANSLATION ACCESS:          0  HIT:          0  MISS:          0
cpu0_STLB PREFETCH  REQUESTED:          0  ISSUED:          0  USEFUL:          0  USELESS:          0
cpu0_STLB AVERAGE MISS LATENCY: 250.633 cycles
cpu0_L1D TOTAL     ACCESS:  420118923  HIT:  247556442  MISS:  172562481
cpu0_L1D LOAD      ACCESS:  252408079  HIT:   86401918  MISS:  166006161
cpu0_L1D RFO       ACCESS:  167529949  HIT:  161136051  MISS:    6393898
cpu0_L1D PREFETCH  ACCESS:          0  HIT:          0  MISS:          0
cpu0_L1D WRITEBACK ACCESS:          0  HIT:          0  MISS:          0
cpu0_L1D TRANSLATION ACCESS:     180895  HIT:      18473  MISS:     162422
cpu0_L1D PREFETCH  REQUESTED:          0  ISSUED:          0  USEFUL:          0  USELESS:          0
cpu0_L1D AVERAGE MISS LATENCY: 80.6968 cycles
cpu0_L2C TOTAL     ACCESS:  183107541  HIT:  163792369  MISS:   19315172
cpu0_L2C LOAD      ACCESS:  165997713  HIT:  146890661  MISS:   19107052
cpu0_L2C RFO       ACCESS:    6379210  HIT:    6216682  MISS:     162528
cpu0_L2C PREFETCH  ACCESS:          0  HIT:          0  MISS:          0
cpu0_L2C WRITEBACK ACCESS:   10568196  HIT:   10567309  MISS:        887
cpu0_L2C TRANSLATION ACCESS:     162422  HIT:     117717  MISS:      44705
cpu0_L2C PREFETCH  REQUESTED:          0  ISSUED:          0  USEFUL:          0  USELESS:          0
cpu0_L2C AVERAGE MISS LATENCY: 603.95 cycles
LLC TOTAL     ACCESS:   21099032  HIT:    9584785  MISS:   11514247
LLC LOAD      ACCESS:   19061119  HIT:    7548914  MISS:   11512205
LLC RFO       ACCESS:     157354  HIT:     156246  MISS:       1108
LLC PREFETCH  ACCESS:          0  HIT:          0  MISS:          0
LLC WRITEBACK ACCESS:    1835854  HIT:    1835073  MISS:        781
LLC TRANSLATION ACCESS:      44705  HIT:      44552  MISS:        153
LLC PREFETCH  REQUESTED:          0  ISSUED:          0  USEFUL:          0  USELESS:          0
LLC AVERAGE MISS LATENCY: 977.99 cycles
~~~~~~~~~~Reuse Distance Profiler output~~~~~~~~~~
0	0	0
1	0	0
2	0	0
3	0	0
4	0	0
5	0	0
6	0	0
7	0	0
8	0	0
9	0	0
10	0	0
11	0	0
12	0	0
13	0	0
14	0	0
15	0	0
16	0	0
17	0	0
18	0	0
19	0	0
20	0	0
21	0	0
22	0	0
23	0	0
24	0	0
25	0	0
26	0	0
27	0	0
28	0	0
29	0	0
30	0	0
31	0	0
32	0	0
33	0	0
34	0	0
35	0	0
36	0	0
37	0	0
38	0	0
39	0	0
40	0	0
41	0	0
42	0	0
43	0	0
44	0	0
45	0	0
46	0	0
47	0	0
48	0	0
49	0	0
50	0	0
51	0	0
52	0	0
53	0	0
54	0	0
55	0	0
56	0	0
57	0	0
58	0	0
59	0	0
60	0	0
61	0	0
62	0	0
63	0	0
64	0	0
66	0	0
68	0	0
70	0	0
72	0	0
74	0	0
76	0	0
78	0	0
80	0	0
82	0	0
84	0	0
86	0	0
88	0	0
90	0	0
92	0	0
94	0	0
96	0	0
98	0	0
100	0	0
102	0	0
104	0	0
106	0	0
108	0	0
110	0	0
112	0	0
114	0	0
116	0	0
118	0	0
120	0	0
122	0	0
124	0	0
126	0	0
128	0	0
132	0	0
136	0	0
140	0	0
144	0	0
148	0	0
152	0	0
156	0	0
160	0	0
164	0	0
168	0	0
172	0	0
176	0	0
180	0	0
184	0	0
188	0	0
192	0	0
196	0	0
200	0	0
204	0	0
208	0	0
212	0	0
216	0	0
220	0	0
224	0	0
228	0	0
232	0	0
236	0	0
240	0	0
244	0	0
248	0	0
252	0	0
256	0	0
264	0	0
272	0	0
280	0	0
288	0	0
296	0	0
304	0	0
312	0	0
320	0	0
328	0	0
336	0	0
344	0	0
352	0	0
360	0	0
368	0	0
376	0	0
384	0	0
392	0	0
400	0	0
408	0	0
416	0	0
424	0	0
432	0	0
440	0	0
448	0	0
456	0	0
464	0	0
472	0	0
480	0	0
488	0	0
496	0	0
504	0	0
512	0	0
528	0	0
544	0	0
560	0	0
576	0	0
592	0	0
608	0	0
624	0	0
640	0	0
656	0	0
672	0	0
688	0	0
704	0	0
720	0	0
736	0	0
752	0	0
768	0	0
784	0	0
800	0	0
816	0	0
832	0	0
848	0	0
864	0	0
880	0	0
896	0	0
912	0	0
928	0	0
944	0	0
960	0	0
976	0	0
992	0	0
1008	0	0
1024	0	0
1056	0	0
1088	0	0
1120	0	0
1152	0	0
1184	0	0
1216	0	0
1248	0	0
1280	0	0
1312	0	0
1344	0	0
1376	0	0
1408	0	0
1440	0	0
1472	0	0
1504	0	0
1536	0	0
1568	0	0
1600	0	0
1632	0	0
1664	0	0
1696	0	0
1728	0	0
1760	0	0
1792	0	0
1824	0	0
1856	0	0
1888	0	0
1920	0	0
1952	0	0
1984	0	0
2016	0	0
2048	0	0
2112	0	0
2176	0	0
2240	0	0
2304	0	0
2368	0	0
2432	0	0
2496	0	0
2560	0	0
2624	0	0
2688	0	0
2752	0	0
2816	0	0
2880	0	0
2944	0	0
3008	0	0
3072	0	0
3136	0	0
3200	0	0
3264	0	0
3328	0	0
3392	0	0
3456	0	0
3520	0	0
3584	0	0
3648	0	0
3712	0	0
3776	0	0
3840	0	0
3904	0	0
3968	0	0
4032	0	0
4096	0	0
4224	0	0
4352	0	0
4480	0	0
4608	0	0
4736	0	0
4864	0	0
4992	0	0
5120	0	0
5248	0	0
5376	0	0
5504	0	0
5632	0	0
5760	0	0
5888	0	0
6016	0	0
6144	0	0
6272	0	0
6400	0	0
6528	0	0
6656	0	0
6784	0	0
6912	0	0
7040	0	0
7168	0	0
7296	0	0
7424	0	0
7552	0	0
7680	0	0
7808	0	0
7936	0	0
8064	0	0
8192	0	0
8448	0	0
8704	0	0
8960	0	0
9216	0	0
9472	0	0
9728	0	0
9984	0	0
10240	0	0
10496	0	0
10752	0	0
11008	0	0
11264	0	0
11520	0	0
11776	0	0
12032	0	0
12288	0	0
12544	0	0
12800	0	0
13056	0	0
13312	0	0
13568	0	0
13824	0	0
14080	0	0
14336	0	0
14592	0	0
14848	0	0
15104	0	0
15360	0	0
15616	0	0
15872	0	0
16128	0	0
16384	0	0
16896	0	0
17408	0	0
17920	0	0
18432	0	0
18944	0	0
19456	0	0
19968	0	0
20480	0	0
20992	0	0
21504	0	0
22016	0	0
22528	0	0
23040	0	0
23552	0	0
24064	0	0
24576	0	0
25088	0	0
25600	0	0
26112	0	0
26624	0	0
27136	0	0
27648	0	0
28160	0	0
28672	0	0
29184	0	0
29696	0	0
30208	0	0
30720	0	0
31232	0	0
31744	0	0
32256	0	0
32768	0	0
33792	0	0
34816	0	0
35840	0	0
36864	0	0
37888	0	0
38912	0	0
39936	0	0
40960	0	0
41984	0	0
43008	0	0
44032	0	0
45056	0	0
46080	0	0
47104	0	0
48128	0	0
49152	0	0
50176	0	0
51200	0	0
52224	0	0
53248	0	0
54272	0	0
55296	0	0
56320	0	0
57344	0	0
58368	0	0
59392	0	0
60416	0	0
61440	0	0
62464	0	0
63488	0	0
64512	0	0
65536	0	0
67584	0	0
69632	0	0
71680	0	0
73728	0	0
75776	0	0
77824	0	0
79872	0	0
81920	0	0
83968	0	0
86016	0	0
88064	0	0
90112	0	0
92160	0	0
94208	0	0
96256	0	0
98304	0	0
100352	0	0
102400	0	0
104448	0	0
106496	0	0
108544	0	0
110592	0	0
112640	0	0
114688	0	0
116736	0	0
118784	0	0
120832	0	0
122880	0	0
124928	0	0
126976	0	0
129024	0	0
131072	0	0
135168	0	0
139264	0	0
143360	0	0
147456	0	0
151552	0	0
155648	0	0
159744	0	0
163840	0	0
167936	0	0
172032	0	0
176128	0	0
180224	0	0
184320	0	0
188416	0	0
192512	0	0
196608	0	0
200704	0	0
204800	0	0
208896	0	0
212992	0	0
217088	0	0
221184	0	0
225280	0	0
229376	0	0
233472	0	0
237568	0	0
241664	0	0
245760	0	0
249856	0	0
253952	0	0
258048	0	0
262144	0	0
270336	0	0
278528	0	0
286720	0	0
294912	0	0
303104	0	0
311296	0	0
319488	0	0
327680	0	0
335872	0	0
344064	0	0
352256	0	0
360448	0	0
368640	0	0
376832	0	0
385024	0	0
393216	0	0
401408	0	0
409600	0	0
417792	0	0
425984	0	0
434176	0	0
442368	0	0
450560	0	0
458752	0	0
466944	0	0
475136	0	0
483328	0	0
491520	0	0
499712	0	0
507904	0	0
516096	0	0
524288	0	0
540672	0	0
557056	0	0
573440	0	0
589824	0	0
606208	0	0
622592	0	0
638976	0	0
655360	0	0
671744	0	0
688128	0	0
704512	0	0
720896	0	0
737280	0	0
753664	0	0
770048	0	0
786432	0	0
802816	0	0
819200	0	0
835584	0	0
851968	0	0
868352	0	0
884736	0	0
901120	0	0
917504	0	0
933888	0	0
950272	0	0
966656	0	0
983040	0	0
999424	0	0
1015808	0	0
1032192	0	0
1048576	0	0
1081344	0	0
1114112	0	0
1146880	0	0
1179648	0	0
1212416	0	0
1245184	0	0
1277952	0	0
1310720	0	0
1343488	0	0
1376256	0	0
1409024	0	0
1441792	0	0
1474560	0	0
1507328	0	0
1540096	0	0
1572864	0	0
1605632	0	0
1638400	0	0
1671168	0	0
1703936	0	0
1736704	0	0
1769472	0	0
1802240	0	0
1835008	0	0
1867776	0	0
1900544	0	0
1933312	0	0
1966080	0	0
1998848	0	0
2031616	0	0
2064384	0	0
2097152	0	0
2162688	0	0
2228224	0	0
2293760	0	0
2359296	0	0
2424832	0	0
2490368	0	0
2555904	0	0
2621440	0	0
2686976	0	0
2752512	0	0
2818048	0	0
2883584	0	0
2949120	0	0
3014656	0	0
3080192	0	0
3145728	0	0
3211264	0	0
3276800	0	0
3342336	0	0
3407872	0	0
3473408	0	0
3538944	0	0
3604480	0	0
3670016	0	0
3735552	0	0
3801088	0	0
3866624	0	0
3932160	0	0
3997696	0	0
4063232	0	0
4128768	0	0
4194304	0	0
4325376	0	0
4456448	0	0
4587520	0	0
4718592	0	0
4849664	0	0
4980736	0	0
5111808	0	0
5242880	0	0
5373952	0	0
5505024	0	0
5636096	0	0
5767168	0	0
5898240	0	0
6029312	0	0
6160384	0	0
6291456	0	0
6422528	0	0
6553600	0	0
6684672	0	0
6815744	0	0
6946816	0	0
7077888	0	0
7208960	0	0
7340032	0	0
7471104	0	0
7602176	0	0
7733248	0	0
7864320	0	0
7995392	0	0
8126464	0	0
8257536	0	0
8388608	0	0
8650752	0	0
8912896	0	0
9175040	0	0
9437184	0	0
9699328	0	0
9961472	0	0
10223616	0	0
10485760	0	0
10747904	0	0
11010048	0	0
11272192	0	0
11534336	0	0
11796480	0	0
12058624	0	0
12320768	0	0
12582912	0	0
12845056	0	0
13107200	0	0
13369344	0	0
13631488	0	0
13893632	0	0
14155776	0	0
14417920	0	0
14680064	0	0
14942208	0	0
15204352	0	0
15466496	0	0
15728640	0	0
15990784	0	0
16252928	0	0
16515072	0	0
16777216	0	0
17301504	0	0
17825792	0	0
18350080	0	0
18874368	0	0
19398656	0	0
19922944	0	0
20447232	0	0
20971520	0	0
21495808	0	0
22020096	0	0
22544384	0	0
23068672	0	0
23592960	0	0
24117248	0	0
24641536	0	0
25165824	0	0
25690112	0	0
26214400	0	0
26738688	0	0
27262976	0	0
27787264	0	0
28311552	0	0
28835840	0	0
29360128	0	0
29884416	0	0
30408704	0	0
30932992	0	0
31457280	0	0
31981568	0	0
32505856	0	0
33030144	0	0
33554432	0	0
34603008	0	0
35651584	0	0
36700160	0	0
37748736	0	0
38797312	0	0
39845888	0	0
40894464	0	0
41943040	0	0
42991616	0	0
44040192	0	0
45088768	0	0
46137344	0	0
47185920	0	0
48234496	0	0
49283072	0	0
50331648	0	0
51380224	0	0
52428800	0	0
53477376	0	0
54525952	0	0
55574528	0	0
56623104	0	0
57671680	0	0
58720256	0	0
59768832	0	0
60817408	0	0
61865984	0	0
62914560	0	0
63963136	0	0
65011712	0	0
66060288	0	0
67108864	0	0
69206016	0	0
71303168	0	0
73400320	0	0
75497472	0	0
77594624	0	0
79691776	0	0
81788928	0	0
83886080	0	0
85983232	0	0
88080384	0	0
90177536	0	0
92274688	0	0
94371840	0	0
96468992	0	0
98566144	0	0
100663296	0	0
102760448	0	0
104857600	0	0
106954752	0	0
109051904	0	0
111149056	0	0
113246208	0	0
115343360	0	0
117440512	0	0
119537664	0	0
121634816	0	0
123731968	0	0
125829120	0	0
127926272	0	0
130023424	0	0
132120576	0	0
134217728	0	0
138412032	0	0
142606336	0	0
146800640	0	0
150994944	0	0
155189248	0	0
159383552	0	0
163577856	0	0
167772160	0	0
171966464	0	0
176160768	0	0
180355072	0	0
184549376	0	0
188743680	0	0
192937984	0	0
197132288	0	0
201326592	0	0
205520896	0	0
209715200	0	0
213909504	0	0
218103808	0	0
222298112	0	0
226492416	0	0
230686720	0	0
234881024	0	0
239075328	0	0
243269632	0	0
247463936	0	0
251658240	0	0
255852544	0	0
260046848	0	0
264241152	0	0
268435456	0	0
276824064	0	0
285212672	0	0
293601280	0	0
301989888	0	0
310378496	0	0
318767104	0	0
327155712	0	0
335544320	0	0
343932928	0	0
352321536	0	0
360710144	0	0
369098752	0	0
377487360	0	0
385875968	0	0
394264576	0	0
402653184	0	0
411041792	0	0
419430400	0	0
427819008	0	0
436207616	0	0
444596224	0	0
452984832	0	0
461373440	0	0
469762048	0	0
478150656	0	0
486539264	0	0
494927872	0	0
503316480	0	0
511705088	0	0
520093696	0	0
528482304	0	0
536870912	0	0
553648128	0	0
570425344	0	0
587202560	0	0
603979776	0	0
620756992	0	0
637534208	0	0
654311424	0	0
671088640	0	0
687865856	0	0
704643072	0	0
721420288	0	0
738197504	0	0
754974720	0	0
771751936	0	0
788529152	0	0
805306368	0	0
822083584	0	0
838860800	0	0
855638016	0	0
872415232	0	0
889192448	0	0
905969664	0	0
922746880	0	0
939524096	0	0
956301312	0	0
973078528	0	0
989855744	0	0
1006632960	0	0
1023410176	0	0
1040187392	0	0
1056964608	0	0
1073741824	0	0
1107296256	0	0
1140850688	0	0
1174405120	0	0
1207959552	0	0
1241513984	0	0
1275068416	0	0
1308622848	0	0
1342177280	0	0
1375731712	0	0
1409286144	0	0
1442840576	0	0
1476395008	0	0
1509949440	0	0
1543503872	0	0
1577058304	0	0
1610612736	0	0
1644167168	0	0
1677721600	0	0
1711276032	0	0
1744830464	0	0
1778384896	0	0
1811939328	0	0
1845493760	0	0
1879048192	0	0
1912602624	0	0
1946157056	0	0
1979711488	0	0
2013265920	0	0
2046820352	0	0
2080374784	0	0
2113929216	0	0
2147483648	0	0
2214592512	0	0
2281701376	0	0
2348810240	0	0
2415919104	0	0
2483027968	0	0
2550136832	0	0
2617245696	0	0
2684354560	0	0
2751463424	0	0
2818572288	0	0
2885681152	0	0
2952790016	0	0
3019898880	0	0
3087007744	0	0
3154116608	0	0
3221225472	0	0
3288334336	0	0
3355443200	0	0
3422552064	0	0
3489660928	0	0
3556769792	0	0
3623878656	0	0
3690987520	0	0
3758096384	0	0
3825205248	0	0
3892314112	0	0
3959422976	0	0
4026531840	0	0
4093640704	0	0
4160749568	0	0
4227858432	0	0
~~~~~~~~~~Reuse Distance Profiler output end~~~~~~~~~~


DRAM Statistics
 CHANNEL 0
 RQ ROW_BUFFER_HIT:        395  ROW_BUFFER_MISS:   11513071
 DBUS AVG_CONGESTED_CYCLE:    3.99993
 WQ ROW_BUFFER_HIT:       1145  ROW_BUFFER_MISS:    1442347  FULL:          0


CPU 0 Branch Prediction Accuracy: 99.5642% MPKI: 0.005288 Average ROB Occupancy at Mispredict: 244.656
Branch type MPKI
BRANCH_DIRECT_JUMP: 2e-05
BRANCH_INDIRECT: 5.66667e-05
BRANCH_CONDITIONAL: 0.004488
BRANCH_DIRECT_CALL: 0.000413333
BRANCH_INDIRECT_CALL: 2e-06
BRANCH_RETURN: 0.000308

