
*** ChampSim Multicore Out-of-Order Simulator ***

Warmup Instructions: 50000000
Simulation Instructions: 1500000000
Number of CPUs: 1
Off-chip DRAM Size: 4 GiB Channels: 1 Width: 64-bit Data Rate: 3200 MT/s

VirtualMemory physical capacity: 8588881920 num_ppages: 2096895
VirtualMemory page size: 4096 log2_page_size: 12

CPU 0 runs traces/619.lbm_s-3766B.champsimtrace.xz
CPU 0 Bimodal branch predictor
Basic BTB sets: 1024 ways: 8 indirect buffer size: 4096 RAS size: 64
Initializing LRU.
Initializing LRU.
Initializing LRU.
Initializing LRU.
Initializing rdLRU.
Initializing LRU.
Initializing LRU.
Heartbeat CPU 0 instructions: 2000001 cycles: 500112 heartbeat IPC: 3.99911 cumulative IPC: 3.99911 (Simulation time: 0 hr 0 min 40 sec) 
Heartbeat CPU 0 instructions: 4000001 cycles: 1000112 heartbeat IPC: 4 cumulative IPC: 3.99955 (Simulation time: 0 hr 1 min 15 sec) 
Heartbeat CPU 0 instructions: 6000001 cycles: 1500112 heartbeat IPC: 4 cumulative IPC: 3.9997 (Simulation time: 0 hr 1 min 49 sec) 
Heartbeat CPU 0 instructions: 8000001 cycles: 2000112 heartbeat IPC: 4 cumulative IPC: 3.99978 (Simulation time: 0 hr 2 min 24 sec) 
Heartbeat CPU 0 instructions: 10000001 cycles: 2500112 heartbeat IPC: 4 cumulative IPC: 3.99982 (Simulation time: 0 hr 2 min 59 sec) 
Heartbeat CPU 0 instructions: 12000001 cycles: 3000112 heartbeat IPC: 4 cumulative IPC: 3.99985 (Simulation time: 0 hr 3 min 30 sec) 
Heartbeat CPU 0 instructions: 14000002 cycles: 3505108 heartbeat IPC: 3.96043 cumulative IPC: 3.99417 (Simulation time: 0 hr 4 min 4 sec) 
Heartbeat CPU 0 instructions: 16000002 cycles: 4005108 heartbeat IPC: 4 cumulative IPC: 3.9949 (Simulation time: 0 hr 4 min 38 sec) 
Heartbeat CPU 0 instructions: 18000002 cycles: 4505108 heartbeat IPC: 4 cumulative IPC: 3.99547 (Simulation time: 0 hr 5 min 12 sec) 
Heartbeat CPU 0 instructions: 20000002 cycles: 5005108 heartbeat IPC: 4 cumulative IPC: 3.99592 (Simulation time: 0 hr 5 min 47 sec) 
Heartbeat CPU 0 instructions: 22000002 cycles: 5505108 heartbeat IPC: 4 cumulative IPC: 3.99629 (Simulation time: 0 hr 6 min 20 sec) 
Heartbeat CPU 0 instructions: 24000002 cycles: 6005108 heartbeat IPC: 4 cumulative IPC: 3.9966 (Simulation time: 0 hr 6 min 56 sec) 
Heartbeat CPU 0 instructions: 26000002 cycles: 6505108 heartbeat IPC: 4 cumulative IPC: 3.99686 (Simulation time: 0 hr 7 min 31 sec) 
Heartbeat CPU 0 instructions: 28000002 cycles: 7005108 heartbeat IPC: 4 cumulative IPC: 3.99708 (Simulation time: 0 hr 8 min 7 sec) 
Heartbeat CPU 0 instructions: 30000002 cycles: 7505108 heartbeat IPC: 4 cumulative IPC: 3.99728 (Simulation time: 0 hr 8 min 44 sec) 
Heartbeat CPU 0 instructions: 32000000 cycles: 8010082 heartbeat IPC: 3.9606 cumulative IPC: 3.99497 (Simulation time: 0 hr 9 min 23 sec) 
Heartbeat CPU 0 instructions: 34000000 cycles: 8510082 heartbeat IPC: 4 cumulative IPC: 3.99526 (Simulation time: 0 hr 10 min 2 sec) 
Heartbeat CPU 0 instructions: 36000000 cycles: 9010082 heartbeat IPC: 4 cumulative IPC: 3.99552 (Simulation time: 0 hr 10 min 37 sec) 
Heartbeat CPU 0 instructions: 38000000 cycles: 9510082 heartbeat IPC: 4 cumulative IPC: 3.99576 (Simulation time: 0 hr 11 min 12 sec) 
Heartbeat CPU 0 instructions: 40000000 cycles: 10010082 heartbeat IPC: 4 cumulative IPC: 3.99597 (Simulation time: 0 hr 11 min 46 sec) 
Heartbeat CPU 0 instructions: 42000000 cycles: 10510082 heartbeat IPC: 4 cumulative IPC: 3.99616 (Simulation time: 0 hr 12 min 18 sec) 
Heartbeat CPU 0 instructions: 44000000 cycles: 11010082 heartbeat IPC: 4 cumulative IPC: 3.99634 (Simulation time: 0 hr 12 min 53 sec) 
Heartbeat CPU 0 instructions: 46000000 cycles: 11510082 heartbeat IPC: 4 cumulative IPC: 3.9965 (Simulation time: 0 hr 13 min 27 sec) 
Heartbeat CPU 0 instructions: 48000000 cycles: 12010082 heartbeat IPC: 4 cumulative IPC: 3.99664 (Simulation time: 0 hr 14 min 1 sec) 
Heartbeat CPU 0 instructions: 50000002 cycles: 12515122 heartbeat IPC: 3.96009 cumulative IPC: 3.99517 (Simulation time: 0 hr 14 min 35 sec) 

Warmup complete CPU 0 instructions: 50000002 cycles: 12515122 (Simulation time: 0 hr 14 min 35 sec) 

Heartbeat CPU 0 instructions: 52000001 cycles: 17261865 heartbeat IPC: 0.421341 cumulative IPC: 0.421341 (Simulation time: 0 hr 16 min 53 sec) 

Region of Interest Statistics
cpu0_DTLB TOTAL     ACCESS:     276950  HIT:     275718  MISS:       1232
cpu0_DTLB LOAD      ACCESS:     146093  HIT:     145926  MISS:        167
cpu0_DTLB RFO       ACCESS:     130857  HIT:     129792  MISS:       1065
cpu0_DTLB PREFETCH  ACCESS:          0  HIT:          0  MISS:          0
cpu0_DTLB WRITEBACK ACCESS:          0  HIT:          0  MISS:          0
cpu0_ITLB TOTAL     ACCESS:       9279  HIT:       9279  MISS:          0
cpu0_ITLB LOAD      ACCESS:       9279  HIT:       9279  MISS:          0
cpu0_ITLB RFO       ACCESS:          0  HIT:          0  MISS:          0
cpu0_ITLB PREFETCH  ACCESS:          0  HIT:          0  MISS:          0
cpu0_ITLB WRITEBACK ACCESS:          0  HIT:          0  MISS:          0
cpu0_L1I TOTAL     ACCESS:      38049  HIT:      38049  MISS:          0
cpu0_L1I LOAD      ACCESS:      38049  HIT:      38049  MISS:          0
cpu0_L1I RFO       ACCESS:          0  HIT:          0  MISS:          0
cpu0_L1I PREFETCH  ACCESS:          0  HIT:          0  MISS:          0
cpu0_L1I WRITEBACK ACCESS:          0  HIT:          0  MISS:          0
cpu0_STLB TOTAL     ACCESS:       1232  HIT:        564  MISS:        668
cpu0_STLB LOAD      ACCESS:        167  HIT:          0  MISS:        167
cpu0_STLB RFO       ACCESS:       1065  HIT:        564  MISS:        501
cpu0_STLB PREFETCH  ACCESS:          0  HIT:          0  MISS:          0
cpu0_STLB WRITEBACK ACCESS:          0  HIT:          0  MISS:          0
cpu0_L1D TOTAL     ACCESS:     411393  HIT:     340860  MISS:      70533
cpu0_L1D LOAD      ACCESS:     113748  HIT:     103063  MISS:      10685
cpu0_L1D RFO       ACCESS:     296977  HIT:     237129  MISS:      59848
cpu0_L1D PREFETCH  ACCESS:          0  HIT:          0  MISS:          0
cpu0_L1D WRITEBACK ACCESS:          0  HIT:          0  MISS:          0
cpu0_L2C TOTAL     ACCESS:     130376  HIT:      86524  MISS:      43852
cpu0_L2C LOAD      ACCESS:      10685  HIT:          0  MISS:      10685
cpu0_L2C RFO       ACCESS:      59848  HIT:      26681  MISS:      33167
cpu0_L2C PREFETCH  ACCESS:          0  HIT:          0  MISS:          0
cpu0_L2C WRITEBACK ACCESS:      59843  HIT:      59843  MISS:          0
LLC TOTAL     ACCESS:      76935  HIT:        869  MISS:      76066
LLC LOAD      ACCESS:      10685  HIT:          0  MISS:      10685
LLC RFO       ACCESS:      33167  HIT:        869  MISS:      32298
LLC PREFETCH  ACCESS:          0  HIT:          0  MISS:          0
LLC WRITEBACK ACCESS:      33083  HIT:          0  MISS:      33083
Heartbeat CPU 0 instructions: 54000000 cycles: 22068310 heartbeat IPC: 0.416108 cumulative IPC: 0.418708 (Simulation time: 0 hr 19 min 17 sec) 

Region of Interest Statistics
cpu0_DTLB TOTAL     ACCESS:     554026  HIT:     551562  MISS:       2464
cpu0_DTLB LOAD      ACCESS:     292314  HIT:     291980  MISS:        334
cpu0_DTLB RFO       ACCESS:     261712  HIT:     259582  MISS:       2130
cpu0_DTLB PREFETCH  ACCESS:          0  HIT:          0  MISS:          0
cpu0_DTLB WRITEBACK ACCESS:          0  HIT:          0  MISS:          0
cpu0_ITLB TOTAL     ACCESS:      18560  HIT:      18560  MISS:          0
cpu0_ITLB LOAD      ACCESS:      18560  HIT:      18560  MISS:          0
cpu0_ITLB RFO       ACCESS:          0  HIT:          0  MISS:          0
cpu0_ITLB PREFETCH  ACCESS:          0  HIT:          0  MISS:          0
cpu0_ITLB WRITEBACK ACCESS:          0  HIT:          0  MISS:          0
cpu0_L1I TOTAL     ACCESS:      76102  HIT:      76102  MISS:          0
cpu0_L1I LOAD      ACCESS:      76102  HIT:      76102  MISS:          0
cpu0_L1I RFO       ACCESS:          0  HIT:          0  MISS:          0
cpu0_L1I PREFETCH  ACCESS:          0  HIT:          0  MISS:          0
cpu0_L1I WRITEBACK ACCESS:          0  HIT:          0  MISS:          0
cpu0_STLB TOTAL     ACCESS:       2464  HIT:       1128  MISS:       1336
cpu0_STLB LOAD      ACCESS:        334  HIT:          0  MISS:        334
cpu0_STLB RFO       ACCESS:       2130  HIT:       1128  MISS:       1002
cpu0_STLB PREFETCH  ACCESS:          0  HIT:          0  MISS:          0
cpu0_STLB WRITEBACK ACCESS:          0  HIT:          0  MISS:          0
cpu0_L1D TOTAL     ACCESS:     823106  HIT:     682023  MISS:     141083
cpu0_L1D LOAD      ACCESS:     227731  HIT:     206356  MISS:      21375
cpu0_L1D RFO       ACCESS:     594039  HIT:     474331  MISS:     119708
cpu0_L1D PREFETCH  ACCESS:          0  HIT:          0  MISS:          0
cpu0_L1D WRITEBACK ACCESS:          0  HIT:          0  MISS:          0
cpu0_L2C TOTAL     ACCESS:     260788  HIT:     172877  MISS:      87911
cpu0_L2C LOAD      ACCESS:      21375  HIT:          0  MISS:      21375
cpu0_L2C RFO       ACCESS:     119708  HIT:      53172  MISS:      66536
cpu0_L2C PREFETCH  ACCESS:          0  HIT:          0  MISS:          0
cpu0_L2C WRITEBACK ACCESS:     119705  HIT:     119705  MISS:          0
LLC TOTAL     ACCESS:     154670  HIT:       1840  MISS:     152830
LLC LOAD      ACCESS:      21375  HIT:          0  MISS:      21375
LLC RFO       ACCESS:      66536  HIT:       1828  MISS:      64708
LLC PREFETCH  ACCESS:          0  HIT:          0  MISS:          0
LLC WRITEBACK ACCESS:      66759  HIT:         12  MISS:      66747
Heartbeat CPU 0 instructions: 56000001 cycles: 26847436 heartbeat IPC: 0.418487 cumulative IPC: 0.418634 (Simulation time: 0 hr 22 min 24 sec) 

Region of Interest Statistics
cpu0_DTLB TOTAL     ACCESS:     831326  HIT:     827630  MISS:       3696
cpu0_DTLB LOAD      ACCESS:     438691  HIT:     438189  MISS:        502
cpu0_DTLB RFO       ACCESS:     392635  HIT:     389441  MISS:       3194
cpu0_DTLB PREFETCH  ACCESS:          0  HIT:          0  MISS:          0
cpu0_DTLB WRITEBACK ACCESS:          0  HIT:          0  MISS:          0
cpu0_ITLB TOTAL     ACCESS:      27872  HIT:      27872  MISS:          0
cpu0_ITLB LOAD      ACCESS:      27872  HIT:      27872  MISS:          0
cpu0_ITLB RFO       ACCESS:          0  HIT:          0  MISS:          0
cpu0_ITLB PREFETCH  ACCESS:          0  HIT:          0  MISS:          0
cpu0_ITLB WRITEBACK ACCESS:          0  HIT:          0  MISS:          0
cpu0_L1I TOTAL     ACCESS:     114186  HIT:     114186  MISS:          0
cpu0_L1I LOAD      ACCESS:     114186  HIT:     114186  MISS:          0
cpu0_L1I RFO       ACCESS:          0  HIT:          0  MISS:          0
cpu0_L1I PREFETCH  ACCESS:          0  HIT:          0  MISS:          0
cpu0_L1I WRITEBACK ACCESS:          0  HIT:          0  MISS:          0
cpu0_STLB TOTAL     ACCESS:       3696  HIT:       1691  MISS:       2005
cpu0_STLB LOAD      ACCESS:        502  HIT:          0  MISS:        502
cpu0_STLB RFO       ACCESS:       3194  HIT:       1691  MISS:       1503
cpu0_STLB PREFETCH  ACCESS:          0  HIT:          0  MISS:          0
cpu0_STLB WRITEBACK ACCESS:          0  HIT:          0  MISS:          0
cpu0_L1D TOTAL     ACCESS:    1234932  HIT:    1023275  MISS:     211657
cpu0_L1D LOAD      ACCESS:     341807  HIT:     309739  MISS:      32068
cpu0_L1D RFO       ACCESS:     891120  HIT:     711531  MISS:     179589
cpu0_L1D PREFETCH  ACCESS:          0  HIT:          0  MISS:          0
cpu0_L1D WRITEBACK ACCESS:          0  HIT:          0  MISS:          0
cpu0_L2C TOTAL     ACCESS:     391245  HIT:     259157  MISS:     132088
cpu0_L2C LOAD      ACCESS:      32068  HIT:          0  MISS:      32068
cpu0_L2C RFO       ACCESS:     179589  HIT:      79569  MISS:     100020
cpu0_L2C PREFETCH  ACCESS:          0  HIT:          0  MISS:          0
cpu0_L2C WRITEBACK ACCESS:     179588  HIT:     179588  MISS:          0
LLC TOTAL     ACCESS:     231952  HIT:       2989  MISS:     228963
LLC LOAD      ACCESS:      32068  HIT:          0  MISS:      32068
LLC RFO       ACCESS:     100020  HIT:       2977  MISS:      97043
LLC PREFETCH  ACCESS:          0  HIT:          0  MISS:          0
LLC WRITEBACK ACCESS:      99864  HIT:         12  MISS:      99852
Heartbeat CPU 0 instructions: 58000004 cycles: 31596626 heartbeat IPC: 0.421125 cumulative IPC: 0.419254 (Simulation time: 0 hr 25 min 27 sec) 

Region of Interest Statistics
cpu0_DTLB TOTAL     ACCESS:    1108439  HIT:    1103511  MISS:       4928
cpu0_DTLB LOAD      ACCESS:     584926  HIT:     584258  MISS:        668
cpu0_DTLB RFO       ACCESS:     523513  HIT:     519253  MISS:       4260
cpu0_DTLB PREFETCH  ACCESS:          0  HIT:          0  MISS:          0
cpu0_DTLB WRITEBACK ACCESS:          0  HIT:          0  MISS:          0
cpu0_ITLB TOTAL     ACCESS:      37151  HIT:      37151  MISS:          0
cpu0_ITLB LOAD      ACCESS:      37151  HIT:      37151  MISS:          0
cpu0_ITLB RFO       ACCESS:          0  HIT:          0  MISS:          0
cpu0_ITLB PREFETCH  ACCESS:          0  HIT:          0  MISS:          0
cpu0_ITLB WRITEBACK ACCESS:          0  HIT:          0  MISS:          0
cpu0_L1I TOTAL     ACCESS:     152261  HIT:     152261  MISS:          0
cpu0_L1I LOAD      ACCESS:     152261  HIT:     152261  MISS:          0
cpu0_L1I RFO       ACCESS:          0  HIT:          0  MISS:          0
cpu0_L1I PREFETCH  ACCESS:          0  HIT:          0  MISS:          0
cpu0_L1I WRITEBACK ACCESS:          0  HIT:          0  MISS:          0
cpu0_STLB TOTAL     ACCESS:       4928  HIT:       2256  MISS:       2672
cpu0_STLB LOAD      ACCESS:        668  HIT:          0  MISS:        668
cpu0_STLB RFO       ACCESS:       4260  HIT:       2256  MISS:       2004
cpu0_STLB PREFETCH  ACCESS:          0  HIT:          0  MISS:          0
cpu0_STLB WRITEBACK ACCESS:          0  HIT:          0  MISS:          0
cpu0_L1D TOTAL     ACCESS:    1646446  HIT:    1364255  MISS:     282191
cpu0_L1D LOAD      ACCESS:     455670  HIT:     412915  MISS:      42755
cpu0_L1D RFO       ACCESS:    1188104  HIT:     948668  MISS:     239436
cpu0_L1D PREFETCH  ACCESS:          0  HIT:          0  MISS:          0
cpu0_L1D WRITEBACK ACCESS:          0  HIT:          0  MISS:          0
cpu0_L2C TOTAL     ACCESS:     521624  HIT:     346005  MISS:     175619
cpu0_L2C LOAD      ACCESS:      42755  HIT:          0  MISS:      42755
cpu0_L2C RFO       ACCESS:     239436  HIT:     106572  MISS:     132864
cpu0_L2C PREFETCH  ACCESS:          0  HIT:          0  MISS:          0
cpu0_L2C WRITEBACK ACCESS:     239433  HIT:     239433  MISS:          0
LLC TOTAL     ACCESS:     308480  HIT:       3579  MISS:     304901
LLC LOAD      ACCESS:      42755  HIT:          0  MISS:      42755
LLC RFO       ACCESS:     132864  HIT:       3567  MISS:     129297
LLC PREFETCH  ACCESS:          0  HIT:          0  MISS:          0
LLC WRITEBACK ACCESS:     132861  HIT:         12  MISS:     132849
Heartbeat CPU 0 instructions: 60000000 cycles: 36336356 heartbeat IPC: 0.421964 cumulative IPC: 0.419793 (Simulation time: 0 hr 28 min 22 sec) 

Region of Interest Statistics
cpu0_DTLB TOTAL     ACCESS:    1385783  HIT:    1379625  MISS:       6158
cpu0_DTLB LOAD      ACCESS:     731359  HIT:     730524  MISS:        835
cpu0_DTLB RFO       ACCESS:     654424  HIT:     649101  MISS:       5323
cpu0_DTLB PREFETCH  ACCESS:          0  HIT:          0  MISS:          0
cpu0_DTLB WRITEBACK ACCESS:          0  HIT:          0  MISS:          0
cpu0_ITLB TOTAL     ACCESS:      46430  HIT:      46430  MISS:          0
cpu0_ITLB LOAD      ACCESS:      46430  HIT:      46430  MISS:          0
cpu0_ITLB RFO       ACCESS:          0  HIT:          0  MISS:          0
cpu0_ITLB PREFETCH  ACCESS:          0  HIT:          0  MISS:          0
cpu0_ITLB WRITEBACK ACCESS:          0  HIT:          0  MISS:          0
cpu0_L1I TOTAL     ACCESS:     190348  HIT:     190348  MISS:          0
cpu0_L1I LOAD      ACCESS:     190348  HIT:     190348  MISS:          0
cpu0_L1I RFO       ACCESS:          0  HIT:          0  MISS:          0
cpu0_L1I PREFETCH  ACCESS:          0  HIT:          0  MISS:          0
cpu0_L1I WRITEBACK ACCESS:          0  HIT:          0  MISS:          0
cpu0_STLB TOTAL     ACCESS:       6158  HIT:       2818  MISS:       3340
cpu0_STLB LOAD      ACCESS:        835  HIT:          0  MISS:        835
cpu0_STLB RFO       ACCESS:       5323  HIT:       2818  MISS:       2505
cpu0_STLB PREFETCH  ACCESS:          0  HIT:          0  MISS:          0
cpu0_STLB WRITEBACK ACCESS:          0  HIT:          0  MISS:          0
cpu0_L1D TOTAL     ACCESS:    2058261  HIT:    1705526  MISS:     352735
cpu0_L1D LOAD      ACCESS:     569787  HIT:     516344  MISS:      53443
cpu0_L1D RFO       ACCESS:    1485134  HIT:    1185843  MISS:     299291
cpu0_L1D PREFETCH  ACCESS:          0  HIT:          0  MISS:          0
cpu0_L1D WRITEBACK ACCESS:          0  HIT:          0  MISS:          0
cpu0_L2C TOTAL     ACCESS:     652025  HIT:     433029  MISS:     218996
cpu0_L2C LOAD      ACCESS:      53443  HIT:          0  MISS:      53443
cpu0_L2C RFO       ACCESS:     299291  HIT:     133739  MISS:     165552
cpu0_L2C PREFETCH  ACCESS:          0  HIT:          0  MISS:          0
cpu0_L2C WRITEBACK ACCESS:     299290  HIT:     299290  MISS:          0
LLC TOTAL     ACCESS:     384582  HIT:       4088  MISS:     380494
LLC LOAD      ACCESS:      53443  HIT:          0  MISS:      53443
LLC RFO       ACCESS:     165552  HIT:       4076  MISS:     161476
LLC PREFETCH  ACCESS:          0  HIT:          0  MISS:          0
LLC WRITEBACK ACCESS:     165586  HIT:         12  MISS:     165574
Heartbeat CPU 0 instructions: 62000004 cycles: 41117453 heartbeat IPC: 0.418315 cumulative IPC: 0.419546 (Simulation time: 0 hr 31 min 22 sec) 

Region of Interest Statistics
cpu0_DTLB TOTAL     ACCESS:    1663022  HIT:    1655630  MISS:       7392
cpu0_DTLB LOAD      ACCESS:     877687  HIT:     876684  MISS:       1003
cpu0_DTLB RFO       ACCESS:     785335  HIT:     778946  MISS:       6389
cpu0_DTLB PREFETCH  ACCESS:          0  HIT:          0  MISS:          0
cpu0_DTLB WRITEBACK ACCESS:          0  HIT:          0  MISS:          0
cpu0_ITLB TOTAL     ACCESS:      55743  HIT:      55743  MISS:          0
cpu0_ITLB LOAD      ACCESS:      55743  HIT:      55743  MISS:          0
cpu0_ITLB RFO       ACCESS:          0  HIT:          0  MISS:          0
cpu0_ITLB PREFETCH  ACCESS:          0  HIT:          0  MISS:          0
cpu0_ITLB WRITEBACK ACCESS:          0  HIT:          0  MISS:          0
cpu0_L1I TOTAL     ACCESS:     228468  HIT:     228468  MISS:          0
cpu0_L1I LOAD      ACCESS:     228468  HIT:     228468  MISS:          0
cpu0_L1I RFO       ACCESS:          0  HIT:          0  MISS:          0
cpu0_L1I PREFETCH  ACCESS:          0  HIT:          0  MISS:          0
cpu0_L1I WRITEBACK ACCESS:          0  HIT:          0  MISS:          0
cpu0_STLB TOTAL     ACCESS:       7392  HIT:       3383  MISS:       4009
cpu0_STLB LOAD      ACCESS:       1003  HIT:          0  MISS:       1003
cpu0_STLB RFO       ACCESS:       6389  HIT:       3383  MISS:       3006
cpu0_STLB PREFETCH  ACCESS:          0  HIT:          0  MISS:          0
cpu0_STLB WRITEBACK ACCESS:          0  HIT:          0  MISS:          0
cpu0_L1D TOTAL     ACCESS:    2469910  HIT:    2046592  MISS:     423318
cpu0_L1D LOAD      ACCESS:     683707  HIT:     619570  MISS:      64137
cpu0_L1D RFO       ACCESS:    1782194  HIT:    1423014  MISS:     359180
cpu0_L1D PREFETCH  ACCESS:          0  HIT:          0  MISS:          0
cpu0_L1D WRITEBACK ACCESS:          0  HIT:          0  MISS:          0
cpu0_L2C TOTAL     ACCESS:     782495  HIT:     519662  MISS:     262833
cpu0_L2C LOAD      ACCESS:      64137  HIT:          0  MISS:      64137
cpu0_L2C RFO       ACCESS:     359180  HIT:     160485  MISS:     198695
cpu0_L2C PREFETCH  ACCESS:          0  HIT:          0  MISS:          0
cpu0_L2C WRITEBACK ACCESS:     359177  HIT:     359177  MISS:          0
LLC TOTAL     ACCESS:     461646  HIT:       4887  MISS:     456759
LLC LOAD      ACCESS:      64138  HIT:          0  MISS:      64138
LLC RFO       ACCESS:     198695  HIT:       4863  MISS:     193832
LLC PREFETCH  ACCESS:          0  HIT:          0  MISS:          0
LLC WRITEBACK ACCESS:     198812  HIT:         24  MISS:     198788
Heartbeat CPU 0 instructions: 64000002 cycles: 45901606 heartbeat IPC: 0.418046 cumulative IPC: 0.419331 (Simulation time: 0 hr 34 min 24 sec) 

Region of Interest Statistics
cpu0_DTLB TOTAL     ACCESS:    1940242  HIT:    1931619  MISS:       8623
cpu0_DTLB LOAD      ACCESS:    1024001  HIT:    1022831  MISS:       1170
cpu0_DTLB RFO       ACCESS:     916241  HIT:     908788  MISS:       7453
cpu0_DTLB PREFETCH  ACCESS:          0  HIT:          0  MISS:          0
cpu0_DTLB WRITEBACK ACCESS:          0  HIT:          0  MISS:          0
cpu0_ITLB TOTAL     ACCESS:      65023  HIT:      65023  MISS:          0
cpu0_ITLB LOAD      ACCESS:      65023  HIT:      65023  MISS:          0
cpu0_ITLB RFO       ACCESS:          0  HIT:          0  MISS:          0
cpu0_ITLB PREFETCH  ACCESS:          0  HIT:          0  MISS:          0
cpu0_ITLB WRITEBACK ACCESS:          0  HIT:          0  MISS:          0
cpu0_L1I TOTAL     ACCESS:     266542  HIT:     266542  MISS:          0
cpu0_L1I LOAD      ACCESS:     266542  HIT:     266542  MISS:          0
cpu0_L1I RFO       ACCESS:          0  HIT:          0  MISS:          0
cpu0_L1I PREFETCH  ACCESS:          0  HIT:          0  MISS:          0
cpu0_L1I WRITEBACK ACCESS:          0  HIT:          0  MISS:          0
cpu0_STLB TOTAL     ACCESS:       8623  HIT:       3946  MISS:       4677
cpu0_STLB LOAD      ACCESS:       1170  HIT:          0  MISS:       1170
cpu0_STLB RFO       ACCESS:       7453  HIT:       3946  MISS:       3507
cpu0_STLB PREFETCH  ACCESS:          0  HIT:          0  MISS:          0
cpu0_STLB WRITEBACK ACCESS:          0  HIT:          0  MISS:          0
cpu0_L1D TOTAL     ACCESS:    2881505  HIT:    2387651  MISS:     493854
cpu0_L1D LOAD      ACCESS:     797676  HIT:     722851  MISS:      74825
cpu0_L1D RFO       ACCESS:    2079223  HIT:    1660195  MISS:     419028
cpu0_L1D PREFETCH  ACCESS:          0  HIT:          0  MISS:          0
cpu0_L1D WRITEBACK ACCESS:          0  HIT:          0  MISS:          0
cpu0_L2C TOTAL     ACCESS:     912878  HIT:     606252  MISS:     306626
cpu0_L2C LOAD      ACCESS:      74825  HIT:          0  MISS:      74825
cpu0_L2C RFO       ACCESS:     419028  HIT:     187228  MISS:     231800
cpu0_L2C PREFETCH  ACCESS:          0  HIT:          0  MISS:          0
cpu0_L2C WRITEBACK ACCESS:     419024  HIT:     419024  MISS:          0
LLC TOTAL     ACCESS:     538205  HIT:       5611  MISS:     532594
LLC LOAD      ACCESS:      74825  HIT:          0  MISS:      74825
LLC RFO       ACCESS:     231800  HIT:       5587  MISS:     226213
LLC PREFETCH  ACCESS:          0  HIT:          0  MISS:          0
LLC WRITEBACK ACCESS:     231579  HIT:         24  MISS:     231555
Heartbeat CPU 0 instructions: 66000000 cycles: 50751017 heartbeat IPC: 0.412421 cumulative IPC: 0.418455 (Simulation time: 0 hr 37 min 26 sec) 

Region of Interest Statistics
cpu0_DTLB TOTAL     ACCESS:    2217462  HIT:    2207607  MISS:       9855
cpu0_DTLB LOAD      ACCESS:    1170311  HIT:    1168974  MISS:       1337
cpu0_DTLB RFO       ACCESS:    1047151  HIT:    1038633  MISS:       8518
cpu0_DTLB PREFETCH  ACCESS:          0  HIT:          0  MISS:          0
cpu0_DTLB WRITEBACK ACCESS:          0  HIT:          0  MISS:          0
cpu0_ITLB TOTAL     ACCESS:      74341  HIT:      74341  MISS:          0
cpu0_ITLB LOAD      ACCESS:      74341  HIT:      74341  MISS:          0
cpu0_ITLB RFO       ACCESS:          0  HIT:          0  MISS:          0
cpu0_ITLB PREFETCH  ACCESS:          0  HIT:          0  MISS:          0
cpu0_ITLB WRITEBACK ACCESS:          0  HIT:          0  MISS:          0
cpu0_L1I TOTAL     ACCESS:     304632  HIT:     304632  MISS:          0
cpu0_L1I LOAD      ACCESS:     304632  HIT:     304632  MISS:          0
cpu0_L1I RFO       ACCESS:          0  HIT:          0  MISS:          0
cpu0_L1I PREFETCH  ACCESS:          0  HIT:          0  MISS:          0
cpu0_L1I WRITEBACK ACCESS:          0  HIT:          0  MISS:          0
cpu0_STLB TOTAL     ACCESS:       9855  HIT:       4510  MISS:       5345
cpu0_STLB LOAD      ACCESS:       1337  HIT:          0  MISS:       1337
cpu0_STLB RFO       ACCESS:       8518  HIT:       4510  MISS:       4008
cpu0_STLB PREFETCH  ACCESS:          0  HIT:          0  MISS:          0
cpu0_STLB WRITEBACK ACCESS:          0  HIT:          0  MISS:          0
cpu0_L1D TOTAL     ACCESS:    3292917  HIT:    2728495  MISS:     564422
cpu0_L1D LOAD      ACCESS:     911582  HIT:     826064  MISS:      85518
cpu0_L1D RFO       ACCESS:    2376223  HIT:    1897320  MISS:     478903
cpu0_L1D PREFETCH  ACCESS:          0  HIT:          0  MISS:          0
cpu0_L1D WRITEBACK ACCESS:          0  HIT:          0  MISS:          0
cpu0_L2C TOTAL     ACCESS:    1043324  HIT:     692213  MISS:     351111
cpu0_L2C LOAD      ACCESS:      85518  HIT:          0  MISS:      85518
cpu0_L2C RFO       ACCESS:     478903  HIT:     213311  MISS:     265592
cpu0_L2C PREFETCH  ACCESS:          0  HIT:          0  MISS:          0
cpu0_L2C WRITEBACK ACCESS:     478902  HIT:     478902  MISS:          0
LLC TOTAL     ACCESS:     616794  HIT:       6919  MISS:     609875
LLC LOAD      ACCESS:      85518  HIT:          0  MISS:      85518
LLC RFO       ACCESS:     265592  HIT:       6895  MISS:     258697
LLC PREFETCH  ACCESS:          0  HIT:          0  MISS:          0
LLC WRITEBACK ACCESS:     265683  HIT:         24  MISS:     265659
Heartbeat CPU 0 instructions: 68000001 cycles: 55476245 heartbeat IPC: 0.42326 cumulative IPC: 0.418983 (Simulation time: 0 hr 40 min 23 sec) 

Region of Interest Statistics
cpu0_DTLB TOTAL     ACCESS:    2494660  HIT:    2483573  MISS:      11087
cpu0_DTLB LOAD      ACCESS:    1316609  HIT:    1315105  MISS:       1504
cpu0_DTLB RFO       ACCESS:    1178051  HIT:    1168468  MISS:       9583
cpu0_DTLB PREFETCH  ACCESS:          0  HIT:          0  MISS:          0
cpu0_DTLB WRITEBACK ACCESS:          0  HIT:          0  MISS:          0
cpu0_ITLB TOTAL     ACCESS:      83614  HIT:      83614  MISS:          0
cpu0_ITLB LOAD      ACCESS:      83614  HIT:      83614  MISS:          0
cpu0_ITLB RFO       ACCESS:          0  HIT:          0  MISS:          0
cpu0_ITLB PREFETCH  ACCESS:          0  HIT:          0  MISS:          0
cpu0_ITLB WRITEBACK ACCESS:          0  HIT:          0  MISS:          0
cpu0_L1I TOTAL     ACCESS:     342691  HIT:     342691  MISS:          0
cpu0_L1I LOAD      ACCESS:     342691  HIT:     342691  MISS:          0
cpu0_L1I RFO       ACCESS:          0  HIT:          0  MISS:          0
cpu0_L1I PREFETCH  ACCESS:          0  HIT:          0  MISS:          0
cpu0_L1I WRITEBACK ACCESS:          0  HIT:          0  MISS:          0
cpu0_STLB TOTAL     ACCESS:      11087  HIT:       5074  MISS:       6013
cpu0_STLB LOAD      ACCESS:       1504  HIT:          0  MISS:       1504
cpu0_STLB RFO       ACCESS:       9583  HIT:       5074  MISS:       4509
cpu0_STLB PREFETCH  ACCESS:          0  HIT:          0  MISS:          0
cpu0_STLB WRITEBACK ACCESS:          0  HIT:          0  MISS:          0
cpu0_L1D TOTAL     ACCESS:    3704474  HIT:    3069513  MISS:     634961
cpu0_L1D LOAD      ACCESS:    1025578  HIT:     929373  MISS:      96205
cpu0_L1D RFO       ACCESS:    2673280  HIT:    2134525  MISS:     538755
cpu0_L1D PREFETCH  ACCESS:          0  HIT:          0  MISS:          0
cpu0_L1D WRITEBACK ACCESS:          0  HIT:          0  MISS:          0
cpu0_L2C TOTAL     ACCESS:    1173713  HIT:     779062  MISS:     394651
cpu0_L2C LOAD      ACCESS:      96205  HIT:          0  MISS:      96205
cpu0_L2C RFO       ACCESS:     538755  HIT:     240310  MISS:     298445
cpu0_L2C PREFETCH  ACCESS:          0  HIT:          0  MISS:          0
cpu0_L2C WRITEBACK ACCESS:     538752  HIT:     538752  MISS:          0
LLC TOTAL     ACCESS:     692998  HIT:       7531  MISS:     685467
LLC LOAD      ACCESS:      96205  HIT:          0  MISS:      96205
LLC RFO       ACCESS:     298445  HIT:       7507  MISS:     290938
LLC PREFETCH  ACCESS:          0  HIT:          0  MISS:          0
LLC WRITEBACK ACCESS:     298347  HIT:         24  MISS:     298323
Heartbeat CPU 0 instructions: 70000004 cycles: 60546898 heartbeat IPC: 0.394427 cumulative IPC: 0.416391 (Simulation time: 0 hr 43 min 29 sec) 

Region of Interest Statistics
cpu0_DTLB TOTAL     ACCESS:    2777677  HIT:    2765255  MISS:      12422
cpu0_DTLB LOAD      ACCESS:    1464133  HIT:    1462447  MISS:       1686
cpu0_DTLB RFO       ACCESS:    1313544  HIT:    1302808  MISS:      10736
cpu0_DTLB PREFETCH  ACCESS:          0  HIT:          0  MISS:          0
cpu0_DTLB WRITEBACK ACCESS:          0  HIT:          0  MISS:          0
cpu0_ITLB TOTAL     ACCESS:      93620  HIT:      93620  MISS:          0
cpu0_ITLB LOAD      ACCESS:      93620  HIT:      93620  MISS:          0
cpu0_ITLB RFO       ACCESS:          0  HIT:          0  MISS:          0
cpu0_ITLB PREFETCH  ACCESS:          0  HIT:          0  MISS:          0
cpu0_ITLB WRITEBACK ACCESS:          0  HIT:          0  MISS:          0
cpu0_L1I TOTAL     ACCESS:     383011  HIT:     383011  MISS:          0
cpu0_L1I LOAD      ACCESS:     383011  HIT:     383011  MISS:          0
cpu0_L1I RFO       ACCESS:          0  HIT:          0  MISS:          0
cpu0_L1I PREFETCH  ACCESS:          0  HIT:          0  MISS:          0
cpu0_L1I WRITEBACK ACCESS:          0  HIT:          0  MISS:          0
cpu0_STLB TOTAL     ACCESS:      12422  HIT:       5682  MISS:       6740
cpu0_STLB LOAD      ACCESS:       1686  HIT:          0  MISS:       1686
cpu0_STLB RFO       ACCESS:      10736  HIT:       5682  MISS:       5054
cpu0_STLB PREFETCH  ACCESS:          0  HIT:          0  MISS:          0
cpu0_STLB WRITEBACK ACCESS:          0  HIT:          0  MISS:          0
cpu0_L1D TOTAL     ACCESS:    4120833  HIT:    3409344  MISS:     711489
cpu0_L1D LOAD      ACCESS:    1139583  HIT:    1031782  MISS:     107801
cpu0_L1D RFO       ACCESS:    2975085  HIT:    2371400  MISS:     603685
cpu0_L1D PREFETCH  ACCESS:          0  HIT:          0  MISS:          0
cpu0_L1D WRITEBACK ACCESS:          0  HIT:          0  MISS:          0
cpu0_L2C TOTAL     ACCESS:    1315167  HIT:     873524  MISS:     441643
cpu0_L2C LOAD      ACCESS:     107801  HIT:          0  MISS:     107801
cpu0_L2C RFO       ACCESS:     603685  HIT:     269852  MISS:     333833
cpu0_L2C PREFETCH  ACCESS:          0  HIT:          0  MISS:          0
cpu0_L2C WRITEBACK ACCESS:     603678  HIT:     603672  MISS:          6
LLC TOTAL     ACCESS:     775301  HIT:       8006  MISS:     767295
LLC LOAD      ACCESS:     107801  HIT:          0  MISS:     107801
LLC RFO       ACCESS:     333833  HIT:       7982  MISS:     325851
LLC PREFETCH  ACCESS:          0  HIT:          0  MISS:          0
LLC WRITEBACK ACCESS:     333664  HIT:         24  MISS:     333640
Heartbeat CPU 0 instructions: 72000004 cycles: 65304775 heartbeat IPC: 0.420356 cumulative IPC: 0.416748 (Simulation time: 0 hr 46 min 22 sec) 

Region of Interest Statistics
cpu0_DTLB TOTAL     ACCESS:    3054847  HIT:    3041191  MISS:      13656
cpu0_DTLB LOAD      ACCESS:    1610384  HIT:    1608531  MISS:       1853
cpu0_DTLB RFO       ACCESS:    1444463  HIT:    1432660  MISS:      11803
cpu0_DTLB PREFETCH  ACCESS:          0  HIT:          0  MISS:          0
cpu0_DTLB WRITEBACK ACCESS:          0  HIT:          0  MISS:          0
cpu0_ITLB TOTAL     ACCESS:     102938  HIT:     102938  MISS:          0
cpu0_ITLB LOAD      ACCESS:     102938  HIT:     102938  MISS:          0
cpu0_ITLB RFO       ACCESS:          0  HIT:          0  MISS:          0
cpu0_ITLB PREFETCH  ACCESS:          0  HIT:          0  MISS:          0
cpu0_ITLB WRITEBACK ACCESS:          0  HIT:          0  MISS:          0
cpu0_L1I TOTAL     ACCESS:     421062  HIT:     421062  MISS:          0
cpu0_L1I LOAD      ACCESS:     421062  HIT:     421062  MISS:          0
cpu0_L1I RFO       ACCESS:          0  HIT:          0  MISS:          0
cpu0_L1I PREFETCH  ACCESS:          0  HIT:          0  MISS:          0
cpu0_L1I WRITEBACK ACCESS:          0  HIT:          0  MISS:          0
cpu0_STLB TOTAL     ACCESS:      13656  HIT:       6248  MISS:       7408
cpu0_STLB LOAD      ACCESS:       1853  HIT:          0  MISS:       1853
cpu0_STLB RFO       ACCESS:      11803  HIT:       6248  MISS:       5555
cpu0_STLB PREFETCH  ACCESS:          0  HIT:          0  MISS:          0
cpu0_STLB WRITEBACK ACCESS:          0  HIT:          0  MISS:          0
cpu0_L1D TOTAL     ACCESS:    4532340  HIT:    3750291  MISS:     782049
cpu0_L1D LOAD      ACCESS:    1253530  HIT:    1135034  MISS:     118496
cpu0_L1D RFO       ACCESS:    3272140  HIT:    2608590  MISS:     663550
cpu0_L1D PREFETCH  ACCESS:          0  HIT:          0  MISS:          0
cpu0_L1D WRITEBACK ACCESS:          0  HIT:          0  MISS:          0
cpu0_L2C TOTAL     ACCESS:    1445596  HIT:     960419  MISS:     485177
cpu0_L2C LOAD      ACCESS:     118496  HIT:          0  MISS:     118496
cpu0_L2C RFO       ACCESS:     663550  HIT:     296878  MISS:     366672
cpu0_L2C PREFETCH  ACCESS:          0  HIT:          0  MISS:          0
cpu0_L2C WRITEBACK ACCESS:     663547  HIT:     663541  MISS:          6
LLC TOTAL     ACCESS:     851746  HIT:       8596  MISS:     843150
LLC LOAD      ACCESS:     118496  HIT:          0  MISS:     118496
LLC RFO       ACCESS:     366672  HIT:       8572  MISS:     358100
LLC PREFETCH  ACCESS:          0  HIT:          0  MISS:          0
LLC WRITEBACK ACCESS:     366575  HIT:         24  MISS:     366551
Heartbeat CPU 0 instructions: 74000002 cycles: 70054777 heartbeat IPC: 0.421052 cumulative IPC: 0.417104 (Simulation time: 0 hr 49 min 14 sec) 

Region of Interest Statistics
cpu0_DTLB TOTAL     ACCESS:    3332157  HIT:    3317270  MISS:      14887
cpu0_DTLB LOAD      ACCESS:    1756791  HIT:    1754771  MISS:       2020
cpu0_DTLB RFO       ACCESS:    1575366  HIT:    1562499  MISS:      12867
cpu0_DTLB PREFETCH  ACCESS:          0  HIT:          0  MISS:          0
cpu0_DTLB WRITEBACK ACCESS:          0  HIT:          0  MISS:          0
cpu0_ITLB TOTAL     ACCESS:     112213  HIT:     112213  MISS:          0
cpu0_ITLB LOAD      ACCESS:     112213  HIT:     112213  MISS:          0
cpu0_ITLB RFO       ACCESS:          0  HIT:          0  MISS:          0
cpu0_ITLB PREFETCH  ACCESS:          0  HIT:          0  MISS:          0
cpu0_ITLB WRITEBACK ACCESS:          0  HIT:          0  MISS:          0
cpu0_L1I TOTAL     ACCESS:     459142  HIT:     459142  MISS:          0
cpu0_L1I LOAD      ACCESS:     459142  HIT:     459142  MISS:          0
cpu0_L1I RFO       ACCESS:          0  HIT:          0  MISS:          0
cpu0_L1I PREFETCH  ACCESS:          0  HIT:          0  MISS:          0
cpu0_L1I WRITEBACK ACCESS:          0  HIT:          0  MISS:          0
cpu0_STLB TOTAL     ACCESS:      14887  HIT:       6811  MISS:       8076
cpu0_STLB LOAD      ACCESS:       2020  HIT:          0  MISS:       2020
cpu0_STLB RFO       ACCESS:      12867  HIT:       6811  MISS:       6056
cpu0_STLB PREFETCH  ACCESS:          0  HIT:          0  MISS:          0
cpu0_STLB WRITEBACK ACCESS:          0  HIT:          0  MISS:          0
cpu0_L1D TOTAL     ACCESS:    4943947  HIT:    4091337  MISS:     852610
cpu0_L1D LOAD      ACCESS:    1367587  HIT:    1238404  MISS:     129183
cpu0_L1D RFO       ACCESS:    3569187  HIT:    2845763  MISS:     723424
cpu0_L1D PREFETCH  ACCESS:          0  HIT:          0  MISS:          0
cpu0_L1D WRITEBACK ACCESS:          0  HIT:          0  MISS:          0
cpu0_L2C TOTAL     ACCESS:    1576029  HIT:    1047178  MISS:     528851
cpu0_L2C LOAD      ACCESS:     129183  HIT:          0  MISS:     129183
cpu0_L2C RFO       ACCESS:     723424  HIT:     323765  MISS:     399659
cpu0_L2C PREFETCH  ACCESS:          0  HIT:          0  MISS:          0
cpu0_L2C WRITEBACK ACCESS:     723419  HIT:     723413  MISS:          6
LLC TOTAL     ACCESS:     928552  HIT:       9316  MISS:     919236
LLC LOAD      ACCESS:     129183  HIT:          0  MISS:     129183
LLC RFO       ACCESS:     399659  HIT:       9292  MISS:     390367
LLC PREFETCH  ACCESS:          0  HIT:          0  MISS:          0
LLC WRITEBACK ACCESS:     399707  HIT:         24  MISS:     399683
Heartbeat CPU 0 instructions: 76000001 cycles: 74789065 heartbeat IPC: 0.42245 cumulative IPC: 0.41751 (Simulation time: 0 hr 51 min 56 sec) 

Region of Interest Statistics
cpu0_DTLB TOTAL     ACCESS:    3609247  HIT:    3593128  MISS:      16119
cpu0_DTLB LOAD      ACCESS:    1902987  HIT:    1900800  MISS:       2187
cpu0_DTLB RFO       ACCESS:    1706260  HIT:    1692328  MISS:      13932
cpu0_DTLB PREFETCH  ACCESS:          0  HIT:          0  MISS:          0
cpu0_DTLB WRITEBACK ACCESS:          0  HIT:          0  MISS:          0
cpu0_ITLB TOTAL     ACCESS:     121492  HIT:     121492  MISS:          0
cpu0_ITLB LOAD      ACCESS:     121492  HIT:     121492  MISS:          0
cpu0_ITLB RFO       ACCESS:          0  HIT:          0  MISS:          0
cpu0_ITLB PREFETCH  ACCESS:          0  HIT:          0  MISS:          0
cpu0_ITLB WRITEBACK ACCESS:          0  HIT:          0  MISS:          0
cpu0_L1I TOTAL     ACCESS:     497189  HIT:     497189  MISS:          0
cpu0_L1I LOAD      ACCESS:     497189  HIT:     497189  MISS:          0
cpu0_L1I RFO       ACCESS:          0  HIT:          0  MISS:          0
cpu0_L1I PREFETCH  ACCESS:          0  HIT:          0  MISS:          0
cpu0_L1I WRITEBACK ACCESS:          0  HIT:          0  MISS:          0
cpu0_STLB TOTAL     ACCESS:      16119  HIT:       7375  MISS:       8744
cpu0_STLB LOAD      ACCESS:       2187  HIT:          0  MISS:       2187
cpu0_STLB RFO       ACCESS:      13932  HIT:       7375  MISS:       6557
cpu0_STLB PREFETCH  ACCESS:          0  HIT:          0  MISS:          0
cpu0_STLB WRITEBACK ACCESS:          0  HIT:          0  MISS:          0
cpu0_L1D TOTAL     ACCESS:    5355381  HIT:    4432230  MISS:     923151
cpu0_L1D LOAD      ACCESS:    1481410  HIT:    1341539  MISS:     139871
cpu0_L1D RFO       ACCESS:    3866179  HIT:    3082904  MISS:     783275
cpu0_L1D PREFETCH  ACCESS:          0  HIT:          0  MISS:          0
cpu0_L1D WRITEBACK ACCESS:          0  HIT:          0  MISS:          0
cpu0_L2C TOTAL     ACCESS:    1706423  HIT:    1133911  MISS:     572512
cpu0_L2C LOAD      ACCESS:     139871  HIT:          0  MISS:     139871
cpu0_L2C RFO       ACCESS:     783275  HIT:     350645  MISS:     432630
cpu0_L2C PREFETCH  ACCESS:          0  HIT:          0  MISS:          0
cpu0_L2C WRITEBACK ACCESS:     783272  HIT:     783266  MISS:          6
LLC TOTAL     ACCESS:    1004955  HIT:       9982  MISS:     994973
LLC LOAD      ACCESS:     139871  HIT:          0  MISS:     139871
LLC RFO       ACCESS:     432630  HIT:       9958  MISS:     422672
LLC PREFETCH  ACCESS:          0  HIT:          0  MISS:          0
LLC WRITEBACK ACCESS:     432449  HIT:         24  MISS:     432425
Heartbeat CPU 0 instructions: 78000002 cycles: 79572510 heartbeat IPC: 0.418109 cumulative IPC: 0.417553 (Simulation time: 0 hr 54 min 46 sec) 

Region of Interest Statistics
cpu0_DTLB TOTAL     ACCESS:    3886232  HIT:    3868882  MISS:      17350
cpu0_DTLB LOAD      ACCESS:    2049065  HIT:    2046711  MISS:       2354
cpu0_DTLB RFO       ACCESS:    1837167  HIT:    1822171  MISS:      14996
cpu0_DTLB PREFETCH  ACCESS:          0  HIT:          0  MISS:          0
cpu0_DTLB WRITEBACK ACCESS:          0  HIT:          0  MISS:          0
cpu0_ITLB TOTAL     ACCESS:     130810  HIT:     130810  MISS:          0
cpu0_ITLB LOAD      ACCESS:     130810  HIT:     130810  MISS:          0
cpu0_ITLB RFO       ACCESS:          0  HIT:          0  MISS:          0
cpu0_ITLB PREFETCH  ACCESS:          0  HIT:          0  MISS:          0
cpu0_ITLB WRITEBACK ACCESS:          0  HIT:          0  MISS:          0
cpu0_L1I TOTAL     ACCESS:     535239  HIT:     535239  MISS:          0
cpu0_L1I LOAD      ACCESS:     535239  HIT:     535239  MISS:          0
cpu0_L1I RFO       ACCESS:          0  HIT:          0  MISS:          0
cpu0_L1I PREFETCH  ACCESS:          0  HIT:          0  MISS:          0
cpu0_L1I WRITEBACK ACCESS:          0  HIT:          0  MISS:          0
cpu0_STLB TOTAL     ACCESS:      17350  HIT:       7938  MISS:       9412
cpu0_STLB LOAD      ACCESS:       2354  HIT:          0  MISS:       2354
cpu0_STLB RFO       ACCESS:      14996  HIT:       7938  MISS:       7058
cpu0_STLB PREFETCH  ACCESS:          0  HIT:          0  MISS:          0
cpu0_STLB WRITEBACK ACCESS:          0  HIT:          0  MISS:          0
cpu0_L1D TOTAL     ACCESS:    5766724  HIT:    4773007  MISS:     993717
cpu0_L1D LOAD      ACCESS:    1595046  HIT:    1444483  MISS:     150563
cpu0_L1D RFO       ACCESS:    4163218  HIT:    3320069  MISS:     843149
cpu0_L1D PREFETCH  ACCESS:          0  HIT:          0  MISS:          0
cpu0_L1D WRITEBACK ACCESS:          0  HIT:          0  MISS:          0
cpu0_L2C TOTAL     ACCESS:    1836861  HIT:    1220606  MISS:     616255
cpu0_L2C LOAD      ACCESS:     150563  HIT:          0  MISS:     150563
cpu0_L2C RFO       ACCESS:     843149  HIT:     377468  MISS:     465681
cpu0_L2C PREFETCH  ACCESS:          0  HIT:          0  MISS:          0
cpu0_L2C WRITEBACK ACCESS:     843144  HIT:     843138  MISS:          6
LLC TOTAL     ACCESS:    1081738  HIT:      10652  MISS:    1071086
LLC LOAD      ACCESS:     150563  HIT:          0  MISS:     150563
LLC RFO       ACCESS:     465681  HIT:      10628  MISS:     455053
LLC PREFETCH  ACCESS:          0  HIT:          0  MISS:          0
LLC WRITEBACK ACCESS:     465489  HIT:         24  MISS:     465465
Heartbeat CPU 0 instructions: 80000001 cycles: 84340866 heartbeat IPC: 0.419432 cumulative IPC: 0.417678 (Simulation time: 0 hr 57 min 46 sec) 

Region of Interest Statistics
cpu0_DTLB TOTAL     ACCESS:    4163292  HIT:    4144710  MISS:      18582
cpu0_DTLB LOAD      ACCESS:    2195253  HIT:    2192732  MISS:       2521
cpu0_DTLB RFO       ACCESS:    1968039  HIT:    1951978  MISS:      16061
cpu0_DTLB PREFETCH  ACCESS:          0  HIT:          0  MISS:          0
cpu0_DTLB WRITEBACK ACCESS:          0  HIT:          0  MISS:          0
cpu0_ITLB TOTAL     ACCESS:     140083  HIT:     140083  MISS:          0
cpu0_ITLB LOAD      ACCESS:     140083  HIT:     140083  MISS:          0
cpu0_ITLB RFO       ACCESS:          0  HIT:          0  MISS:          0
cpu0_ITLB PREFETCH  ACCESS:          0  HIT:          0  MISS:          0
cpu0_ITLB WRITEBACK ACCESS:          0  HIT:          0  MISS:          0
cpu0_L1I TOTAL     ACCESS:     573307  HIT:     573307  MISS:          0
cpu0_L1I LOAD      ACCESS:     573307  HIT:     573307  MISS:          0
cpu0_L1I RFO       ACCESS:          0  HIT:          0  MISS:          0
cpu0_L1I PREFETCH  ACCESS:          0  HIT:          0  MISS:          0
cpu0_L1I WRITEBACK ACCESS:          0  HIT:          0  MISS:          0
cpu0_STLB TOTAL     ACCESS:      18582  HIT:       8502  MISS:      10080
cpu0_STLB LOAD      ACCESS:       2521  HIT:          0  MISS:       2521
cpu0_STLB RFO       ACCESS:      16061  HIT:       8502  MISS:       7559
cpu0_STLB PREFETCH  ACCESS:          0  HIT:          0  MISS:          0
cpu0_STLB WRITEBACK ACCESS:          0  HIT:          0  MISS:          0
cpu0_L1D TOTAL     ACCESS:    6178247  HIT:    5113986  MISS:    1064261
cpu0_L1D LOAD      ACCESS:    1708895  HIT:    1547644  MISS:     161251
cpu0_L1D RFO       ACCESS:    4460224  HIT:    3557219  MISS:     903005
cpu0_L1D PREFETCH  ACCESS:          0  HIT:          0  MISS:          0
cpu0_L1D WRITEBACK ACCESS:          0  HIT:          0  MISS:          0
cpu0_L2C TOTAL     ACCESS:    1967262  HIT:    1307395  MISS:     659867
cpu0_L2C LOAD      ACCESS:     161251  HIT:          0  MISS:     161251
cpu0_L2C RFO       ACCESS:     903005  HIT:     404400  MISS:     498605
cpu0_L2C PREFETCH  ACCESS:          0  HIT:          0  MISS:          0
cpu0_L2C WRITEBACK ACCESS:     903001  HIT:     902995  MISS:          6
LLC TOTAL     ACCESS:    1158479  HIT:      11296  MISS:    1147183
LLC LOAD      ACCESS:     161251  HIT:          0  MISS:     161251
LLC RFO       ACCESS:     498605  HIT:      11272  MISS:     487333
LLC PREFETCH  ACCESS:          0  HIT:          0  MISS:          0
LLC WRITEBACK ACCESS:     498618  HIT:         24  MISS:     498594
Heartbeat CPU 0 instructions: 82000001 cycles: 89122218 heartbeat IPC: 0.418292 cumulative IPC: 0.417716 (Simulation time: 1 hr 0 min 47 sec) 

Region of Interest Statistics
cpu0_DTLB TOTAL     ACCESS:    4440443  HIT:    4420629  MISS:      19814
cpu0_DTLB LOAD      ACCESS:    2341498  HIT:    2338810  MISS:       2688
cpu0_DTLB RFO       ACCESS:    2098945  HIT:    2081819  MISS:      17126
cpu0_DTLB PREFETCH  ACCESS:          0  HIT:          0  MISS:          0
cpu0_DTLB WRITEBACK ACCESS:          0  HIT:          0  MISS:          0
cpu0_ITLB TOTAL     ACCESS:     149363  HIT:     149363  MISS:          0
cpu0_ITLB LOAD      ACCESS:     149363  HIT:     149363  MISS:          0
cpu0_ITLB RFO       ACCESS:          0  HIT:          0  MISS:          0
cpu0_ITLB PREFETCH  ACCESS:          0  HIT:          0  MISS:          0
cpu0_ITLB WRITEBACK ACCESS:          0  HIT:          0  MISS:          0
cpu0_L1I TOTAL     ACCESS:     611377  HIT:     611377  MISS:          0
cpu0_L1I LOAD      ACCESS:     611377  HIT:     611377  MISS:          0
cpu0_L1I RFO       ACCESS:          0  HIT:          0  MISS:          0
cpu0_L1I PREFETCH  ACCESS:          0  HIT:          0  MISS:          0
cpu0_L1I WRITEBACK ACCESS:          0  HIT:          0  MISS:          0
cpu0_STLB TOTAL     ACCESS:      19814  HIT:       9066  MISS:      10748
cpu0_STLB LOAD      ACCESS:       2688  HIT:          0  MISS:       2688
cpu0_STLB RFO       ACCESS:      17126  HIT:       9066  MISS:       8060
cpu0_STLB PREFETCH  ACCESS:          0  HIT:          0  MISS:          0
cpu0_STLB WRITEBACK ACCESS:          0  HIT:          0  MISS:          0
cpu0_L1D TOTAL     ACCESS:    6589745  HIT:    5454932  MISS:    1134813
cpu0_L1D LOAD      ACCESS:    1822723  HIT:    1650782  MISS:     171941
cpu0_L1D RFO       ACCESS:    4757226  HIT:    3794359  MISS:     962867
cpu0_L1D PREFETCH  ACCESS:          0  HIT:          0  MISS:          0
cpu0_L1D WRITEBACK ACCESS:          0  HIT:          0  MISS:          0
cpu0_L2C TOTAL     ACCESS:    2097677  HIT:    1394208  MISS:     703469
cpu0_L2C LOAD      ACCESS:     171941  HIT:          0  MISS:     171941
cpu0_L2C RFO       ACCESS:     962867  HIT:     431350  MISS:     531517
cpu0_L2C PREFETCH  ACCESS:          0  HIT:          0  MISS:          0
cpu0_L2C WRITEBACK ACCESS:     962864  HIT:     962858  MISS:          6
LLC TOTAL     ACCESS:    1235107  HIT:      11840  MISS:    1223267
LLC LOAD      ACCESS:     171941  HIT:          0  MISS:     171941
LLC RFO       ACCESS:     531517  HIT:      11816  MISS:     519701
LLC PREFETCH  ACCESS:          0  HIT:          0  MISS:          0
LLC WRITEBACK ACCESS:     531644  HIT:         24  MISS:     531620
Heartbeat CPU 0 instructions: 84000000 cycles: 93861428 heartbeat IPC: 0.422011 cumulative IPC: 0.417966 (Simulation time: 1 hr 3 min 49 sec) 

Region of Interest Statistics
cpu0_DTLB TOTAL     ACCESS:    4717504  HIT:    4696459  MISS:      21045
cpu0_DTLB LOAD      ACCESS:    2487662  HIT:    2484807  MISS:       2855
cpu0_DTLB RFO       ACCESS:    2229842  HIT:    2211652  MISS:      18190
cpu0_DTLB PREFETCH  ACCESS:          0  HIT:          0  MISS:          0
cpu0_DTLB WRITEBACK ACCESS:          0  HIT:          0  MISS:          0
cpu0_ITLB TOTAL     ACCESS:     158682  HIT:     158682  MISS:          0
cpu0_ITLB LOAD      ACCESS:     158682  HIT:     158682  MISS:          0
cpu0_ITLB RFO       ACCESS:          0  HIT:          0  MISS:          0
cpu0_ITLB PREFETCH  ACCESS:          0  HIT:          0  MISS:          0
cpu0_ITLB WRITEBACK ACCESS:          0  HIT:          0  MISS:          0
cpu0_L1I TOTAL     ACCESS:     649414  HIT:     649414  MISS:          0
cpu0_L1I LOAD      ACCESS:     649414  HIT:     649414  MISS:          0
cpu0_L1I RFO       ACCESS:          0  HIT:          0  MISS:          0
cpu0_L1I PREFETCH  ACCESS:          0  HIT:          0  MISS:          0
cpu0_L1I WRITEBACK ACCESS:          0  HIT:          0  MISS:          0
cpu0_STLB TOTAL     ACCESS:      21045  HIT:       9629  MISS:      11416
cpu0_STLB LOAD      ACCESS:       2855  HIT:          0  MISS:       2855
cpu0_STLB RFO       ACCESS:      18190  HIT:       9629  MISS:       8561
cpu0_STLB PREFETCH  ACCESS:          0  HIT:          0  MISS:          0
cpu0_STLB WRITEBACK ACCESS:          0  HIT:          0  MISS:          0
cpu0_L1D TOTAL     ACCESS:    7001326  HIT:    5795946  MISS:    1205380
cpu0_L1D LOAD      ACCESS:    1936602  HIT:    1753969  MISS:     182633
cpu0_L1D RFO       ACCESS:    5054260  HIT:    4031518  MISS:    1022742
cpu0_L1D PREFETCH  ACCESS:          0  HIT:          0  MISS:          0
cpu0_L1D WRITEBACK ACCESS:          0  HIT:          0  MISS:          0
cpu0_L2C TOTAL     ACCESS:    2228119  HIT:    1480869  MISS:     747250
cpu0_L2C LOAD      ACCESS:     182633  HIT:          0  MISS:     182633
cpu0_L2C RFO       ACCESS:    1022742  HIT:     458136  MISS:     564606
cpu0_L2C PREFETCH  ACCESS:          0  HIT:          0  MISS:          0
cpu0_L2C WRITEBACK ACCESS:    1022739  HIT:    1022733  MISS:          6
LLC TOTAL     ACCESS:    1311936  HIT:      12585  MISS:    1299351
LLC LOAD      ACCESS:     182633  HIT:          0  MISS:     182633
LLC RFO       ACCESS:     564606  HIT:      12548  MISS:     552058
LLC PREFETCH  ACCESS:          0  HIT:          0  MISS:          0
LLC WRITEBACK ACCESS:     564692  HIT:         37  MISS:     564655
Heartbeat CPU 0 instructions: 86000003 cycles: 98638360 heartbeat IPC: 0.418679 cumulative IPC: 0.418006 (Simulation time: 1 hr 6 min 43 sec) 

Region of Interest Statistics
cpu0_DTLB TOTAL     ACCESS:    4994639  HIT:    4972362  MISS:      22277
cpu0_DTLB LOAD      ACCESS:    2633889  HIT:    2630867  MISS:       3022
cpu0_DTLB RFO       ACCESS:    2360750  HIT:    2341495  MISS:      19255
cpu0_DTLB PREFETCH  ACCESS:          0  HIT:          0  MISS:          0
cpu0_DTLB WRITEBACK ACCESS:          0  HIT:          0  MISS:          0
cpu0_ITLB TOTAL     ACCESS:     167955  HIT:     167955  MISS:          0
cpu0_ITLB LOAD      ACCESS:     167955  HIT:     167955  MISS:          0
cpu0_ITLB RFO       ACCESS:          0  HIT:          0  MISS:          0
cpu0_ITLB PREFETCH  ACCESS:          0  HIT:          0  MISS:          0
cpu0_ITLB WRITEBACK ACCESS:          0  HIT:          0  MISS:          0
cpu0_L1I TOTAL     ACCESS:     687470  HIT:     687470  MISS:          0
cpu0_L1I LOAD      ACCESS:     687470  HIT:     687470  MISS:          0
cpu0_L1I RFO       ACCESS:          0  HIT:          0  MISS:          0
cpu0_L1I PREFETCH  ACCESS:          0  HIT:          0  MISS:          0
cpu0_L1I WRITEBACK ACCESS:          0  HIT:          0  MISS:          0
cpu0_STLB TOTAL     ACCESS:      22277  HIT:      10193  MISS:      12084
cpu0_STLB LOAD      ACCESS:       3022  HIT:          0  MISS:       3022
cpu0_STLB RFO       ACCESS:      19255  HIT:      10193  MISS:       9062
cpu0_STLB PREFETCH  ACCESS:          0  HIT:          0  MISS:          0
cpu0_STLB WRITEBACK ACCESS:          0  HIT:          0  MISS:          0
cpu0_L1D TOTAL     ACCESS:    7412808  HIT:    6136887  MISS:    1275921
cpu0_L1D LOAD      ACCESS:    2050429  HIT:    1857108  MISS:     193321
cpu0_L1D RFO       ACCESS:    5351247  HIT:    4268652  MISS:    1082595
cpu0_L1D PREFETCH  ACCESS:          0  HIT:          0  MISS:          0
cpu0_L1D WRITEBACK ACCESS:          0  HIT:          0  MISS:          0
cpu0_L2C TOTAL     ACCESS:    2358512  HIT:    1567273  MISS:     791239
cpu0_L2C LOAD      ACCESS:     193321  HIT:          0  MISS:     193321
cpu0_L2C RFO       ACCESS:    1082595  HIT:     484688  MISS:     597907
cpu0_L2C PREFETCH  ACCESS:          0  HIT:          0  MISS:          0
cpu0_L2C WRITEBACK ACCESS:    1082591  HIT:    1082585  MISS:          6
LLC TOTAL     ACCESS:    1389023  HIT:      13538  MISS:    1375485
LLC LOAD      ACCESS:     193321  HIT:          0  MISS:     193321
LLC RFO       ACCESS:     597907  HIT:      13501  MISS:     584406
LLC PREFETCH  ACCESS:          0  HIT:          0  MISS:          0
LLC WRITEBACK ACCESS:     597790  HIT:         37  MISS:     597753
Heartbeat CPU 0 instructions: 88000003 cycles: 103763622 heartbeat IPC: 0.390224 cumulative IPC: 0.416445 (Simulation time: 1 hr 9 min 48 sec) 

Region of Interest Statistics
cpu0_DTLB TOTAL     ACCESS:    5277609  HIT:    5253998  MISS:      23611
cpu0_DTLB LOAD      ACCESS:    2781374  HIT:    2778170  MISS:       3204
cpu0_DTLB RFO       ACCESS:    2496235  HIT:    2475828  MISS:      20407
cpu0_DTLB PREFETCH  ACCESS:          0  HIT:          0  MISS:          0
cpu0_DTLB WRITEBACK ACCESS:          0  HIT:          0  MISS:          0
cpu0_ITLB TOTAL     ACCESS:     177961  HIT:     177961  MISS:          0
cpu0_ITLB LOAD      ACCESS:     177961  HIT:     177961  MISS:          0
cpu0_ITLB RFO       ACCESS:          0  HIT:          0  MISS:          0
cpu0_ITLB PREFETCH  ACCESS:          0  HIT:          0  MISS:          0
cpu0_ITLB WRITEBACK ACCESS:          0  HIT:          0  MISS:          0
cpu0_L1I TOTAL     ACCESS:     727750  HIT:     727750  MISS:          0
cpu0_L1I LOAD      ACCESS:     727750  HIT:     727750  MISS:          0
cpu0_L1I RFO       ACCESS:          0  HIT:          0  MISS:          0
cpu0_L1I PREFETCH  ACCESS:          0  HIT:          0  MISS:          0
cpu0_L1I WRITEBACK ACCESS:          0  HIT:          0  MISS:          0
cpu0_STLB TOTAL     ACCESS:      23611  HIT:      10801  MISS:      12810
cpu0_STLB LOAD      ACCESS:       3204  HIT:          0  MISS:       3204
cpu0_STLB RFO       ACCESS:      20407  HIT:      10801  MISS:       9606
cpu0_STLB PREFETCH  ACCESS:          0  HIT:          0  MISS:          0
cpu0_STLB WRITEBACK ACCESS:          0  HIT:          0  MISS:          0
cpu0_L1D TOTAL     ACCESS:    7829580  HIT:    6477141  MISS:    1352439
cpu0_L1D LOAD      ACCESS:    2164646  HIT:    1959730  MISS:     204916
cpu0_L1D RFO       ACCESS:    5653076  HIT:    4505560  MISS:    1147516
cpu0_L1D PREFETCH  ACCESS:          0  HIT:          0  MISS:          0
cpu0_L1D WRITEBACK ACCESS:          0  HIT:          0  MISS:          0
cpu0_L2C TOTAL     ACCESS:    2499950  HIT:    1661201  MISS:     838749
cpu0_L2C LOAD      ACCESS:     204916  HIT:          0  MISS:     204916
cpu0_L2C RFO       ACCESS:    1147516  HIT:     513702  MISS:     633814
cpu0_L2C PREFETCH  ACCESS:          0  HIT:          0  MISS:          0
cpu0_L2C WRITEBACK ACCESS:    1147511  HIT:    1147499  MISS:         12
LLC TOTAL     ACCESS:    1472627  HIT:      14373  MISS:    1458254
LLC LOAD      ACCESS:     204916  HIT:          0  MISS:     204916
LLC RFO       ACCESS:     633814  HIT:      14336  MISS:     619478
LLC PREFETCH  ACCESS:          0  HIT:          0  MISS:          0
LLC WRITEBACK ACCESS:     633890  HIT:         37  MISS:     633853
Heartbeat CPU 0 instructions: 90000004 cycles: 108499952 heartbeat IPC: 0.422268 cumulative IPC: 0.416733 (Simulation time: 1 hr 12 min 43 sec) 

Region of Interest Statistics
cpu0_DTLB TOTAL     ACCESS:    5554930  HIT:    5530087  MISS:      24843
cpu0_DTLB LOAD      ACCESS:    2927775  HIT:    2924404  MISS:       3371
cpu0_DTLB RFO       ACCESS:    2627155  HIT:    2605683  MISS:      21472
cpu0_DTLB PREFETCH  ACCESS:          0  HIT:          0  MISS:          0
cpu0_DTLB WRITEBACK ACCESS:          0  HIT:          0  MISS:          0
cpu0_ITLB TOTAL     ACCESS:     187279  HIT:     187279  MISS:          0
cpu0_ITLB LOAD      ACCESS:     187279  HIT:     187279  MISS:          0
cpu0_ITLB RFO       ACCESS:          0  HIT:          0  MISS:          0
cpu0_ITLB PREFETCH  ACCESS:          0  HIT:          0  MISS:          0
cpu0_ITLB WRITEBACK ACCESS:          0  HIT:          0  MISS:          0
cpu0_L1I TOTAL     ACCESS:     765827  HIT:     765827  MISS:          0
cpu0_L1I LOAD      ACCESS:     765827  HIT:     765827  MISS:          0
cpu0_L1I RFO       ACCESS:          0  HIT:          0  MISS:          0
cpu0_L1I PREFETCH  ACCESS:          0  HIT:          0  MISS:          0
cpu0_L1I WRITEBACK ACCESS:          0  HIT:          0  MISS:          0
cpu0_STLB TOTAL     ACCESS:      24843  HIT:      11365  MISS:      13478
cpu0_STLB LOAD      ACCESS:       3371  HIT:          0  MISS:       3371
cpu0_STLB RFO       ACCESS:      21472  HIT:      11365  MISS:      10107
cpu0_STLB PREFETCH  ACCESS:          0  HIT:          0  MISS:          0
cpu0_STLB WRITEBACK ACCESS:          0  HIT:          0  MISS:          0
cpu0_L1D TOTAL     ACCESS:    8241344  HIT:    6818332  MISS:    1423012
cpu0_L1D LOAD      ACCESS:    2278710  HIT:    2063101  MISS:     215609
cpu0_L1D RFO       ACCESS:    5950108  HIT:    4742712  MISS:    1207396
cpu0_L1D PREFETCH  ACCESS:          0  HIT:          0  MISS:          0
cpu0_L1D WRITEBACK ACCESS:          0  HIT:          0  MISS:          0
cpu0_L2C TOTAL     ACCESS:    2630405  HIT:    1747915  MISS:     882490
cpu0_L2C LOAD      ACCESS:     215609  HIT:          0  MISS:     215609
cpu0_L2C RFO       ACCESS:    1207396  HIT:     540534  MISS:     666862
cpu0_L2C PREFETCH  ACCESS:          0  HIT:          0  MISS:          0
cpu0_L2C WRITEBACK ACCESS:    1207393  HIT:    1207381  MISS:         12
LLC TOTAL     ACCESS:    1549317  HIT:      15049  MISS:    1534268
LLC LOAD      ACCESS:     215609  HIT:          0  MISS:     215609
LLC RFO       ACCESS:     666862  HIT:      15012  MISS:     651850
LLC PREFETCH  ACCESS:          0  HIT:          0  MISS:          0
LLC WRITEBACK ACCESS:     666839  HIT:         37  MISS:     666802
Heartbeat CPU 0 instructions: 92000002 cycles: 113188509 heartbeat IPC: 0.42657 cumulative IPC: 0.417191 (Simulation time: 1 hr 15 min 41 sec) 

Region of Interest Statistics
cpu0_DTLB TOTAL     ACCESS:    5832147  HIT:    5806071  MISS:      26076
cpu0_DTLB LOAD      ACCESS:    3074091  HIT:    3070553  MISS:       3538
cpu0_DTLB RFO       ACCESS:    2758056  HIT:    2735518  MISS:      22538
cpu0_DTLB PREFETCH  ACCESS:          0  HIT:          0  MISS:          0
cpu0_DTLB WRITEBACK ACCESS:          0  HIT:          0  MISS:          0
cpu0_ITLB TOTAL     ACCESS:     196553  HIT:     196553  MISS:          0
cpu0_ITLB LOAD      ACCESS:     196553  HIT:     196553  MISS:          0
cpu0_ITLB RFO       ACCESS:          0  HIT:          0  MISS:          0
cpu0_ITLB PREFETCH  ACCESS:          0  HIT:          0  MISS:          0
cpu0_ITLB WRITEBACK ACCESS:          0  HIT:          0  MISS:          0
cpu0_L1I TOTAL     ACCESS:     803918  HIT:     803918  MISS:          0
cpu0_L1I LOAD      ACCESS:     803918  HIT:     803918  MISS:          0
cpu0_L1I RFO       ACCESS:          0  HIT:          0  MISS:          0
cpu0_L1I PREFETCH  ACCESS:          0  HIT:          0  MISS:          0
cpu0_L1I WRITEBACK ACCESS:          0  HIT:          0  MISS:          0
cpu0_STLB TOTAL     ACCESS:      26076  HIT:      11928  MISS:      14148
cpu0_STLB LOAD      ACCESS:       3538  HIT:          0  MISS:       3538
cpu0_STLB RFO       ACCESS:      22538  HIT:      11928  MISS:      10610
cpu0_STLB PREFETCH  ACCESS:          0  HIT:          0  MISS:          0
cpu0_STLB WRITEBACK ACCESS:          0  HIT:          0  MISS:          0
cpu0_L1D TOTAL     ACCESS:    8653015  HIT:    7159451  MISS:    1493564
cpu0_L1D LOAD      ACCESS:    2392685  HIT:    2166386  MISS:     226299
cpu0_L1D RFO       ACCESS:    6247134  HIT:    4979876  MISS:    1267258
cpu0_L1D PREFETCH  ACCESS:          0  HIT:          0  MISS:          0
cpu0_L1D WRITEBACK ACCESS:          0  HIT:          0  MISS:          0
cpu0_L2C TOTAL     ACCESS:    2760821  HIT:    1835073  MISS:     925748
cpu0_L2C LOAD      ACCESS:     226299  HIT:          0  MISS:     226299
cpu0_L2C RFO       ACCESS:    1267258  HIT:     567828  MISS:     699430
cpu0_L2C PREFETCH  ACCESS:          0  HIT:          0  MISS:          0
cpu0_L2C WRITEBACK ACCESS:    1267257  HIT:    1267245  MISS:         12
LLC TOTAL     ACCESS:    1625346  HIT:      15484  MISS:    1609862
LLC LOAD      ACCESS:     226299  HIT:          0  MISS:     226299
LLC RFO       ACCESS:     699430  HIT:      15447  MISS:     683983
LLC PREFETCH  ACCESS:          0  HIT:          0  MISS:          0
LLC WRITEBACK ACCESS:     699610  HIT:         37  MISS:     699573
Heartbeat CPU 0 instructions: 94000001 cycles: 117933304 heartbeat IPC: 0.421514 cumulative IPC: 0.417385 (Simulation time: 1 hr 18 min 37 sec) 

Region of Interest Statistics
cpu0_DTLB TOTAL     ACCESS:    6109378  HIT:    6082070  MISS:      27308
cpu0_DTLB LOAD      ACCESS:    3220437  HIT:    3216732  MISS:       3705
cpu0_DTLB RFO       ACCESS:    2888941  HIT:    2865338  MISS:      23603
cpu0_DTLB PREFETCH  ACCESS:          0  HIT:          0  MISS:          0
cpu0_DTLB WRITEBACK ACCESS:          0  HIT:          0  MISS:          0
cpu0_ITLB TOTAL     ACCESS:     205833  HIT:     205833  MISS:          0
cpu0_ITLB LOAD      ACCESS:     205833  HIT:     205833  MISS:          0
cpu0_ITLB RFO       ACCESS:          0  HIT:          0  MISS:          0
cpu0_ITLB PREFETCH  ACCESS:          0  HIT:          0  MISS:          0
cpu0_ITLB WRITEBACK ACCESS:          0  HIT:          0  MISS:          0
cpu0_L1I TOTAL     ACCESS:     842004  HIT:     842004  MISS:          0
cpu0_L1I LOAD      ACCESS:     842004  HIT:     842004  MISS:          0
cpu0_L1I RFO       ACCESS:          0  HIT:          0  MISS:          0
cpu0_L1I PREFETCH  ACCESS:          0  HIT:          0  MISS:          0
cpu0_L1I WRITEBACK ACCESS:          0  HIT:          0  MISS:          0
cpu0_STLB TOTAL     ACCESS:      27308  HIT:      12492  MISS:      14816
cpu0_STLB LOAD      ACCESS:       3705  HIT:          0  MISS:       3705
cpu0_STLB RFO       ACCESS:      23603  HIT:      12492  MISS:      11111
cpu0_STLB PREFETCH  ACCESS:          0  HIT:          0  MISS:          0
cpu0_STLB WRITEBACK ACCESS:          0  HIT:          0  MISS:          0
cpu0_L1D TOTAL     ACCESS:    9064700  HIT:    7500602  MISS:    1564098
cpu0_L1D LOAD      ACCESS:    2506687  HIT:    2269701  MISS:     236986
cpu0_L1D RFO       ACCESS:    6544149  HIT:    5217044  MISS:    1327105
cpu0_L1D PREFETCH  ACCESS:          0  HIT:          0  MISS:          0
cpu0_L1D WRITEBACK ACCESS:          0  HIT:          0  MISS:          0
cpu0_L2C TOTAL     ACCESS:    2891201  HIT:    1921669  MISS:     969532
cpu0_L2C LOAD      ACCESS:     236986  HIT:          0  MISS:     236986
cpu0_L2C RFO       ACCESS:    1327105  HIT:     594578  MISS:     732527
cpu0_L2C PREFETCH  ACCESS:          0  HIT:          0  MISS:          0
cpu0_L2C WRITEBACK ACCESS:    1327103  HIT:    1327091  MISS:         12
LLC TOTAL     ACCESS:    1701887  HIT:      16274  MISS:    1685613
LLC LOAD      ACCESS:     236986  HIT:          0  MISS:     236986
LLC RFO       ACCESS:     732527  HIT:      16237  MISS:     716290
LLC PREFETCH  ACCESS:          0  HIT:          0  MISS:          0
LLC WRITEBACK ACCESS:     732367  HIT:         37  MISS:     732330
Heartbeat CPU 0 instructions: 96000004 cycles: 122673375 heartbeat IPC: 0.421935 cumulative IPC: 0.417581 (Simulation time: 1 hr 21 min 30 sec) 

Region of Interest Statistics
cpu0_DTLB TOTAL     ACCESS:    6386563  HIT:    6358023  MISS:      28540
cpu0_DTLB LOAD      ACCESS:    3366705  HIT:    3362833  MISS:       3872
cpu0_DTLB RFO       ACCESS:    3019858  HIT:    2995190  MISS:      24668
cpu0_DTLB PREFETCH  ACCESS:          0  HIT:          0  MISS:          0
cpu0_DTLB WRITEBACK ACCESS:          0  HIT:          0  MISS:          0
cpu0_ITLB TOTAL     ACCESS:     215151  HIT:     215151  MISS:          0
cpu0_ITLB LOAD      ACCESS:     215151  HIT:     215151  MISS:          0
cpu0_ITLB RFO       ACCESS:          0  HIT:          0  MISS:          0
cpu0_ITLB PREFETCH  ACCESS:          0  HIT:          0  MISS:          0
cpu0_ITLB WRITEBACK ACCESS:          0  HIT:          0  MISS:          0
cpu0_L1I TOTAL     ACCESS:     880074  HIT:     880074  MISS:          0
cpu0_L1I LOAD      ACCESS:     880074  HIT:     880074  MISS:          0
cpu0_L1I RFO       ACCESS:          0  HIT:          0  MISS:          0
cpu0_L1I PREFETCH  ACCESS:          0  HIT:          0  MISS:          0
cpu0_L1I WRITEBACK ACCESS:          0  HIT:          0  MISS:          0
cpu0_STLB TOTAL     ACCESS:      28540  HIT:      13056  MISS:      15484
cpu0_STLB LOAD      ACCESS:       3872  HIT:          0  MISS:       3872
cpu0_STLB RFO       ACCESS:      24668  HIT:      13056  MISS:      11612
cpu0_STLB PREFETCH  ACCESS:          0  HIT:          0  MISS:          0
cpu0_STLB WRITEBACK ACCESS:          0  HIT:          0  MISS:          0
cpu0_L1D TOTAL     ACCESS:    9476358  HIT:    7841683  MISS:    1634675
cpu0_L1D LOAD      ACCESS:    2620621  HIT:    2372942  MISS:     247679
cpu0_L1D RFO       ACCESS:    6841205  HIT:    5454216  MISS:    1386989
cpu0_L1D PREFETCH  ACCESS:          0  HIT:          0  MISS:          0
cpu0_L1D WRITEBACK ACCESS:          0  HIT:          0  MISS:          0
cpu0_L2C TOTAL     ACCESS:    3021663  HIT:    2008367  MISS:    1013296
cpu0_L2C LOAD      ACCESS:     247679  HIT:          0  MISS:     247679
cpu0_L2C RFO       ACCESS:    1386989  HIT:     621391  MISS:     765598
cpu0_L2C PREFETCH  ACCESS:          0  HIT:          0  MISS:          0
cpu0_L2C WRITEBACK ACCESS:    1386988  HIT:    1386976  MISS:         12
LLC TOTAL     ACCESS:    1778769  HIT:      17084  MISS:    1761685
LLC LOAD      ACCESS:     247679  HIT:          0  MISS:     247679
LLC RFO       ACCESS:     765598  HIT:      17034  MISS:     748564
LLC PREFETCH  ACCESS:          0  HIT:          0  MISS:          0
LLC WRITEBACK ACCESS:     765485  HIT:         50  MISS:     765435
Heartbeat CPU 0 instructions: 98000000 cycles: 127438830 heartbeat IPC: 0.419686 cumulative IPC: 0.417668 (Simulation time: 1 hr 24 min 23 sec) 

Region of Interest Statistics
cpu0_DTLB TOTAL     ACCESS:    6663815  HIT:    6634044  MISS:      29771
cpu0_DTLB LOAD      ACCESS:    3513070  HIT:    3509031  MISS:       4039
cpu0_DTLB RFO       ACCESS:    3150745  HIT:    3125013  MISS:      25732
cpu0_DTLB PREFETCH  ACCESS:          0  HIT:          0  MISS:          0
cpu0_DTLB WRITEBACK ACCESS:          0  HIT:          0  MISS:          0
cpu0_ITLB TOTAL     ACCESS:     224424  HIT:     224424  MISS:          0
cpu0_ITLB LOAD      ACCESS:     224424  HIT:     224424  MISS:          0
cpu0_ITLB RFO       ACCESS:          0  HIT:          0  MISS:          0
cpu0_ITLB PREFETCH  ACCESS:          0  HIT:          0  MISS:          0
cpu0_ITLB WRITEBACK ACCESS:          0  HIT:          0  MISS:          0
cpu0_L1I TOTAL     ACCESS:     918136  HIT:     918136  MISS:          0
cpu0_L1I LOAD      ACCESS:     918136  HIT:     918136  MISS:          0
cpu0_L1I RFO       ACCESS:          0  HIT:          0  MISS:          0
cpu0_L1I PREFETCH  ACCESS:          0  HIT:          0  MISS:          0
cpu0_L1I WRITEBACK ACCESS:          0  HIT:          0  MISS:          0
cpu0_STLB TOTAL     ACCESS:      29771  HIT:      13619  MISS:      16152
cpu0_STLB LOAD      ACCESS:       4039  HIT:          0  MISS:       4039
cpu0_STLB RFO       ACCESS:      25732  HIT:      13619  MISS:      12113
cpu0_STLB PREFETCH  ACCESS:          0  HIT:          0  MISS:          0
cpu0_STLB WRITEBACK ACCESS:          0  HIT:          0  MISS:          0
cpu0_L1D TOTAL     ACCESS:    9888155  HIT:    8182944  MISS:    1705211
cpu0_L1D LOAD      ACCESS:    2734739  HIT:    2476373  MISS:     258366
cpu0_L1D RFO       ACCESS:    7138216  HIT:    5691378  MISS:    1446838
cpu0_L1D PREFETCH  ACCESS:          0  HIT:          0  MISS:          0
cpu0_L1D WRITEBACK ACCESS:          0  HIT:          0  MISS:          0
cpu0_L2C TOTAL     ACCESS:    3152046  HIT:    2094858  MISS:    1057188
cpu0_L2C LOAD      ACCESS:     258366  HIT:          0  MISS:     258366
cpu0_L2C RFO       ACCESS:    1446838  HIT:     648035  MISS:     798803
cpu0_L2C PREFETCH  ACCESS:          0  HIT:          0  MISS:          0
cpu0_L2C WRITEBACK ACCESS:    1446835  HIT:    1446823  MISS:         12
LLC TOTAL     ACCESS:    1855909  HIT:      17973  MISS:    1837936
LLC LOAD      ACCESS:     258366  HIT:          0  MISS:     258366
LLC RFO       ACCESS:     798803  HIT:      17923  MISS:     780880
LLC PREFETCH  ACCESS:          0  HIT:          0  MISS:          0
LLC WRITEBACK ACCESS:     798733  HIT:         50  MISS:     798683
Heartbeat CPU 0 instructions: 100000001 cycles: 132205730 heartbeat IPC: 0.41956 cumulative IPC: 0.417744 (Simulation time: 1 hr 27 min 17 sec) 

Region of Interest Statistics
cpu0_DTLB TOTAL     ACCESS:    6941430  HIT:    6910427  MISS:      31003
cpu0_DTLB LOAD      ACCESS:    3659718  HIT:    3655512  MISS:       4206
cpu0_DTLB RFO       ACCESS:    3281712  HIT:    3254915  MISS:      26797
cpu0_DTLB PREFETCH  ACCESS:          0  HIT:          0  MISS:          0
cpu0_DTLB WRITEBACK ACCESS:          0  HIT:          0  MISS:          0
cpu0_ITLB TOTAL     ACCESS:     233742  HIT:     233742  MISS:          0
cpu0_ITLB LOAD      ACCESS:     233742  HIT:     233742  MISS:          0
cpu0_ITLB RFO       ACCESS:          0  HIT:          0  MISS:          0
cpu0_ITLB PREFETCH  ACCESS:          0  HIT:          0  MISS:          0
cpu0_ITLB WRITEBACK ACCESS:          0  HIT:          0  MISS:          0
cpu0_L1I TOTAL     ACCESS:     956225  HIT:     956225  MISS:          0
cpu0_L1I LOAD      ACCESS:     956225  HIT:     956225  MISS:          0
cpu0_L1I RFO       ACCESS:          0  HIT:          0  MISS:          0
cpu0_L1I PREFETCH  ACCESS:          0  HIT:          0  MISS:          0
cpu0_L1I WRITEBACK ACCESS:          0  HIT:          0  MISS:          0
cpu0_STLB TOTAL     ACCESS:      31003  HIT:      14183  MISS:      16820
cpu0_STLB LOAD      ACCESS:       4206  HIT:          0  MISS:       4206
cpu0_STLB RFO       ACCESS:      26797  HIT:      14183  MISS:      12614
cpu0_STLB PREFETCH  ACCESS:          0  HIT:          0  MISS:          0
cpu0_STLB WRITEBACK ACCESS:          0  HIT:          0  MISS:          0
cpu0_L1D TOTAL     ACCESS:   10300213  HIT:    8524429  MISS:    1775784
cpu0_L1D LOAD      ACCESS:    2849091  HIT:    2580032  MISS:     269059
cpu0_L1D RFO       ACCESS:    7435254  HIT:    5928536  MISS:    1506718
cpu0_L1D PREFETCH  ACCESS:          0  HIT:          0  MISS:          0
cpu0_L1D WRITEBACK ACCESS:          0  HIT:          0  MISS:          0
cpu0_L2C TOTAL     ACCESS:    3282500  HIT:    2181657  MISS:    1100843
cpu0_L2C LOAD      ACCESS:     269059  HIT:          0  MISS:     269059
cpu0_L2C RFO       ACCESS:    1506719  HIT:     674954  MISS:     831765
cpu0_L2C PREFETCH  ACCESS:          0  HIT:          0  MISS:          0
cpu0_L2C WRITEBACK ACCESS:    1506715  HIT:    1506703  MISS:         12
LLC TOTAL     ACCESS:    1932565  HIT:      18621  MISS:    1913944
LLC LOAD      ACCESS:     269059  HIT:          0  MISS:     269059
LLC RFO       ACCESS:     831765  HIT:      18571  MISS:     813194
LLC PREFETCH  ACCESS:          0  HIT:          0  MISS:          0
LLC WRITEBACK ACCESS:     831734  HIT:         50  MISS:     831684
Heartbeat CPU 0 instructions: 102000001 cycles: 136934570 heartbeat IPC: 0.422937 cumulative IPC: 0.417941 (Simulation time: 1 hr 30 min 9 sec) 

Region of Interest Statistics
cpu0_DTLB TOTAL     ACCESS:    7218678  HIT:    7186444  MISS:      32234
cpu0_DTLB LOAD      ACCESS:    3806059  HIT:    3801686  MISS:       4373
cpu0_DTLB RFO       ACCESS:    3412619  HIT:    3384758  MISS:      27861
cpu0_DTLB PREFETCH  ACCESS:          0  HIT:          0  MISS:          0
cpu0_DTLB WRITEBACK ACCESS:          0  HIT:          0  MISS:          0
cpu0_ITLB TOTAL     ACCESS:     243022  HIT:     243022  MISS:          0
cpu0_ITLB LOAD      ACCESS:     243022  HIT:     243022  MISS:          0
cpu0_ITLB RFO       ACCESS:          0  HIT:          0  MISS:          0
cpu0_ITLB PREFETCH  ACCESS:          0  HIT:          0  MISS:          0
cpu0_ITLB WRITEBACK ACCESS:          0  HIT:          0  MISS:          0
cpu0_L1I TOTAL     ACCESS:     994317  HIT:     994317  MISS:          0
cpu0_L1I LOAD      ACCESS:     994317  HIT:     994317  MISS:          0
cpu0_L1I RFO       ACCESS:          0  HIT:          0  MISS:          0
cpu0_L1I PREFETCH  ACCESS:          0  HIT:          0  MISS:          0
cpu0_L1I WRITEBACK ACCESS:          0  HIT:          0  MISS:          0
cpu0_STLB TOTAL     ACCESS:      32234  HIT:      14746  MISS:      17488
cpu0_STLB LOAD      ACCESS:       4373  HIT:          0  MISS:       4373
cpu0_STLB RFO       ACCESS:      27861  HIT:      14746  MISS:      13115
cpu0_STLB PREFETCH  ACCESS:          0  HIT:          0  MISS:          0
cpu0_STLB WRITEBACK ACCESS:          0  HIT:          0  MISS:          0
cpu0_L1D TOTAL     ACCESS:   10711866  HIT:    8865532  MISS:    1846334
cpu0_L1D LOAD      ACCESS:    2963033  HIT:    2683284  MISS:     279749
cpu0_L1D RFO       ACCESS:    7732297  HIT:    6165719  MISS:    1566578
cpu0_L1D PREFETCH  ACCESS:          0  HIT:          0  MISS:          0
cpu0_L1D WRITEBACK ACCESS:          0  HIT:          0  MISS:          0
cpu0_L2C TOTAL     ACCESS:    3412911  HIT:    2268608  MISS:    1144303
cpu0_L2C LOAD      ACCESS:     279749  HIT:          0  MISS:     279749
cpu0_L2C RFO       ACCESS:    1566578  HIT:     702043  MISS:     864535
cpu0_L2C PREFETCH  ACCESS:          0  HIT:          0  MISS:          0
cpu0_L2C WRITEBACK ACCESS:    1566577  HIT:    1566565  MISS:         12
LLC TOTAL     ACCESS:    2008815  HIT:      19145  MISS:    1989670
LLC LOAD      ACCESS:     279749  HIT:          0  MISS:     279749
LLC RFO       ACCESS:     864536  HIT:      19095  MISS:     845441
LLC PREFETCH  ACCESS:          0  HIT:          0  MISS:          0
LLC WRITEBACK ACCESS:     864523  HIT:         50  MISS:     864473
Heartbeat CPU 0 instructions: 104000003 cycles: 141662853 heartbeat IPC: 0.422987 cumulative IPC: 0.418126 (Simulation time: 1 hr 32 min 56 sec) 

Region of Interest Statistics
cpu0_DTLB TOTAL     ACCESS:    7495940  HIT:    7462474  MISS:      33466
cpu0_DTLB LOAD      ACCESS:    3952427  HIT:    3947887  MISS:       4540
cpu0_DTLB RFO       ACCESS:    3543513  HIT:    3514587  MISS:      28926
cpu0_DTLB PREFETCH  ACCESS:          0  HIT:          0  MISS:          0
cpu0_DTLB WRITEBACK ACCESS:          0  HIT:          0  MISS:          0
cpu0_ITLB TOTAL     ACCESS:     252296  HIT:     252296  MISS:          0
cpu0_ITLB LOAD      ACCESS:     252296  HIT:     252296  MISS:          0
cpu0_ITLB RFO       ACCESS:          0  HIT:          0  MISS:          0
cpu0_ITLB PREFETCH  ACCESS:          0  HIT:          0  MISS:          0
cpu0_ITLB WRITEBACK ACCESS:          0  HIT:          0  MISS:          0
cpu0_L1I TOTAL     ACCESS:    1032418  HIT:    1032418  MISS:          0
cpu0_L1I LOAD      ACCESS:    1032418  HIT:    1032418  MISS:          0
cpu0_L1I RFO       ACCESS:          0  HIT:          0  MISS:          0
cpu0_L1I PREFETCH  ACCESS:          0  HIT:          0  MISS:          0
cpu0_L1I WRITEBACK ACCESS:          0  HIT:          0  MISS:          0
cpu0_STLB TOTAL     ACCESS:      33466  HIT:      15310  MISS:      18156
cpu0_STLB LOAD      ACCESS:       4540  HIT:          0  MISS:       4540
cpu0_STLB RFO       ACCESS:      28926  HIT:      15310  MISS:      13616
cpu0_STLB PREFETCH  ACCESS:          0  HIT:          0  MISS:          0
cpu0_STLB WRITEBACK ACCESS:          0  HIT:          0  MISS:          0
cpu0_L1D TOTAL     ACCESS:   11123608  HIT:    9206737  MISS:    1916871
cpu0_L1D LOAD      ACCESS:    3077067  HIT:    2786631  MISS:     290436
cpu0_L1D RFO       ACCESS:    8029337  HIT:    6402909  MISS:    1626428
cpu0_L1D PREFETCH  ACCESS:          0  HIT:          0  MISS:          0
cpu0_L1D WRITEBACK ACCESS:          0  HIT:          0  MISS:          0
cpu0_L2C TOTAL     ACCESS:    3543295  HIT:    2355324  MISS:    1187971
cpu0_L2C LOAD      ACCESS:     290436  HIT:          0  MISS:     290436
cpu0_L2C RFO       ACCESS:    1626428  HIT:     728912  MISS:     897516
cpu0_L2C PREFETCH  ACCESS:          0  HIT:          0  MISS:          0
cpu0_L2C WRITEBACK ACCESS:    1626424  HIT:    1626412  MISS:         12
LLC TOTAL     ACCESS:    2085382  HIT:      19836  MISS:    2065546
LLC LOAD      ACCESS:     290436  HIT:          0  MISS:     290436
LLC RFO       ACCESS:     897516  HIT:      19786  MISS:     877730
LLC PREFETCH  ACCESS:          0  HIT:          0  MISS:          0
LLC WRITEBACK ACCESS:     897423  HIT:         50  MISS:     897373
Heartbeat CPU 0 instructions: 106000000 cycles: 146914178 heartbeat IPC: 0.380856 cumulative IPC: 0.41667 (Simulation time: 1 hr 36 min 9 sec) 

Region of Interest Statistics
cpu0_DTLB TOTAL     ACCESS:    7781119  HIT:    7746277  MISS:      34842
cpu0_DTLB LOAD      ACCESS:    4100258  HIT:    4095530  MISS:       4728
cpu0_DTLB RFO       ACCESS:    3680861  HIT:    3650747  MISS:      30114
cpu0_DTLB PREFETCH  ACCESS:          0  HIT:          0  MISS:          0
cpu0_DTLB WRITEBACK ACCESS:          0  HIT:          0  MISS:          0
cpu0_ITLB TOTAL     ACCESS:     264256  HIT:     264256  MISS:          0
cpu0_ITLB LOAD      ACCESS:     264256  HIT:     264256  MISS:          0
cpu0_ITLB RFO       ACCESS:          0  HIT:          0  MISS:          0
cpu0_ITLB PREFETCH  ACCESS:          0  HIT:          0  MISS:          0
cpu0_ITLB WRITEBACK ACCESS:          0  HIT:          0  MISS:          0
cpu0_L1I TOTAL     ACCESS:    1072251  HIT:    1072251  MISS:          0
cpu0_L1I LOAD      ACCESS:    1072251  HIT:    1072251  MISS:          0
cpu0_L1I RFO       ACCESS:          0  HIT:          0  MISS:          0
cpu0_L1I PREFETCH  ACCESS:          0  HIT:          0  MISS:          0
cpu0_L1I WRITEBACK ACCESS:          0  HIT:          0  MISS:          0
cpu0_STLB TOTAL     ACCESS:      34842  HIT:      15938  MISS:      18904
cpu0_STLB LOAD      ACCESS:       4728  HIT:          0  MISS:       4728
cpu0_STLB RFO       ACCESS:      30114  HIT:      15938  MISS:      14176
cpu0_STLB PREFETCH  ACCESS:          0  HIT:          0  MISS:          0
cpu0_STLB WRITEBACK ACCESS:          0  HIT:          0  MISS:          0
cpu0_L1D TOTAL     ACCESS:   11541331  HIT:    9545658  MISS:    1995673
cpu0_L1D LOAD      ACCESS:    3190964  HIT:    2888587  MISS:     302377
cpu0_L1D RFO       ACCESS:    8332415  HIT:    6639128  MISS:    1693287
cpu0_L1D PREFETCH  ACCESS:          0  HIT:          0  MISS:          0
cpu0_L1D WRITEBACK ACCESS:          0  HIT:          0  MISS:          0
cpu0_L2C TOTAL     ACCESS:    3688958  HIT:    2452076  MISS:    1236882
cpu0_L2C LOAD      ACCESS:     302377  HIT:          0  MISS:     302377
cpu0_L2C RFO       ACCESS:    1693288  HIT:     758810  MISS:     934478
cpu0_L2C PREFETCH  ACCESS:          0  HIT:          0  MISS:          0
cpu0_L2C WRITEBACK ACCESS:    1693284  HIT:    1693266  MISS:         18
LLC TOTAL     ACCESS:    2171596  HIT:      20687  MISS:    2150909
[...]
Region of Interest Statistics
cpu0_DTLB TOTAL     ACCESS:  264304874  HIT:  262307411  MISS:    1997463
cpu0_DTLB LOAD      ACCESS:  118130272  HIT:  117859223  MISS:     271049
cpu0_DTLB RFO       ACCESS:  146174602  HIT:  144448188  MISS:    1726414
cpu0_DTLB PREFETCH  ACCESS:          0  HIT:          0  MISS:          0
cpu0_DTLB WRITEBACK ACCESS:          0  HIT:          0  MISS:          0
cpu0_ITLB TOTAL     ACCESS:   27342121  HIT:   27342121  MISS:          0
cpu0_ITLB LOAD      ACCESS:   27342121  HIT:   27342121  MISS:          0
cpu0_ITLB RFO       ACCESS:          0  HIT:          0  MISS:          0
cpu0_ITLB PREFETCH  ACCESS:          0  HIT:          0  MISS:          0
cpu0_ITLB WRITEBACK ACCESS:          0  HIT:          0  MISS:          0
cpu0_L1I TOTAL     ACCESS:   33067071  HIT:   33067071  MISS:          0
cpu0_L1I LOAD      ACCESS:   33067071  HIT:   33067071  MISS:          0
cpu0_L1I RFO       ACCESS:          0  HIT:          0  MISS:          0
cpu0_L1I PREFETCH  ACCESS:          0  HIT:          0  MISS:          0
cpu0_L1I WRITEBACK ACCESS:          0  HIT:          0  MISS:          0
cpu0_STLB TOTAL     ACCESS:    1997463  HIT:     913621  MISS:    1083842
cpu0_STLB LOAD      ACCESS:     271049  HIT:          2  MISS:     271047
cpu0_STLB RFO       ACCESS:    1726414  HIT:     913619  MISS:     812795
cpu0_STLB PREFETCH  ACCESS:          0  HIT:          0  MISS:          0
cpu0_STLB WRITEBACK ACCESS:          0  HIT:          0  MISS:          0
cpu0_L1D TOTAL     ACCESS:  352495823  HIT:  238071588  MISS:  114424235
cpu0_L1D LOAD      ACCESS:   83902263  HIT:   66564321  MISS:   17337942
cpu0_L1D RFO       ACCESS:  267572741  HIT:  170486928  MISS:   97085813
cpu0_L1D PREFETCH  ACCESS:          0  HIT:          0  MISS:          0
cpu0_L1D WRITEBACK ACCESS:          0  HIT:          0  MISS:          0
cpu0_L2C TOTAL     ACCESS:  211510036  HIT:  140548686  MISS:   70961350
cpu0_L2C LOAD      ACCESS:   17337942  HIT:        453  MISS:   17337489
cpu0_L2C RFO       ACCESS:   97085804  HIT:   43465856  MISS:   53619948
cpu0_L2C PREFETCH  ACCESS:          0  HIT:          0  MISS:          0
cpu0_L2C WRITEBACK ACCESS:   97085810  HIT:   97082377  MISS:       3433
LLC TOTAL     ACCESS:  124578932  HIT:    1229068  MISS:  123349864
LLC LOAD      ACCESS:   17337489  HIT:          0  MISS:   17337489
LLC RFO       ACCESS:   53617720  HIT:    1223059  MISS:   52394661
LLC PREFETCH  ACCESS:          0  HIT:          0  MISS:          0
LLC WRITEBACK ACCESS:   53623243  HIT:       6009  MISS:   53617234
Heartbeat CPU 0 instructions: 1550000000 cycles: 6966926702 heartbeat IPC: 0.213091 cumulative IPC: 0.21569 (Simulation time: 24 hr 35 min 23 sec) 

Region of Interest Statistics
cpu0_DTLB TOTAL     ACCESS:  264659574  HIT:  262659404  MISS:    2000170
cpu0_DTLB LOAD      ACCESS:  118288078  HIT:  118016662  MISS:     271416
cpu0_DTLB RFO       ACCESS:  146371496  HIT:  144642742  MISS:    1728754
cpu0_DTLB PREFETCH  ACCESS:          0  HIT:          0  MISS:          0
cpu0_DTLB WRITEBACK ACCESS:          0  HIT:          0  MISS:          0
cpu0_ITLB TOTAL     ACCESS:   27379943  HIT:   27379943  MISS:          0
cpu0_ITLB LOAD      ACCESS:   27379943  HIT:   27379943  MISS:          0
cpu0_ITLB RFO       ACCESS:          0  HIT:          0  MISS:          0
cpu0_ITLB PREFETCH  ACCESS:          0  HIT:          0  MISS:          0
cpu0_ITLB WRITEBACK ACCESS:          0  HIT:          0  MISS:          0
cpu0_L1I TOTAL     ACCESS:   33110616  HIT:   33110616  MISS:          0
cpu0_L1I LOAD      ACCESS:   33110616  HIT:   33110616  MISS:          0
cpu0_L1I RFO       ACCESS:          0  HIT:          0  MISS:          0
cpu0_L1I PREFETCH  ACCESS:          0  HIT:          0  MISS:          0
cpu0_L1I WRITEBACK ACCESS:          0  HIT:          0  MISS:          0
cpu0_STLB TOTAL     ACCESS:    2000170  HIT:     914860  MISS:    1085310
cpu0_STLB LOAD      ACCESS:     271416  HIT:          2  MISS:     271414
cpu0_STLB RFO       ACCESS:    1728754  HIT:     914858  MISS:     813896
cpu0_STLB PREFETCH  ACCESS:          0  HIT:          0  MISS:          0
cpu0_STLB WRITEBACK ACCESS:          0  HIT:          0  MISS:          0
cpu0_L1D TOTAL     ACCESS:  352968084  HIT:  238388846  MISS:  114579238
cpu0_L1D LOAD      ACCESS:   84014257  HIT:   66652830  MISS:   17361427
cpu0_L1D RFO       ACCESS:  267931540  HIT:  170714210  MISS:   97217330
cpu0_L1D PREFETCH  ACCESS:          0  HIT:          0  MISS:          0
cpu0_L1D WRITEBACK ACCESS:          0  HIT:          0  MISS:          0
cpu0_L2C TOTAL     ACCESS:  211796558  HIT:  140739318  MISS:   71057240
cpu0_L2C LOAD      ACCESS:   17361427  HIT:        453  MISS:   17360974
cpu0_L2C RFO       ACCESS:   97217321  HIT:   43524970  MISS:   53692351
cpu0_L2C PREFETCH  ACCESS:          0  HIT:          0  MISS:          0
cpu0_L2C WRITEBACK ACCESS:   97217329  HIT:   97213895  MISS:       3434
LLC TOTAL     ACCESS:  124747304  HIT:    1230591  MISS:  123516713
LLC LOAD      ACCESS:   17360974  HIT:          0  MISS:   17360974
LLC RFO       ACCESS:   53690122  HIT:    1224582  MISS:   52465540
LLC PREFETCH  ACCESS:          0  HIT:          0  MISS:          0
LLC WRITEBACK ACCESS:   53695727  HIT:       6009  MISS:   53689718
Finished CPU 0 instructions: 1500000003 cycles: 6954411581 cumulative IPC: 0.21569 (Simulation time: 24 hr 35 min 23 sec) 

ChampSim completed all CPUs

Region of Interest Statistics

CPU 0 cumulative IPC: 0.21569 instructions: 1500000003 cycles: 6954411581
cpu0_DTLB TOTAL     ACCESS:  264659575  HIT:  262659405  MISS:    2000170
cpu0_DTLB LOAD      ACCESS:  118288078  HIT:  118016662  MISS:     271416
cpu0_DTLB RFO       ACCESS:  146371497  HIT:  144642743  MISS:    1728754
cpu0_DTLB PREFETCH  ACCESS:          0  HIT:          0  MISS:          0
cpu0_DTLB WRITEBACK ACCESS:          0  HIT:          0  MISS:          0
cpu0_DTLB TRANSLATION ACCESS:          0  HIT:          0  MISS:          0
cpu0_DTLB PREFETCH  REQUESTED:          0  ISSUED:          0  USEFUL:          0  USELESS:          0
cpu0_DTLB AVERAGE MISS LATENCY: 519.519 cycles
cpu0_ITLB TOTAL     ACCESS:   27379943  HIT:   27379943  MISS:          0
cpu0_ITLB LOAD      ACCESS:   27379943  HIT:   27379943  MISS:          0
cpu0_ITLB RFO       ACCESS:          0  HIT:          0  MISS:          0
cpu0_ITLB PREFETCH  ACCESS:          0  HIT:          0  MISS:          0
cpu0_ITLB WRITEBACK ACCESS:          0  HIT:          0  MISS:          0
cpu0_ITLB TRANSLATION ACCESS:          0  HIT:          0  MISS:          0
cpu0_ITLB PREFETCH  REQUESTED:          0  ISSUED:          0  USEFUL:          0  USELESS:          0
cpu0_ITLB AVERAGE MISS LATENCY: -nan cycles
cpu0_L1I TOTAL     ACCESS:   33110616  HIT:   33110616  MISS:          0
cpu0_L1I LOAD      ACCESS:   33110616  HIT:   33110616  MISS:          0
cpu0_L1I RFO       ACCESS:          0  HIT:          0  MISS:          0
cpu0_L1I PREFETCH  ACCESS:          0  HIT:          0  MISS:          0
cpu0_L1I WRITEBACK ACCESS:          0  HIT:          0  MISS:          0
cpu0_L1I TRANSLATION ACCESS:          0  HIT:          0  MISS:          0
cpu0_L1I PREFETCH  REQUESTED:          0  ISSUED:          0  USEFUL:          0  USELESS:          0
cpu0_L1I AVERAGE MISS LATENCY: -nan cycles
cpu0_STLB TOTAL     ACCESS:    2000170  HIT:     914860  MISS:    1085310
cpu0_STLB LOAD      ACCESS:     271416  HIT:          2  MISS:     271414
cpu0_STLB RFO       ACCESS:    1728754  HIT:     914858  MISS:     813896
cpu0_STLB PREFETCH  ACCESS:          0  HIT:          0  MISS:          0
cpu0_STLB WRITEBACK ACCESS:          0  HIT:          0  MISS:          0
cpu0_STLB TRANSLATION ACCESS:          0  HIT:          0  MISS:          0
cpu0_STLB PREFETCH  REQUESTED:          0  ISSUED:          0  USEFUL:          0  USELESS:          0
cpu0_STLB AVERAGE MISS LATENCY: 940.726 cycles
cpu0_L1D TOTAL     ACCESS:  352968086  HIT:  238388848  MISS:  114579238
cpu0_L1D LOAD      ACCESS:   84014257  HIT:   66652830  MISS:   17361427
cpu0_L1D RFO       ACCESS:  267931542  HIT:  170714212  MISS:   97217330
cpu0_L1D PREFETCH  ACCESS:          0  HIT:          0  MISS:          0
cpu0_L1D WRITEBACK ACCESS:          0  HIT:          0  MISS:          0
cpu0_L1D TRANSLATION ACCESS:    1022287  HIT:    1021806  MISS:        481
cpu0_L1D PREFETCH  REQUESTED:          0  ISSUED:          0  USEFUL:          0  USELESS:          0
cpu0_L1D AVERAGE MISS LATENCY: 754.546 cycles
cpu0_L2C TOTAL     ACCESS:  211796558  HIT:  140739318  MISS:   71057240
cpu0_L2C LOAD      ACCESS:   17361427  HIT:        453  MISS:   17360974
cpu0_L2C RFO       ACCESS:   97217321  HIT:   43524970  MISS:   53692351
cpu0_L2C PREFETCH  ACCESS:          0  HIT:          0  MISS:          0
cpu0_L2C WRITEBACK ACCESS:   97217329  HIT:   97213895  MISS:       3434
cpu0_L2C TRANSLATION ACCESS:        481  HIT:          0  MISS:        481
cpu0_L2C PREFETCH  REQUESTED:          0  ISSUED:          0  USEFUL:          0  USELESS:          0
cpu0_L2C AVERAGE MISS LATENCY: 1198.88 cycles
LLC TOTAL     ACCESS:  124747304  HIT:    1230591  MISS:  123516713
LLC LOAD      ACCESS:   17360974  HIT:          0  MISS:   17360974
LLC RFO       ACCESS:   53690122  HIT:    1224582  MISS:   52465540
LLC PREFETCH  ACCESS:          0  HIT:          0  MISS:          0
LLC WRITEBACK ACCESS:   53695727  HIT:       6009  MISS:   53689718
LLC TRANSLATION ACCESS:        481  HIT:          0  MISS:        481
LLC PREFETCH  REQUESTED:          0  ISSUED:          0  USEFUL:          0  USELESS:          0
LLC AVERAGE MISS LATENCY: 677.62 cycles
~~~~~~~~~~Reuse Distance Profiler output~~~~~~~~~~
0	0	0
1	0	0
2	0	0
3	0	0
4	0	0
5	0	0
6	0	0
7	0	0
8	0	0
9	0	0
10	0	0
11	0	0
12	0	0
13	0	0
14	0	0
15	0	0
16	0	0
17	0	0
18	0	0
19	0	0
20	0	0
21	0	0
22	0	0
23	0	0
24	0	0
25	0	0
26	0	0
27	0	0
28	0	0
29	0	0
30	0	0
31	0	0
32	0	0
33	0	0
34	0	0
35	0	0
36	0	0
37	0	0
38	0	0
39	0	0
40	0	0
41	0	0
42	0	0
43	0	0
44	0	0
45	0	0
46	0	0
47	0	0
48	0	0
49	0	0
50	0	0
51	0	0
52	0	0
53	0	0
54	0	0
55	0	0
56	0	0
57	0	0
58	0	0
59	0	0
60	0	0
61	0	0
62	0	0
63	0	0
64	0	0
66	0	0
68	0	0
70	0	0
72	0	0
74	0	0
76	0	0
78	0	0
80	0	0
82	0	0
84	0	0
86	0	0
88	0	0
90	0	0
92	0	0
94	0	0
96	0	0
98	0	0
100	0	0
102	0	0
104	0	0
106	0	0
108	0	0
110	0	0
112	0	0
114	0	0
116	0	0
118	0	0
120	0	0
122	0	0
124	0	0
126	0	0
128	0	0
132	0	0
136	0	0
140	0	0
144	0	0
148	0	0
152	0	0
156	0	0
160	0	0
164	0	0
168	0	0
172	0	0
176	0	0
180	0	0
184	0	0
188	0	0
192	0	0
196	0	0
200	0	0
204	0	0
208	0	0
212	0	0
216	0	0
220	0	0
224	0	0
228	0	0
232	0	0
236	0	0
240	0	0
244	0	0
248	0	0
252	0	0
256	0	0
264	0	0
272	0	0
280	0	0
288	0	0
296	0	0
304	0	0
312	0	0
320	0	0
328	0	0
336	0	0
344	0	0
352	0	0
360	0	0
368	0	0
376	0	0
384	0	0
392	0	0
400	0	0
408	0	0
416	0	0
424	0	0
432	0	0
440	0	0
448	0	0
456	0	0
464	0	0
472	0	0
480	0	0
488	0	0
496	0	0
504	0	0
512	0	0
528	0	0
544	0	0
560	0	0
576	0	0
592	0	0
608	0	0
624	0	0
640	0	0
656	0	0
672	0	0
688	0	0
704	0	0
720	0	0
736	0	0
752	0	0
768	0	0
784	0	0
800	0	0
816	0	0
832	0	0
848	0	0
864	0	0
880	0	0
896	0	0
912	0	0
928	0	0
944	0	0
960	0	0
976	0	0
992	0	0
1008	0	0
1024	0	0
1056	0	0
1088	0	0
1120	0	0
1152	0	0
1184	0	0
1216	0	0
1248	0	0
1280	0	0
1312	0	0
1344	0	0
1376	0	0
1408	0	0
1440	0	0
1472	0	0
1504	0	0
1536	0	0
1568	0	0
1600	0	0
1632	0	0
1664	0	0
1696	0	0
1728	0	0
1760	0	0
1792	0	0
1824	0	0
1856	0	0
1888	0	0
1920	0	0
1952	0	0
1984	0	0
2016	0	0
2048	0	0
2112	0	0
2176	0	0
2240	0	0
2304	0	0
2368	0	0
2432	0	0
2496	0	0
2560	0	0
2624	0	0
2688	0	0
2752	0	0
2816	0	0
2880	0	0
2944	0	0
3008	0	0
3072	0	0
3136	0	0
3200	0	0
3264	0	0
3328	0	0
3392	0	0
3456	0	0
3520	0	0
3584	0	0
3648	0	0
3712	0	0
3776	0	0
3840	0	0
3904	0	0
3968	0	0
4032	0	0
4096	0	0
4224	0	0
4352	0	0
4480	0	0
4608	0	0
4736	0	0
4864	0	0
4992	0	0
5120	0	0
5248	0	0
5376	0	0
5504	0	0
5632	0	0
5760	0	0
5888	0	0
6016	0	0
6144	0	0
6272	0	0
6400	0	0
6528	0	0
6656	0	0
6784	0	0
6912	0	0
7040	0	0
7168	0	0
7296	0	0
7424	0	0
7552	0	0
7680	0	0
7808	0	0
7936	0	0
8064	0	0
8192	0	0
8448	0	0
8704	0	0
8960	0	0
9216	0	0
9472	0	0
9728	0	0
9984	0	0
10240	0	0
10496	0	0
10752	0	0
11008	0	0
11264	0	0
11520	0	0
11776	0	0
12032	0	0
12288	0	0
12544	0	0
12800	0	0
13056	0	0
13312	0	0
13568	0	0
13824	0	0
14080	0	0
14336	0	0
14592	0	0
14848	0	0
15104	0	0
15360	0	0
15616	0	0
15872	0	0
16128	0	0
16384	0	0
16896	0	0
17408	0	0
17920	0	0
18432	0	0
18944	0	0
19456	0	0
19968	0	0
20480	0	0
20992	0	0
21504	0	0
22016	0	0
22528	0	0
23040	0	0
23552	0	0
24064	0	0
24576	0	0
25088	0	0
25600	0	0
26112	0	0
26624	0	0
27136	0	0
27648	0	0
28160	0	0
28672	0	0
29184	0	0
29696	0	0
30208	0	0
30720	0	0
31232	0	0
31744	0	0
32256	0	0
32768	0	0
33792	0	0
34816	0	0
35840	0	0
36864	0	0
37888	0	0
38912	0	0
39936	0	0
40960	0	0
41984	0	0
43008	0	0
44032	0	0
45056	0	0
46080	0	0
47104	0	0
48128	0	0
49152	0	0
50176	0	0
51200	0	0
52224	0	0
53248	0	0
54272	0	0
55296	0	0
56320	0	0
57344	0	0
58368	0	0
59392	0	0
60416	0	0
61440	0	0
62464	0	0
63488	0	0
64512	0	0
65536	0	0
67584	0	0
69632	0	0
71680	0	0
73728	0	0
75776	0	0
77824	0	0
79872	0	0
81920	0	0
83968	0	0
86016	0	0
88064	0	0
90112	0	0
92160	0	0
94208	0	0
96256	0	0
98304	0	0
100352	0	0
102400	0	0
104448	0	0
106496	0	0
108544	0	0
110592	0	0
112640	0	0
114688	0	0
116736	0	0
118784	0	0
120832	0	0
122880	0	0
124928	0	0
126976	0	0
129024	0	0
131072	0	0
135168	0	0
139264	0	0
143360	0	0
147456	0	0
151552	0	0
155648	0	0
159744	0	0
163840	0	0
167936	0	0
172032	0	0
176128	0	0
180224	0	0
184320	0	0
188416	0	0
192512	0	0
196608	0	0
200704	0	0
204800	0	0
208896	0	0
212992	0	0
217088	0	0
221184	0	0
225280	0	0
229376	0	0
233472	0	0
237568	0	0
241664	0	0
245760	0	0
249856	0	0
253952	0	0
258048	0	0
262144	0	0
270336	0	0
278528	0	0
286720	0	0
294912	0	0
303104	0	0
311296	0	0
319488	0	0
327680	0	0
335872	0	0
344064	0	0
352256	0	0
360448	0	0
368640	0	0
376832	0	0
385024	0	0
393216	0	0
401408	0	0
409600	0	0
417792	0	0
425984	0	0
434176	0	0
442368	0	0
450560	0	0
458752	0	0
466944	0	0
475136	0	0
483328	0	0
491520	0	0
499712	0	0
507904	0	0
516096	0	0
524288	0	0
540672	0	0
557056	0	0
573440	0	0
589824	0	0
606208	0	0
622592	0	0
638976	0	0
655360	0	0
671744	0	0
688128	0	0
704512	0	0
720896	0	0
737280	0	0
753664	0	0
770048	0	0
786432	0	0
802816	0	0
819200	0	0
835584	0	0
851968	0	0
868352	0	0
884736	0	0
901120	0	0
917504	0	0
933888	0	0
950272	0	0
966656	0	0
983040	0	0
999424	0	0
1015808	0	0
1032192	0	0
1048576	0	0
1081344	0	0
1114112	0	0
1146880	0	0
1179648	0	0
1212416	0	0
1245184	0	0
1277952	0	0
1310720	0	0
1343488	0	0
1376256	0	0
1409024	0	0
1441792	0	0
1474560	0	0
1507328	0	0
1540096	0	0
1572864	0	0
1605632	0	0
1638400	0	0
1671168	0	0
1703936	0	0
1736704	0	0
1769472	0	0
1802240	0	0
1835008	0	0
1867776	0	0
1900544	0	0
1933312	0	0
1966080	0	0
1998848	0	0
2031616	0	0
2064384	0	0
2097152	0	0
2162688	0	0
2228224	0	0
2293760	0	0
2359296	0	0
2424832	0	0
2490368	0	0
2555904	0	0
2621440	0	0
2686976	0	0
2752512	0	0
2818048	0	0
2883584	0	0
2949120	0	0
3014656	0	0
3080192	0	0
3145728	0	0
3211264	0	0
3276800	0	0
3342336	0	0
3407872	0	0
3473408	0	0
3538944	0	0
3604480	0	0
3670016	0	0
3735552	0	0
3801088	0	0
3866624	0	0
3932160	0	0
3997696	0	0
4063232	0	0
4128768	0	0
4194304	0	0
4325376	0	0
4456448	0	0
4587520	0	0
4718592	0	0
4849664	0	0
4980736	0	0
5111808	0	0
5242880	0	0
5373952	0	0
5505024	0	0
5636096	0	0
5767168	0	0
5898240	0	0
6029312	0	0
6160384	0	0
6291456	0	0
6422528	0	0
6553600	0	0
6684672	0	0
6815744	0	0
6946816	0	0
7077888	0	0
7208960	0	0
7340032	0	0
7471104	0	0
7602176	0	0
7733248	0	0
7864320	0	0
7995392	0	0
8126464	0	0
8257536	0	0
8388608	0	0
8650752	0	0
8912896	0	0
9175040	0	0
9437184	0	0
9699328	0	0
9961472	0	0
10223616	0	0
10485760	0	0
10747904	0	0
11010048	0	0
11272192	0	0
11534336	0	0
11796480	0	0
12058624	0	0
12320768	0	0
12582912	0	0
12845056	0	0
13107200	0	0
13369344	0	0
13631488	0	0
13893632	0	0
14155776	0	0
14417920	0	0
14680064	0	0
14942208	0	0
15204352	0	0
15466496	0	0
15728640	0	0
15990784	0	0
16252928	0	0
16515072	0	0
16777216	0	0
17301504	0	0
17825792	0	0
18350080	0	0
18874368	0	0
19398656	0	0
19922944	0	0
20447232	0	0
20971520	0	0
21495808	0	0
22020096	0	0
22544384	0	0
23068672	0	0
23592960	0	0
24117248	0	0
24641536	0	0
25165824	0	0
25690112	0	0
26214400	0	0
26738688	0	0
27262976	0	0
27787264	0	0
28311552	0	0
28835840	0	0
29360128	0	0
29884416	0	0
30408704	0	0
30932992	0	0
31457280	0	0
31981568	0	0
32505856	0	0
33030144	0	0
33554432	0	0
34603008	0	0
35651584	0	0
36700160	0	0
37748736	0	0
38797312	0	0
39845888	0	0
40894464	0	0
41943040	0	0
42991616	0	0
44040192	0	0
45088768	0	0
46137344	0	0
47185920	0	0
48234496	0	0
49283072	0	0
50331648	0	0
51380224	0	0
52428800	0	0
53477376	0	0
54525952	0	0
55574528	0	0
56623104	0	0
57671680	0	0
58720256	0	0
59768832	0	0
60817408	0	0
61865984	0	0
62914560	0	0
63963136	0	0
65011712	0	0
66060288	0	0
67108864	0	0
69206016	0	0
71303168	0	0
73400320	0	0
75497472	0	0
77594624	0	0
79691776	0	0
81788928	0	0
83886080	0	0
85983232	0	0
88080384	0	0
90177536	0	0
92274688	0	0
94371840	0	0
96468992	0	0
98566144	0	0
100663296	0	0
102760448	0	0
104857600	0	0
106954752	0	0
109051904	0	0
111149056	0	0
113246208	0	0
115343360	0	0
117440512	0	0
119537664	0	0
121634816	0	0
123731968	0	0
125829120	0	0
127926272	0	0
130023424	0	0
132120576	0	0
134217728	0	0
138412032	0	0
142606336	0	0
146800640	0	0
150994944	0	0
155189248	0	0
159383552	0	0
163577856	0	0
167772160	0	0
171966464	0	0
176160768	0	0
180355072	0	0
184549376	0	0
188743680	0	0
192937984	0	0
197132288	0	0
201326592	0	0
205520896	0	0
209715200	0	0
213909504	0	0
218103808	0	0
222298112	0	0
226492416	0	0
230686720	0	0
234881024	0	0
239075328	0	0
243269632	0	0
247463936	0	0
251658240	0	0
255852544	0	0
260046848	0	0
264241152	0	0
268435456	0	0
276824064	0	0
285212672	0	0
293601280	0	0
301989888	0	0
310378496	0	0
318767104	0	0
327155712	0	0
335544320	0	0
343932928	0	0
352321536	0	0
360710144	0	0
369098752	0	0
377487360	0	0
385875968	0	0
394264576	0	0
402653184	0	0
411041792	0	0
419430400	0	0
427819008	0	0
436207616	0	0
444596224	0	0
452984832	0	0
461373440	0	0
469762048	0	0
478150656	0	0
486539264	0	0
494927872	0	0
503316480	0	0
511705088	0	0
520093696	0	0
528482304	0	0
536870912	0	0
553648128	0	0
570425344	0	0
587202560	0	0
603979776	0	0
620756992	0	0
637534208	0	0
654311424	0	0
671088640	0	0
687865856	0	0
704643072	0	0
721420288	0	0
738197504	0	0
754974720	0	0
771751936	0	0
788529152	0	0
805306368	0	0
822083584	0	0
838860800	0	0
855638016	0	0
872415232	0	0
889192448	0	0
905969664	0	0
922746880	0	0
939524096	0	0
956301312	0	0
973078528	0	0
989855744	0	0
1006632960	0	0
1023410176	0	0
1040187392	0	0
1056964608	0	0
1073741824	0	0
1107296256	0	0
1140850688	0	0
1174405120	0	0
1207959552	0	0
1241513984	0	0
1275068416	0	0
1308622848	0	0
1342177280	0	0
1375731712	0	0
1409286144	0	0
1442840576	0	0
1476395008	0	0
1509949440	0	0
1543503872	0	0
1577058304	0	0
1610612736	0	0
1644167168	0	0
1677721600	0	0
1711276032	0	0
1744830464	0	0
1778384896	0	0
1811939328	0	0
1845493760	0	0
1879048192	0	0
1912602624	0	0
1946157056	0	0
1979711488	0	0
2013265920	0	0
2046820352	0	0
2080374784	0	0
2113929216	0	0
2147483648	0	0
2214592512	0	0
2281701376	0	0
2348810240	0	0
2415919104	0	0
2483027968	0	0
2550136832	0	0
2617245696	0	0
2684354560	0	0
2751463424	0	0
2818572288	0	0
2885681152	0	0
2952790016	0	0
3019898880	0	0
3087007744	0	0
3154116608	0	0
3221225472	0	0
3288334336	0	0
3355443200	0	0
3422552064	0	0
3489660928	0	0
3556769792	0	0
3623878656	0	0
3690987520	0	0
3758096384	0	0
3825205248	0	0
3892314112	0	0
3959422976	0	0
4026531840	0	0
4093640704	0	0
4160749568	0	0
4227858432	0	0
~~~~~~~~~~Reuse Distance Profiler output end~~~~~~~~~~


DRAM Statistics
 CHANNEL 0
 RQ ROW_BUFFER_HIT:    2069478  ROW_BUFFER_MISS:   67737779
 DBUS AVG_CONGESTED_CYCLE:    4.00043
 WQ ROW_BUFFER_HIT:     693224  ROW_BUFFER_MISS:   53002111  FULL:          0


CPU 0 Branch Prediction Accuracy: 96.1064% MPKI: 0.6851 Average ROB Occupancy at Mispredict: 257.66
Branch type MPKI
BRANCH_DIRECT_JUMP: 0
BRANCH_INDIRECT: 0
BRANCH_CONDITIONAL: 0.6851
BRANCH_DIRECT_CALL: 0
BRANCH_INDIRECT_CALL: 0
BRANCH_RETURN: 0

