
*** ChampSim Multicore Out-of-Order Simulator ***

Warmup Instructions: 50000000
Simulation Instructions: 1500000000
Number of CPUs: 1
Off-chip DRAM Size: 4 GiB Channels: 1 Width: 64-bit Data Rate: 3200 MT/s

VirtualMemory physical capacity: 8588881920 num_ppages: 2096895
VirtualMemory page size: 4096 log2_page_size: 12

CPU 0 runs traces/619.lbm_s-2677B.champsimtrace.xz
CPU 0 Bimodal branch predictor
Basic BTB sets: 1024 ways: 8 indirect buffer size: 4096 RAS size: 64
Initializing LRU.
Initializing LRU.
Initializing LRU.
Initializing LRU.
Initializing rdLRU.
Initializing LRU.
Initializing LRU.
Heartbeat CPU 0 instructions: 2000003 cycles: 516926 heartbeat IPC: 3.86903 cumulative IPC: 3.86903 (Simulation time: 0 hr 0 min 54 sec) 
Heartbeat CPU 0 instructions: 4000001 cycles: 1032235 heartbeat IPC: 3.88116 cumulative IPC: 3.87509 (Simulation time: 0 hr 1 min 46 sec) 
Heartbeat CPU 0 instructions: 6000003 cycles: 1550739 heartbeat IPC: 3.85725 cumulative IPC: 3.86912 (Simulation time: 0 hr 2 min 38 sec) 
Heartbeat CPU 0 instructions: 8000003 cycles: 2074124 heartbeat IPC: 3.82128 cumulative IPC: 3.85705 (Simulation time: 0 hr 3 min 33 sec) 
Heartbeat CPU 0 instructions: 10000003 cycles: 2592810 heartbeat IPC: 3.8559 cumulative IPC: 3.85682 (Simulation time: 0 hr 4 min 25 sec) 
Heartbeat CPU 0 instructions: 12000002 cycles: 3106233 heartbeat IPC: 3.89542 cumulative IPC: 3.8632 (Simulation time: 0 hr 5 min 11 sec) 
Heartbeat CPU 0 instructions: 14000000 cycles: 3624397 heartbeat IPC: 3.85978 cumulative IPC: 3.86271 (Simulation time: 0 hr 6 min 0 sec) 
Heartbeat CPU 0 instructions: 16000003 cycles: 4144689 heartbeat IPC: 3.844 cumulative IPC: 3.86036 (Simulation time: 0 hr 6 min 51 sec) 
Heartbeat CPU 0 instructions: 18000003 cycles: 4663562 heartbeat IPC: 3.85451 cumulative IPC: 3.85971 (Simulation time: 0 hr 7 min 44 sec) 
Heartbeat CPU 0 instructions: 20000001 cycles: 5181067 heartbeat IPC: 3.86469 cumulative IPC: 3.86021 (Simulation time: 0 hr 8 min 35 sec) 
Heartbeat CPU 0 instructions: 22000002 cycles: 5697145 heartbeat IPC: 3.87539 cumulative IPC: 3.86158 (Simulation time: 0 hr 9 min 24 sec) 
Heartbeat CPU 0 instructions: 24000003 cycles: 6215585 heartbeat IPC: 3.85773 cumulative IPC: 3.86126 (Simulation time: 0 hr 10 min 17 sec) 
Heartbeat CPU 0 instructions: 26000000 cycles: 6736549 heartbeat IPC: 3.83903 cumulative IPC: 3.85954 (Simulation time: 0 hr 11 min 7 sec) 
Heartbeat CPU 0 instructions: 28000003 cycles: 7253150 heartbeat IPC: 3.87147 cumulative IPC: 3.86039 (Simulation time: 0 hr 11 min 58 sec) 
Heartbeat CPU 0 instructions: 30000002 cycles: 7773138 heartbeat IPC: 3.84624 cumulative IPC: 3.85945 (Simulation time: 0 hr 12 min 50 sec) 
Heartbeat CPU 0 instructions: 32000001 cycles: 8285797 heartbeat IPC: 3.90123 cumulative IPC: 3.86203 (Simulation time: 0 hr 13 min 39 sec) 
Heartbeat CPU 0 instructions: 34000000 cycles: 8805750 heartbeat IPC: 3.8465 cumulative IPC: 3.86111 (Simulation time: 0 hr 14 min 31 sec) 
Heartbeat CPU 0 instructions: 36000001 cycles: 9325895 heartbeat IPC: 3.84508 cumulative IPC: 3.86022 (Simulation time: 0 hr 15 min 24 sec) 
Heartbeat CPU 0 instructions: 38000000 cycles: 9843455 heartbeat IPC: 3.86428 cumulative IPC: 3.86043 (Simulation time: 0 hr 16 min 14 sec) 
Heartbeat CPU 0 instructions: 40000002 cycles: 10359181 heartbeat IPC: 3.87803 cumulative IPC: 3.86131 (Simulation time: 0 hr 17 min 2 sec) 
Heartbeat CPU 0 instructions: 42000001 cycles: 10876649 heartbeat IPC: 3.86497 cumulative IPC: 3.86148 (Simulation time: 0 hr 17 min 55 sec) 
Heartbeat CPU 0 instructions: 44000000 cycles: 11398371 heartbeat IPC: 3.83346 cumulative IPC: 3.8602 (Simulation time: 0 hr 18 min 47 sec) 
Heartbeat CPU 0 instructions: 46000003 cycles: 11915689 heartbeat IPC: 3.8661 cumulative IPC: 3.86046 (Simulation time: 0 hr 19 min 35 sec) 
Heartbeat CPU 0 instructions: 48000000 cycles: 12433762 heartbeat IPC: 3.86045 cumulative IPC: 3.86046 (Simulation time: 0 hr 20 min 30 sec) 
Heartbeat CPU 0 instructions: 50000003 cycles: 12950970 heartbeat IPC: 3.86692 cumulative IPC: 3.86071 (Simulation time: 0 hr 21 min 20 sec) 

Warmup complete CPU 0 instructions: 50000003 cycles: 12950970 (Simulation time: 0 hr 21 min 20 sec) 

Heartbeat CPU 0 instructions: 52000001 cycles: 22721631 heartbeat IPC: 0.204694 cumulative IPC: 0.204694 (Simulation time: 0 hr 28 min 8 sec) 

Region of Interest Statistics
cpu0_DTLB TOTAL     ACCESS:     362344  HIT:     359506  MISS:       2838
cpu0_DTLB LOAD      ACCESS:     159724  HIT:     159339  MISS:        385
cpu0_DTLB RFO       ACCESS:     202620  HIT:     200167  MISS:       2453
cpu0_DTLB PREFETCH  ACCESS:          0  HIT:          0  MISS:          0
cpu0_DTLB WRITEBACK ACCESS:          0  HIT:          0  MISS:          0
cpu0_ITLB TOTAL     ACCESS:      39671  HIT:      39671  MISS:          0
cpu0_ITLB LOAD      ACCESS:      39671  HIT:      39671  MISS:          0
cpu0_ITLB RFO       ACCESS:          0  HIT:          0  MISS:          0
cpu0_ITLB PREFETCH  ACCESS:          0  HIT:          0  MISS:          0
cpu0_ITLB WRITEBACK ACCESS:          0  HIT:          0  MISS:          0
cpu0_L1I TOTAL     ACCESS:      44833  HIT:      44833  MISS:          0
cpu0_L1I LOAD      ACCESS:      44833  HIT:      44833  MISS:          0
cpu0_L1I RFO       ACCESS:          0  HIT:          0  MISS:          0
cpu0_L1I PREFETCH  ACCESS:          0  HIT:          0  MISS:          0
cpu0_L1I WRITEBACK ACCESS:          0  HIT:          0  MISS:          0
cpu0_STLB TOTAL     ACCESS:       2838  HIT:       1299  MISS:       1539
cpu0_STLB LOAD      ACCESS:        385  HIT:          0  MISS:        385
cpu0_STLB RFO       ACCESS:       2453  HIT:       1299  MISS:       1154
cpu0_STLB PREFETCH  ACCESS:          0  HIT:          0  MISS:          0
cpu0_STLB WRITEBACK ACCESS:          0  HIT:          0  MISS:          0
cpu0_L1D TOTAL     ACCESS:     479005  HIT:     316596  MISS:     162409
cpu0_L1D LOAD      ACCESS:     112554  HIT:      87942  MISS:      24612
cpu0_L1D RFO       ACCESS:     364912  HIT:     227115  MISS:     137797
cpu0_L1D PREFETCH  ACCESS:          0  HIT:          0  MISS:          0
cpu0_L1D WRITEBACK ACCESS:          0  HIT:          0  MISS:          0
cpu0_L2C TOTAL     ACCESS:     300205  HIT:     199499  MISS:     100706
cpu0_L2C LOAD      ACCESS:      24612  HIT:          0  MISS:      24612
cpu0_L2C RFO       ACCESS:     137797  HIT:      61706  MISS:      76091
cpu0_L2C PREFETCH  ACCESS:          0  HIT:          0  MISS:          0
cpu0_L2C WRITEBACK ACCESS:     137796  HIT:     137793  MISS:          3
LLC TOTAL     ACCESS:     176933  HIT:      78370  MISS:      98563
LLC LOAD      ACCESS:      24612  HIT:          0  MISS:      24612
LLC RFO       ACCESS:      76087  HIT:       2275  MISS:      73812
LLC PREFETCH  ACCESS:          0  HIT:          0  MISS:          0
LLC WRITEBACK ACCESS:      76234  HIT:      76095  MISS:        139
Heartbeat CPU 0 instructions: 54000001 cycles: 31258665 heartbeat IPC: 0.234273 cumulative IPC: 0.218487 (Simulation time: 0 hr 33 min 56 sec) 

Region of Interest Statistics
cpu0_DTLB TOTAL     ACCESS:     702407  HIT:     697143  MISS:       5264
cpu0_DTLB LOAD      ACCESS:     315593  HIT:     314878  MISS:        715
cpu0_DTLB RFO       ACCESS:     386814  HIT:     382265  MISS:       4549
cpu0_DTLB PREFETCH  ACCESS:          0  HIT:          0  MISS:          0
cpu0_DTLB WRITEBACK ACCESS:          0  HIT:          0  MISS:          0
cpu0_ITLB TOTAL     ACCESS:      71136  HIT:      71136  MISS:          0
cpu0_ITLB LOAD      ACCESS:      71136  HIT:      71136  MISS:          0
cpu0_ITLB RFO       ACCESS:          0  HIT:          0  MISS:          0
cpu0_ITLB PREFETCH  ACCESS:          0  HIT:          0  MISS:          0
cpu0_ITLB WRITEBACK ACCESS:          0  HIT:          0  MISS:          0
cpu0_L1I TOTAL     ACCESS:      88265  HIT:      88265  MISS:          0
cpu0_L1I LOAD      ACCESS:      88265  HIT:      88265  MISS:          0
cpu0_L1I RFO       ACCESS:          0  HIT:          0  MISS:          0
cpu0_L1I PREFETCH  ACCESS:          0  HIT:          0  MISS:          0
cpu0_L1I WRITEBACK ACCESS:          0  HIT:          0  MISS:          0
cpu0_STLB TOTAL     ACCESS:       5264  HIT:       2407  MISS:       2857
cpu0_STLB LOAD      ACCESS:        715  HIT:          0  MISS:        715
cpu0_STLB RFO       ACCESS:       4549  HIT:       2407  MISS:       2142
cpu0_STLB PREFETCH  ACCESS:          0  HIT:          0  MISS:          0
cpu0_STLB WRITEBACK ACCESS:          0  HIT:          0  MISS:          0
cpu0_L1D TOTAL     ACCESS:     940460  HIT:     639022  MISS:     301438
cpu0_L1D LOAD      ACCESS:     225334  HIT:     179649  MISS:      45685
cpu0_L1D RFO       ACCESS:     712269  HIT:     456518  MISS:     255751
cpu0_L1D PREFETCH  ACCESS:          0  HIT:          0  MISS:          0
cpu0_L1D WRITEBACK ACCESS:          0  HIT:          0  MISS:          0
cpu0_L2C TOTAL     ACCESS:     557198  HIT:     370245  MISS:     186953
cpu0_L2C LOAD      ACCESS:      45685  HIT:          0  MISS:      45685
cpu0_L2C RFO       ACCESS:     255751  HIT:     114500  MISS:     141251
cpu0_L2C PREFETCH  ACCESS:          0  HIT:          0  MISS:          0
cpu0_L2C WRITEBACK ACCESS:     255760  HIT:     255745  MISS:         15
LLC TOTAL     ACCESS:     328337  HIT:     145434  MISS:     182903
LLC LOAD      ACCESS:      45685  HIT:          0  MISS:      45685
LLC RFO       ACCESS:     141247  HIT:       4252  MISS:     136995
LLC PREFETCH  ACCESS:          0  HIT:          0  MISS:          0
LLC WRITEBACK ACCESS:     141403  HIT:     141182  MISS:        221
Heartbeat CPU 0 instructions: 56000002 cycles: 41634159 heartbeat IPC: 0.192762 cumulative IPC: 0.209182 (Simulation time: 0 hr 40 min 57 sec) 

Region of Interest Statistics
cpu0_DTLB TOTAL     ACCESS:    1074581  HIT:    1066287  MISS:       8294
cpu0_DTLB LOAD      ACCESS:     476493  HIT:     475368  MISS:       1125
cpu0_DTLB RFO       ACCESS:     598088  HIT:     590919  MISS:       7169
cpu0_DTLB PREFETCH  ACCESS:          0  HIT:          0  MISS:          0
cpu0_DTLB WRITEBACK ACCESS:          0  HIT:          0  MISS:          0
cpu0_ITLB TOTAL     ACCESS:     115115  HIT:     115115  MISS:          0
cpu0_ITLB LOAD      ACCESS:     115115  HIT:     115115  MISS:          0
cpu0_ITLB RFO       ACCESS:          0  HIT:          0  MISS:          0
cpu0_ITLB PREFETCH  ACCESS:          0  HIT:          0  MISS:          0
cpu0_ITLB WRITEBACK ACCESS:          0  HIT:          0  MISS:          0
cpu0_L1I TOTAL     ACCESS:     133342  HIT:     133342  MISS:          0
cpu0_L1I LOAD      ACCESS:     133342  HIT:     133342  MISS:          0
cpu0_L1I RFO       ACCESS:          0  HIT:          0  MISS:          0
cpu0_L1I PREFETCH  ACCESS:          0  HIT:          0  MISS:          0
cpu0_L1I WRITEBACK ACCESS:          0  HIT:          0  MISS:          0
cpu0_STLB TOTAL     ACCESS:       8294  HIT:       3794  MISS:       4500
cpu0_STLB LOAD      ACCESS:       1125  HIT:          0  MISS:       1125
cpu0_STLB RFO       ACCESS:       7169  HIT:       3794  MISS:       3375
cpu0_STLB PREFETCH  ACCESS:          0  HIT:          0  MISS:          0
cpu0_STLB WRITEBACK ACCESS:          0  HIT:          0  MISS:          0
cpu0_L1D TOTAL     ACCESS:    1426238  HIT:     951251  MISS:     474987
cpu0_L1D LOAD      ACCESS:     337223  HIT:     265247  MISS:      71976
cpu0_L1D RFO       ACCESS:    1084515  HIT:     681506  MISS:     403009
cpu0_L1D PREFETCH  ACCESS:          0  HIT:          0  MISS:          0
cpu0_L1D WRITEBACK ACCESS:          0  HIT:          0  MISS:          0
cpu0_L2C TOTAL     ACCESS:     877999  HIT:     583766  MISS:     294233
cpu0_L2C LOAD      ACCESS:      71976  HIT:          0  MISS:      71976
cpu0_L2C RFO       ACCESS:     403009  HIT:     180774  MISS:     222235
cpu0_L2C PREFETCH  ACCESS:          0  HIT:          0  MISS:          0
cpu0_L2C WRITEBACK ACCESS:     403012  HIT:     402992  MISS:         20
LLC TOTAL     ACCESS:     516719  HIT:     228539  MISS:     288180
LLC LOAD      ACCESS:      71976  HIT:          0  MISS:      71976
LLC RFO       ACCESS:     222223  HIT:       6343  MISS:     215880
LLC PREFETCH  ACCESS:          0  HIT:          0  MISS:          0
LLC WRITEBACK ACCESS:     222518  HIT:     222196  MISS:        322
Heartbeat CPU 0 instructions: 58000001 cycles: 51011229 heartbeat IPC: 0.213286 cumulative IPC: 0.210193 (Simulation time: 0 hr 47 min 12 sec) 

Region of Interest Statistics
cpu0_DTLB TOTAL     ACCESS:    1429009  HIT:    1418019  MISS:      10990
cpu0_DTLB LOAD      ACCESS:     634581  HIT:     633090  MISS:       1491
cpu0_DTLB RFO       ACCESS:     794428  HIT:     784929  MISS:       9499
cpu0_DTLB PREFETCH  ACCESS:          0  HIT:          0  MISS:          0
cpu0_DTLB WRITEBACK ACCESS:          0  HIT:          0  MISS:          0
cpu0_ITLB TOTAL     ACCESS:     152472  HIT:     152472  MISS:          0
cpu0_ITLB LOAD      ACCESS:     152472  HIT:     152472  MISS:          0
cpu0_ITLB RFO       ACCESS:          0  HIT:          0  MISS:          0
cpu0_ITLB PREFETCH  ACCESS:          0  HIT:          0  MISS:          0
cpu0_ITLB WRITEBACK ACCESS:          0  HIT:          0  MISS:          0
cpu0_L1I TOTAL     ACCESS:     176878  HIT:     176878  MISS:          0
cpu0_L1I LOAD      ACCESS:     176878  HIT:     176878  MISS:          0
cpu0_L1I RFO       ACCESS:          0  HIT:          0  MISS:          0
cpu0_L1I PREFETCH  ACCESS:          0  HIT:          0  MISS:          0
cpu0_L1I WRITEBACK ACCESS:          0  HIT:          0  MISS:          0
cpu0_STLB TOTAL     ACCESS:      10990  HIT:       5028  MISS:       5962
cpu0_STLB LOAD      ACCESS:       1491  HIT:          0  MISS:       1491
cpu0_STLB RFO       ACCESS:       9499  HIT:       5028  MISS:       4471
cpu0_STLB PREFETCH  ACCESS:          0  HIT:          0  MISS:          0
cpu0_STLB WRITEBACK ACCESS:          0  HIT:          0  MISS:          0
cpu0_L1D TOTAL     ACCESS:    1898693  HIT:    1269195  MISS:     629498
cpu0_L1D LOAD      ACCESS:     449768  HIT:     354385  MISS:      95383
cpu0_L1D RFO       ACCESS:    1442963  HIT:     908850  MISS:     534113
cpu0_L1D PREFETCH  ACCESS:          0  HIT:          0  MISS:          0
cpu0_L1D WRITEBACK ACCESS:          0  HIT:          0  MISS:          0
cpu0_L2C TOTAL     ACCESS:    1163610  HIT:     773809  MISS:     389801
cpu0_L2C LOAD      ACCESS:      95383  HIT:          0  MISS:      95383
cpu0_L2C RFO       ACCESS:     534113  HIT:     239725  MISS:     294388
cpu0_L2C PREFETCH  ACCESS:          0  HIT:          0  MISS:          0
cpu0_L2C WRITEBACK ACCESS:     534112  HIT:     534084  MISS:         28
LLC TOTAL     ACCESS:     684340  HIT:     302508  MISS:     381832
LLC LOAD      ACCESS:      95383  HIT:          0  MISS:      95383
LLC RFO       ACCESS:     294376  HIT:       8260  MISS:     286116
LLC PREFETCH  ACCESS:          0  HIT:          0  MISS:          0
LLC WRITEBACK ACCESS:     294579  HIT:     294248  MISS:        331
Heartbeat CPU 0 instructions: 60000001 cycles: 60584651 heartbeat IPC: 0.208912 cumulative IPC: 0.209935 (Simulation time: 0 hr 53 min 6 sec) 

Region of Interest Statistics
cpu0_DTLB TOTAL     ACCESS:    1786959  HIT:    1773212  MISS:      13747
cpu0_DTLB LOAD      ACCESS:     793518  HIT:     791653  MISS:       1865
cpu0_DTLB RFO       ACCESS:     993441  HIT:     981559  MISS:      11882
cpu0_DTLB PREFETCH  ACCESS:          0  HIT:          0  MISS:          0
cpu0_DTLB WRITEBACK ACCESS:          0  HIT:          0  MISS:          0
cpu0_ITLB TOTAL     ACCESS:     191576  HIT:     191576  MISS:          0
cpu0_ITLB LOAD      ACCESS:     191576  HIT:     191576  MISS:          0
cpu0_ITLB RFO       ACCESS:          0  HIT:          0  MISS:          0
cpu0_ITLB PREFETCH  ACCESS:          0  HIT:          0  MISS:          0
cpu0_ITLB WRITEBACK ACCESS:          0  HIT:          0  MISS:          0
cpu0_L1I TOTAL     ACCESS:     220538  HIT:     220538  MISS:          0
cpu0_L1I LOAD      ACCESS:     220538  HIT:     220538  MISS:          0
cpu0_L1I RFO       ACCESS:          0  HIT:          0  MISS:          0
cpu0_L1I PREFETCH  ACCESS:          0  HIT:          0  MISS:          0
cpu0_L1I WRITEBACK ACCESS:          0  HIT:          0  MISS:          0
cpu0_STLB TOTAL     ACCESS:      13747  HIT:       6289  MISS:       7458
cpu0_STLB LOAD      ACCESS:       1865  HIT:          0  MISS:       1865
cpu0_STLB RFO       ACCESS:      11882  HIT:       6289  MISS:       5593
cpu0_STLB PREFETCH  ACCESS:          0  HIT:          0  MISS:          0
cpu0_STLB WRITEBACK ACCESS:          0  HIT:          0  MISS:          0
cpu0_L1D TOTAL     ACCESS:    2373590  HIT:    1586182  MISS:     787408
cpu0_L1D LOAD      ACCESS:     562154  HIT:     442846  MISS:     119308
cpu0_L1D RFO       ACCESS:    1803978  HIT:    1135880  MISS:     668098
cpu0_L1D PREFETCH  ACCESS:          0  HIT:          0  MISS:          0
cpu0_L1D WRITEBACK ACCESS:          0  HIT:          0  MISS:          0
cpu0_L2C TOTAL     ACCESS:    1455504  HIT:     967892  MISS:     487612
cpu0_L2C LOAD      ACCESS:     119309  HIT:          0  MISS:     119309
cpu0_L2C RFO       ACCESS:     668098  HIT:     299829  MISS:     368269
cpu0_L2C PREFETCH  ACCESS:          0  HIT:          0  MISS:          0
cpu0_L2C WRITEBACK ACCESS:     668095  HIT:     668063  MISS:         32
LLC TOTAL     ACCESS:     856027  HIT:     378414  MISS:     477613
LLC LOAD      ACCESS:     119309  HIT:          0  MISS:     119309
LLC RFO       ACCESS:     368255  HIT:      10365  MISS:     357890
LLC PREFETCH  ACCESS:          0  HIT:          0  MISS:          0
LLC WRITEBACK ACCESS:     368461  HIT:     368049  MISS:        412
Heartbeat CPU 0 instructions: 62000004 cycles: 69709575 heartbeat IPC: 0.21918 cumulative IPC: 0.211422 (Simulation time: 0 hr 58 min 2 sec) 

Region of Interest Statistics
cpu0_DTLB TOTAL     ACCESS:    2138655  HIT:    2122269  MISS:      16386
cpu0_DTLB LOAD      ACCESS:     951342  HIT:     949119  MISS:       2223
cpu0_DTLB RFO       ACCESS:    1187313  HIT:    1173150  MISS:      14163
cpu0_DTLB PREFETCH  ACCESS:          0  HIT:          0  MISS:          0
cpu0_DTLB WRITEBACK ACCESS:          0  HIT:          0  MISS:          0
cpu0_ITLB TOTAL     ACCESS:     228520  HIT:     228520  MISS:          0
cpu0_ITLB LOAD      ACCESS:     228520  HIT:     228520  MISS:          0
cpu0_ITLB RFO       ACCESS:          0  HIT:          0  MISS:          0
cpu0_ITLB PREFETCH  ACCESS:          0  HIT:          0  MISS:          0
cpu0_ITLB WRITEBACK ACCESS:          0  HIT:          0  MISS:          0
cpu0_L1I TOTAL     ACCESS:     263016  HIT:     263016  MISS:          0
cpu0_L1I LOAD      ACCESS:     263016  HIT:     263016  MISS:          0
cpu0_L1I RFO       ACCESS:          0  HIT:          0  MISS:          0
cpu0_L1I PREFETCH  ACCESS:          0  HIT:          0  MISS:          0
cpu0_L1I WRITEBACK ACCESS:          0  HIT:          0  MISS:          0
cpu0_STLB TOTAL     ACCESS:      16386  HIT:       7496  MISS:       8890
cpu0_STLB LOAD      ACCESS:       2223  HIT:          0  MISS:       2223
cpu0_STLB RFO       ACCESS:      14163  HIT:       7496  MISS:       6667
cpu0_STLB PREFETCH  ACCESS:          0  HIT:          0  MISS:          0
cpu0_STLB WRITEBACK ACCESS:          0  HIT:          0  MISS:          0
cpu0_L1D TOTAL     ACCESS:    2843518  HIT:    1904981  MISS:     938537
cpu0_L1D LOAD      ACCESS:     674807  HIT:     532598  MISS:     142209
cpu0_L1D RFO       ACCESS:    2159821  HIT:    1363495  MISS:     796326
cpu0_L1D PREFETCH  ACCESS:          0  HIT:          0  MISS:          0
cpu0_L1D WRITEBACK ACCESS:          0  HIT:          0  MISS:          0
cpu0_L2C TOTAL     ACCESS:    1734860  HIT:    1153808  MISS:     581052
cpu0_L2C LOAD      ACCESS:     142209  HIT:          1  MISS:     142208
cpu0_L2C RFO       ACCESS:     796326  HIT:     357520  MISS:     438806
cpu0_L2C PREFETCH  ACCESS:          0  HIT:          0  MISS:          0
cpu0_L2C WRITEBACK ACCESS:     796323  HIT:     796287  MISS:         36
LLC TOTAL     ACCESS:    1020169  HIT:     450883  MISS:     569286
LLC LOAD      ACCESS:     142208  HIT:          0  MISS:     142208
LLC RFO       ACCESS:     438790  HIT:      12208  MISS:     426582
LLC PREFETCH  ACCESS:          0  HIT:          0  MISS:          0
LLC WRITEBACK ACCESS:     439169  HIT:     438675  MISS:        494
Heartbeat CPU 0 instructions: 64000003 cycles: 79602986 heartbeat IPC: 0.202155 cumulative IPC: 0.210046 (Simulation time: 1 hr 3 min 42 sec) 

Region of Interest Statistics
cpu0_DTLB TOTAL     ACCESS:    2502686  HIT:    2483429  MISS:      19257
cpu0_DTLB LOAD      ACCESS:    1111131  HIT:    1108518  MISS:       2613
cpu0_DTLB RFO       ACCESS:    1391555  HIT:    1374911  MISS:      16644
cpu0_DTLB PREFETCH  ACCESS:          0  HIT:          0  MISS:          0
cpu0_DTLB WRITEBACK ACCESS:          0  HIT:          0  MISS:          0
cpu0_ITLB TOTAL     ACCESS:     268800  HIT:     268800  MISS:          0
cpu0_ITLB LOAD      ACCESS:     268800  HIT:     268800  MISS:          0
cpu0_ITLB RFO       ACCESS:          0  HIT:          0  MISS:          0
cpu0_ITLB PREFETCH  ACCESS:          0  HIT:          0  MISS:          0
cpu0_ITLB WRITEBACK ACCESS:          0  HIT:          0  MISS:          0
cpu0_L1I TOTAL     ACCESS:     308350  HIT:     308350  MISS:          0
cpu0_L1I LOAD      ACCESS:     308350  HIT:     308350  MISS:          0
cpu0_L1I RFO       ACCESS:          0  HIT:          0  MISS:          0
cpu0_L1I PREFETCH  ACCESS:          0  HIT:          0  MISS:          0
cpu0_L1I WRITEBACK ACCESS:          0  HIT:          0  MISS:          0
cpu0_STLB TOTAL     ACCESS:      19257  HIT:       8807  MISS:      10450
cpu0_STLB LOAD      ACCESS:       2613  HIT:          0  MISS:       2613
cpu0_STLB RFO       ACCESS:      16644  HIT:       8807  MISS:       7837
cpu0_STLB PREFETCH  ACCESS:          0  HIT:          0  MISS:          0
cpu0_STLB WRITEBACK ACCESS:          0  HIT:          0  MISS:          0
cpu0_L1D TOTAL     ACCESS:    3322862  HIT:    2219743  MISS:    1103119
cpu0_L1D LOAD      ACCESS:     787012  HIT:     619865  MISS:     167147
cpu0_L1D RFO       ACCESS:    2525705  HIT:    1589737  MISS:     935968
cpu0_L1D PREFETCH  ACCESS:          0  HIT:          0  MISS:          0
cpu0_L1D WRITEBACK ACCESS:          0  HIT:          0  MISS:          0
cpu0_L2C TOTAL     ACCESS:    2039082  HIT:    1356152  MISS:     682930
cpu0_L2C LOAD      ACCESS:     167147  HIT:          1  MISS:     167146
cpu0_L2C RFO       ACCESS:     935968  HIT:     420230  MISS:     515738
cpu0_L2C PREFETCH  ACCESS:          0  HIT:          0  MISS:          0
cpu0_L2C WRITEBACK ACCESS:     935963  HIT:     935921  MISS:         42
LLC TOTAL     ACCESS:    1198931  HIT:     529837  MISS:     669094
LLC LOAD      ACCESS:     167146  HIT:          0  MISS:     167146
LLC RFO       ACCESS:     515717  HIT:      14330  MISS:     501387
LLC PREFETCH  ACCESS:          0  HIT:          0  MISS:          0
LLC WRITEBACK ACCESS:     516064  HIT:     515507  MISS:        557
Heartbeat CPU 0 instructions: 66000000 cycles: 88987434 heartbeat IPC: 0.213118 cumulative IPC: 0.210425 (Simulation time: 1 hr 8 min 57 sec) 

Region of Interest Statistics
cpu0_DTLB TOTAL     ACCESS:    2857554  HIT:    2835596  MISS:      21958
cpu0_DTLB LOAD      ACCESS:    1269354  HIT:    1266374  MISS:       2980
cpu0_DTLB RFO       ACCESS:    1588200  HIT:    1569222  MISS:      18978
cpu0_DTLB PREFETCH  ACCESS:          0  HIT:          0  MISS:          0
cpu0_DTLB WRITEBACK ACCESS:          0  HIT:          0  MISS:          0
cpu0_ITLB TOTAL     ACCESS:     305569  HIT:     305569  MISS:          0
cpu0_ITLB LOAD      ACCESS:     305569  HIT:     305569  MISS:          0
cpu0_ITLB RFO       ACCESS:          0  HIT:          0  MISS:          0
cpu0_ITLB PREFETCH  ACCESS:          0  HIT:          0  MISS:          0
cpu0_ITLB WRITEBACK ACCESS:          0  HIT:          0  MISS:          0
cpu0_L1I TOTAL     ACCESS:     352748  HIT:     352748  MISS:          0
cpu0_L1I LOAD      ACCESS:     352748  HIT:     352748  MISS:          0
cpu0_L1I RFO       ACCESS:          0  HIT:          0  MISS:          0
cpu0_L1I PREFETCH  ACCESS:          0  HIT:          0  MISS:          0
cpu0_L1I WRITEBACK ACCESS:          0  HIT:          0  MISS:          0
cpu0_STLB TOTAL     ACCESS:      21958  HIT:      10042  MISS:      11916
cpu0_STLB LOAD      ACCESS:       2980  HIT:          0  MISS:       2980
cpu0_STLB RFO       ACCESS:      18978  HIT:      10042  MISS:       8936
cpu0_STLB PREFETCH  ACCESS:          0  HIT:          0  MISS:          0
cpu0_STLB WRITEBACK ACCESS:          0  HIT:          0  MISS:          0
cpu0_L1D TOTAL     ACCESS:    3795655  HIT:    2537730  MISS:    1257925
cpu0_L1D LOAD      ACCESS:     899616  HIT:     709014  MISS:     190602
cpu0_L1D RFO       ACCESS:    2884786  HIT:    1817467  MISS:    1067319
cpu0_L1D PREFETCH  ACCESS:          0  HIT:          0  MISS:          0
cpu0_L1D WRITEBACK ACCESS:          0  HIT:          0  MISS:          0
cpu0_L2C TOTAL     ACCESS:    2325240  HIT:    1546154  MISS:     779086
cpu0_L2C LOAD      ACCESS:     190602  HIT:          1  MISS:     190601
cpu0_L2C RFO       ACCESS:    1067319  HIT:     478883  MISS:     588436
cpu0_L2C PREFETCH  ACCESS:          0  HIT:          0  MISS:          0
cpu0_L2C WRITEBACK ACCESS:    1067315  HIT:    1067270  MISS:         45
LLC TOTAL     ACCESS:    1367709  HIT:     604790  MISS:     762919
LLC LOAD      ACCESS:     190601  HIT:          0  MISS:     190601
LLC RFO       ACCESS:     588413  HIT:      16661  MISS:     571752
LLC PREFETCH  ACCESS:          0  HIT:          0  MISS:          0
LLC WRITEBACK ACCESS:     588691  HIT:     588129  MISS:        562
Heartbeat CPU 0 instructions: 68000003 cycles: 98155205 heartbeat IPC: 0.218156 cumulative IPC: 0.211257 (Simulation time: 1 hr 13 min 56 sec) 

Region of Interest Statistics
cpu0_DTLB TOTAL     ACCESS:    3208513  HIT:    3183926  MISS:      24587
cpu0_DTLB LOAD      ACCESS:    1427087  HIT:    1423751  MISS:       3336
cpu0_DTLB RFO       ACCESS:    1781426  HIT:    1760175  MISS:      21251
cpu0_DTLB PREFETCH  ACCESS:          0  HIT:          0  MISS:          0
cpu0_DTLB WRITEBACK ACCESS:          0  HIT:          0  MISS:          0
cpu0_ITLB TOTAL     ACCESS:     341700  HIT:     341700  MISS:          0
cpu0_ITLB LOAD      ACCESS:     341700  HIT:     341700  MISS:          0
cpu0_ITLB RFO       ACCESS:          0  HIT:          0  MISS:          0
cpu0_ITLB PREFETCH  ACCESS:          0  HIT:          0  MISS:          0
cpu0_ITLB WRITEBACK ACCESS:          0  HIT:          0  MISS:          0
cpu0_L1I TOTAL     ACCESS:     395693  HIT:     395693  MISS:          0
cpu0_L1I LOAD      ACCESS:     395693  HIT:     395693  MISS:          0
cpu0_L1I RFO       ACCESS:          0  HIT:          0  MISS:          0
cpu0_L1I PREFETCH  ACCESS:          0  HIT:          0  MISS:          0
cpu0_L1I WRITEBACK ACCESS:          0  HIT:          0  MISS:          0
cpu0_STLB TOTAL     ACCESS:      24587  HIT:      11247  MISS:      13340
cpu0_STLB LOAD      ACCESS:       3336  HIT:          0  MISS:       3336
cpu0_STLB RFO       ACCESS:      21251  HIT:      11247  MISS:      10004
cpu0_STLB PREFETCH  ACCESS:          0  HIT:          0  MISS:          0
cpu0_STLB WRITEBACK ACCESS:          0  HIT:          0  MISS:          0
cpu0_L1D TOTAL     ACCESS:    4265106  HIT:    2856696  MISS:    1408410
cpu0_L1D LOAD      ACCESS:    1012299  HIT:     798897  MISS:     213402
cpu0_L1D RFO       ACCESS:    3240424  HIT:    2045421  MISS:    1195003
cpu0_L1D PREFETCH  ACCESS:          0  HIT:          0  MISS:          0
cpu0_L1D WRITEBACK ACCESS:          0  HIT:          0  MISS:          0
cpu0_L2C TOTAL     ACCESS:    2603409  HIT:    1731233  MISS:     872176
cpu0_L2C LOAD      ACCESS:     213402  HIT:          1  MISS:     213401
cpu0_L2C RFO       ACCESS:    1195003  HIT:     536283  MISS:     658720
cpu0_L2C PREFETCH  ACCESS:          0  HIT:          0  MISS:          0
cpu0_L2C WRITEBACK ACCESS:    1194999  HIT:    1194949  MISS:         50
LLC TOTAL     ACCESS:    1531116  HIT:     676917  MISS:     854199
LLC LOAD      ACCESS:     213401  HIT:          0  MISS:     213401
LLC RFO       ACCESS:     658697  HIT:      18546  MISS:     640151
LLC PREFETCH  ACCESS:          0  HIT:          0  MISS:          0
LLC WRITEBACK ACCESS:     659013  HIT:     658371  MISS:        642
Heartbeat CPU 0 instructions: 70000000 cycles: 107518955 heartbeat IPC: 0.213589 cumulative IPC: 0.211488 (Simulation time: 1 hr 19 min 16 sec) 

Region of Interest Statistics
cpu0_DTLB TOTAL     ACCESS:    3563574  HIT:    3536278  MISS:      27296
cpu0_DTLB LOAD      ACCESS:    1585028  HIT:    1581325  MISS:       3703
cpu0_DTLB RFO       ACCESS:    1978546  HIT:    1954953  MISS:      23593
cpu0_DTLB PREFETCH  ACCESS:          0  HIT:          0  MISS:          0
cpu0_DTLB WRITEBACK ACCESS:          0  HIT:          0  MISS:          0
cpu0_ITLB TOTAL     ACCESS:     380289  HIT:     380289  MISS:          0
cpu0_ITLB LOAD      ACCESS:     380289  HIT:     380289  MISS:          0
cpu0_ITLB RFO       ACCESS:          0  HIT:          0  MISS:          0
cpu0_ITLB PREFETCH  ACCESS:          0  HIT:          0  MISS:          0
cpu0_ITLB WRITEBACK ACCESS:          0  HIT:          0  MISS:          0
cpu0_L1I TOTAL     ACCESS:     438315  HIT:     438315  MISS:          0
cpu0_L1I LOAD      ACCESS:     438315  HIT:     438315  MISS:          0
cpu0_L1I RFO       ACCESS:          0  HIT:          0  MISS:          0
cpu0_L1I PREFETCH  ACCESS:          0  HIT:          0  MISS:          0
cpu0_L1I WRITEBACK ACCESS:          0  HIT:          0  MISS:          0
cpu0_STLB TOTAL     ACCESS:      27296  HIT:      12486  MISS:      14810
cpu0_STLB LOAD      ACCESS:       3703  HIT:          0  MISS:       3703
cpu0_STLB RFO       ACCESS:      23593  HIT:      12486  MISS:      11107
cpu0_STLB PREFETCH  ACCESS:          0  HIT:          0  MISS:          0
cpu0_STLB WRITEBACK ACCESS:          0  HIT:          0  MISS:          0
cpu0_L1D TOTAL     ACCESS:    4737518  HIT:    3173951  MISS:    1563567
cpu0_L1D LOAD      ACCESS:    1124502  HIT:     887592  MISS:     236910
cpu0_L1D RFO       ACCESS:    3599163  HIT:    2272512  MISS:    1326651
cpu0_L1D PREFETCH  ACCESS:          0  HIT:          0  MISS:          0
cpu0_L1D WRITEBACK ACCESS:          0  HIT:          0  MISS:          0
cpu0_L2C TOTAL     ACCESS:    2890214  HIT:    1921430  MISS:     968784
cpu0_L2C LOAD      ACCESS:     236910  HIT:          1  MISS:     236909
cpu0_L2C RFO       ACCESS:    1326651  HIT:     594832  MISS:     731819
cpu0_L2C PREFETCH  ACCESS:          0  HIT:          0  MISS:          0
cpu0_L2C WRITEBACK ACCESS:    1326647  HIT:    1326597  MISS:         50
LLC TOTAL     ACCESS:    1700685  HIT:     752410  MISS:     948275
LLC LOAD      ACCESS:     236909  HIT:          0  MISS:     236909
LLC RFO       ACCESS:     731790  HIT:      21115  MISS:     710675
LLC PREFETCH  ACCESS:          0  HIT:          0  MISS:          0
LLC WRITEBACK ACCESS:     731980  HIT:     731295  MISS:        685
Heartbeat CPU 0 instructions: 72000003 cycles: 116997901 heartbeat IPC: 0.210994 cumulative IPC: 0.211443 (Simulation time: 1 hr 25 min 12 sec) 

Region of Interest Statistics
cpu0_DTLB TOTAL     ACCESS:    3921038  HIT:    3890996  MISS:      30042
cpu0_DTLB LOAD      ACCESS:    1743856  HIT:    1739779  MISS:       4077
cpu0_DTLB RFO       ACCESS:    2177182  HIT:    2151217  MISS:      25965
cpu0_DTLB PREFETCH  ACCESS:          0  HIT:          0  MISS:          0
cpu0_DTLB WRITEBACK ACCESS:          0  HIT:          0  MISS:          0
cpu0_ITLB TOTAL     ACCESS:     417733  HIT:     417733  MISS:          0
cpu0_ITLB LOAD      ACCESS:     417733  HIT:     417733  MISS:          0
cpu0_ITLB RFO       ACCESS:          0  HIT:          0  MISS:          0
cpu0_ITLB PREFETCH  ACCESS:          0  HIT:          0  MISS:          0
cpu0_ITLB WRITEBACK ACCESS:          0  HIT:          0  MISS:          0
cpu0_L1I TOTAL     ACCESS:     484185  HIT:     484185  MISS:          0
cpu0_L1I LOAD      ACCESS:     484185  HIT:     484185  MISS:          0
cpu0_L1I RFO       ACCESS:          0  HIT:          0  MISS:          0
cpu0_L1I PREFETCH  ACCESS:          0  HIT:          0  MISS:          0
cpu0_L1I WRITEBACK ACCESS:          0  HIT:          0  MISS:          0
cpu0_STLB TOTAL     ACCESS:      30042  HIT:      13740  MISS:      16302
cpu0_STLB LOAD      ACCESS:       4077  HIT:          0  MISS:       4077
cpu0_STLB RFO       ACCESS:      25965  HIT:      13740  MISS:      12225
cpu0_STLB PREFETCH  ACCESS:          0  HIT:          0  MISS:          0
cpu0_STLB WRITEBACK ACCESS:          0  HIT:          0  MISS:          0
cpu0_L1D TOTAL     ACCESS:    5212085  HIT:    3491094  MISS:    1720991
cpu0_L1D LOAD      ACCESS:    1236860  HIT:     976095  MISS:     260765
cpu0_L1D RFO       ACCESS:    3959880  HIT:    2499662  MISS:    1460218
cpu0_L1D PREFETCH  ACCESS:          0  HIT:          0  MISS:          0
cpu0_L1D WRITEBACK ACCESS:          0  HIT:          0  MISS:          0
cpu0_L2C TOTAL     ACCESS:    3181210  HIT:    2114694  MISS:    1066516
cpu0_L2C LOAD      ACCESS:     260765  HIT:          1  MISS:     260764
cpu0_L2C RFO       ACCESS:    1460218  HIT:     654534  MISS:     805684
cpu0_L2C PREFETCH  ACCESS:          0  HIT:          0  MISS:          0
cpu0_L2C WRITEBACK ACCESS:    1460219  HIT:    1460159  MISS:         60
LLC TOTAL     ACCESS:    1872391  HIT:     828616  MISS:    1043775
LLC LOAD      ACCESS:     260764  HIT:          0  MISS:     260764
LLC RFO       ACCESS:     805655  HIT:      23431  MISS:     782224
LLC PREFETCH  ACCESS:          0  HIT:          0  MISS:          0
LLC WRITEBACK ACCESS:     805964  HIT:     805185  MISS:        779
Heartbeat CPU 0 instructions: 74000004 cycles: 126935057 heartbeat IPC: 0.201265 cumulative IPC: 0.210556 (Simulation time: 1 hr 30 min 36 sec) 

Region of Interest Statistics
cpu0_DTLB TOTAL     ACCESS:    4285501  HIT:    4252576  MISS:      32925
cpu0_DTLB LOAD      ACCESS:    1903554  HIT:    1899086  MISS:       4468
cpu0_DTLB RFO       ACCESS:    2381947  HIT:    2353490  MISS:      28457
cpu0_DTLB PREFETCH  ACCESS:          0  HIT:          0  MISS:          0
cpu0_DTLB WRITEBACK ACCESS:          0  HIT:          0  MISS:          0
cpu0_ITLB TOTAL     ACCESS:     457856  HIT:     457856  MISS:          0
cpu0_ITLB LOAD      ACCESS:     457856  HIT:     457856  MISS:          0
cpu0_ITLB RFO       ACCESS:          0  HIT:          0  MISS:          0
cpu0_ITLB PREFETCH  ACCESS:          0  HIT:          0  MISS:          0
cpu0_ITLB WRITEBACK ACCESS:          0  HIT:          0  MISS:          0
cpu0_L1I TOTAL     ACCESS:     529615  HIT:     529615  MISS:          0
cpu0_L1I LOAD      ACCESS:     529615  HIT:     529615  MISS:          0
cpu0_L1I RFO       ACCESS:          0  HIT:          0  MISS:          0
cpu0_L1I PREFETCH  ACCESS:          0  HIT:          0  MISS:          0
cpu0_L1I WRITEBACK ACCESS:          0  HIT:          0  MISS:          0
cpu0_STLB TOTAL     ACCESS:      32925  HIT:      15059  MISS:      17866
cpu0_STLB LOAD      ACCESS:       4468  HIT:          0  MISS:       4468
cpu0_STLB RFO       ACCESS:      28457  HIT:      15059  MISS:      13398
cpu0_STLB PREFETCH  ACCESS:          0  HIT:          0  MISS:          0
cpu0_STLB WRITEBACK ACCESS:          0  HIT:          0  MISS:          0
cpu0_L1D TOTAL     ACCESS:    5692416  HIT:    3806251  MISS:    1886165
cpu0_L1D LOAD      ACCESS:    1349195  HIT:    1063403  MISS:     285792
cpu0_L1D RFO       ACCESS:    4326312  HIT:    2725947  MISS:    1600365
cpu0_L1D PREFETCH  ACCESS:          0  HIT:          0  MISS:          0
cpu0_L1D WRITEBACK ACCESS:          0  HIT:          0  MISS:          0
cpu0_L2C TOTAL     ACCESS:    3486527  HIT:    2318121  MISS:    1168406
cpu0_L2C LOAD      ACCESS:     285792  HIT:          1  MISS:     285791
cpu0_L2C RFO       ACCESS:    1600365  HIT:     717818  MISS:     882547
cpu0_L2C PREFETCH  ACCESS:          0  HIT:          0  MISS:          0
cpu0_L2C WRITEBACK ACCESS:    1600362  HIT:    1600302  MISS:         60
LLC TOTAL     ACCESS:    2050865  HIT:     906939  MISS:    1143926
LLC LOAD      ACCESS:     285791  HIT:          0  MISS:     285791
LLC RFO       ACCESS:     882518  HIT:      25217  MISS:     857301
LLC PREFETCH  ACCESS:          0  HIT:          0  MISS:          0
LLC WRITEBACK ACCESS:     882548  HIT:     881722  MISS:        826
Heartbeat CPU 0 instructions: 76000003 cycles: 136001466 heartbeat IPC: 0.220594 cumulative IPC: 0.211295 (Simulation time: 1 hr 35 min 28 sec) 

Region of Interest Statistics
cpu0_DTLB TOTAL     ACCESS:    4635309  HIT:    4599781  MISS:      35528
cpu0_DTLB LOAD      ACCESS:    2061289  HIT:    2056468  MISS:       4821
cpu0_DTLB RFO       ACCESS:    2574020  HIT:    2543313  MISS:      30707
cpu0_DTLB PREFETCH  ACCESS:          0  HIT:          0  MISS:          0
cpu0_DTLB WRITEBACK ACCESS:          0  HIT:          0  MISS:          0
cpu0_ITLB TOTAL     ACCESS:     493659  HIT:     493659  MISS:          0
cpu0_ITLB LOAD      ACCESS:     493659  HIT:     493659  MISS:          0
cpu0_ITLB RFO       ACCESS:          0  HIT:          0  MISS:          0
cpu0_ITLB PREFETCH  ACCESS:          0  HIT:          0  MISS:          0
cpu0_ITLB WRITEBACK ACCESS:          0  HIT:          0  MISS:          0
cpu0_L1I TOTAL     ACCESS:     572599  HIT:     572599  MISS:          0
cpu0_L1I LOAD      ACCESS:     572599  HIT:     572599  MISS:          0
cpu0_L1I RFO       ACCESS:          0  HIT:          0  MISS:          0
cpu0_L1I PREFETCH  ACCESS:          0  HIT:          0  MISS:          0
cpu0_L1I WRITEBACK ACCESS:          0  HIT:          0  MISS:          0
cpu0_STLB TOTAL     ACCESS:      35528  HIT:      16250  MISS:      19278
cpu0_STLB LOAD      ACCESS:       4821  HIT:          0  MISS:       4821
cpu0_STLB RFO       ACCESS:      30707  HIT:      16250  MISS:      14457
cpu0_STLB PREFETCH  ACCESS:          0  HIT:          0  MISS:          0
cpu0_STLB WRITEBACK ACCESS:          0  HIT:          0  MISS:          0
cpu0_L1D TOTAL     ACCESS:    6160967  HIT:    4125715  MISS:    2035252
cpu0_L1D LOAD      ACCESS:    1461992  HIT:    1153612  MISS:     308380
cpu0_L1D RFO       ACCESS:    4680654  HIT:    2953790  MISS:    1726864
cpu0_L1D PREFETCH  ACCESS:          0  HIT:          0  MISS:          0
cpu0_L1D WRITEBACK ACCESS:          0  HIT:          0  MISS:          0
cpu0_L2C TOTAL     ACCESS:    3762115  HIT:    2501124  MISS:    1260991
cpu0_L2C LOAD      ACCESS:     308380  HIT:          1  MISS:     308379
cpu0_L2C RFO       ACCESS:    1726864  HIT:     774320  MISS:     952544
cpu0_L2C PREFETCH  ACCESS:          0  HIT:          0  MISS:          0
cpu0_L2C WRITEBACK ACCESS:    1726863  HIT:    1726803  MISS:         60
LLC TOTAL     ACCESS:    2213676  HIT:     979289  MISS:    1234387
LLC LOAD      ACCESS:     308379  HIT:          0  MISS:     308379
LLC RFO       ACCESS:     952512  HIT:      27443  MISS:     925069
LLC PREFETCH  ACCESS:          0  HIT:          0  MISS:          0
LLC WRITEBACK ACCESS:     952777  HIT:     951846  MISS:        931
Heartbeat CPU 0 instructions: 78000001 cycles: 145510604 heartbeat IPC: 0.210324 cumulative IPC: 0.211226 (Simulation time: 1 hr 40 min 43 sec) 

Region of Interest Statistics
cpu0_DTLB TOTAL     ACCESS:    4991666  HIT:    4953403  MISS:      38263
cpu0_DTLB LOAD      ACCESS:    2219534  HIT:    2214342  MISS:       5192
cpu0_DTLB RFO       ACCESS:    2772132  HIT:    2739061  MISS:      33071
cpu0_DTLB PREFETCH  ACCESS:          0  HIT:          0  MISS:          0
cpu0_DTLB WRITEBACK ACCESS:          0  HIT:          0  MISS:          0
cpu0_ITLB TOTAL     ACCESS:     531938  HIT:     531938  MISS:          0
cpu0_ITLB LOAD      ACCESS:     531938  HIT:     531938  MISS:          0
cpu0_ITLB RFO       ACCESS:          0  HIT:          0  MISS:          0
cpu0_ITLB PREFETCH  ACCESS:          0  HIT:          0  MISS:          0
cpu0_ITLB WRITEBACK ACCESS:          0  HIT:          0  MISS:          0
cpu0_L1I TOTAL     ACCESS:     616085  HIT:     616085  MISS:          0
cpu0_L1I LOAD      ACCESS:     616085  HIT:     616085  MISS:          0
cpu0_L1I RFO       ACCESS:          0  HIT:          0  MISS:          0
cpu0_L1I PREFETCH  ACCESS:          0  HIT:          0  MISS:          0
cpu0_L1I WRITEBACK ACCESS:          0  HIT:          0  MISS:          0
cpu0_STLB TOTAL     ACCESS:      38263  HIT:      17501  MISS:      20762
cpu0_STLB LOAD      ACCESS:       5192  HIT:          0  MISS:       5192
cpu0_STLB RFO       ACCESS:      33071  HIT:      17501  MISS:      15570
cpu0_STLB PREFETCH  ACCESS:          0  HIT:          0  MISS:          0
cpu0_STLB WRITEBACK ACCESS:          0  HIT:          0  MISS:          0
cpu0_L1D TOTAL     ACCESS:    6634508  HIT:    4442634  MISS:    2191874
cpu0_L1D LOAD      ACCESS:    1574266  HIT:    1242154  MISS:     332112
cpu0_L1D RFO       ACCESS:    5040437  HIT:    3180683  MISS:    1859754
cpu0_L1D PREFETCH  ACCESS:          0  HIT:          0  MISS:          0
cpu0_L1D WRITEBACK ACCESS:          0  HIT:          0  MISS:          0
cpu0_L2C TOTAL     ACCESS:    4051627  HIT:    2693395  MISS:    1358232
cpu0_L2C LOAD      ACCESS:     332112  HIT:          1  MISS:     332111
cpu0_L2C RFO       ACCESS:    1859754  HIT:     833705  MISS:    1026049
cpu0_L2C PREFETCH  ACCESS:          0  HIT:          0  MISS:          0
cpu0_L2C WRITEBACK ACCESS:    1859753  HIT:    1859689  MISS:         64
LLC TOTAL     ACCESS:    2384414  HIT:    1054977  MISS:    1329437
LLC LOAD      ACCESS:     332111  HIT:          0  MISS:     332111
LLC RFO       ACCESS:    1026012  HIT:      29753  MISS:     996259
LLC PREFETCH  ACCESS:          0  HIT:          0  MISS:          0
LLC WRITEBACK ACCESS:    1026283  HIT:    1025224  MISS:       1059
Heartbeat CPU 0 instructions: 80000000 cycles: 154719191 heartbeat IPC: 0.217188 cumulative IPC: 0.211613 (Simulation time: 1 hr 46 min 0 sec) 

Region of Interest Statistics
cpu0_DTLB TOTAL     ACCESS:    5344206  HIT:    5303302  MISS:      40904
cpu0_DTLB LOAD      ACCESS:    2378061  HIT:    2372510  MISS:       5551
cpu0_DTLB RFO       ACCESS:    2966145  HIT:    2930792  MISS:      35353
cpu0_DTLB PREFETCH  ACCESS:          0  HIT:          0  MISS:          0
cpu0_DTLB WRITEBACK ACCESS:          0  HIT:          0  MISS:          0
cpu0_ITLB TOTAL     ACCESS:     566849  HIT:     566849  MISS:          0
cpu0_ITLB LOAD      ACCESS:     566849  HIT:     566849  MISS:          0
cpu0_ITLB RFO       ACCESS:          0  HIT:          0  MISS:          0
cpu0_ITLB PREFETCH  ACCESS:          0  HIT:          0  MISS:          0
cpu0_ITLB WRITEBACK ACCESS:          0  HIT:          0  MISS:          0
cpu0_L1I TOTAL     ACCESS:     662018  HIT:     662018  MISS:          0
cpu0_L1I LOAD      ACCESS:     662018  HIT:     662018  MISS:          0
cpu0_L1I RFO       ACCESS:          0  HIT:          0  MISS:          0
cpu0_L1I PREFETCH  ACCESS:          0  HIT:          0  MISS:          0
cpu0_L1I WRITEBACK ACCESS:          0  HIT:          0  MISS:          0
cpu0_STLB TOTAL     ACCESS:      40904  HIT:      18708  MISS:      22196
cpu0_STLB LOAD      ACCESS:       5551  HIT:          0  MISS:       5551
cpu0_STLB RFO       ACCESS:      35353  HIT:      18708  MISS:      16645
cpu0_STLB PREFETCH  ACCESS:          0  HIT:          0  MISS:          0
cpu0_STLB WRITEBACK ACCESS:          0  HIT:          0  MISS:          0
cpu0_L1D TOTAL     ACCESS:    7104844  HIT:    4761577  MISS:    2343267
cpu0_L1D LOAD      ACCESS:    1686815  HIT:    1331762  MISS:     355053
cpu0_L1D RFO       ACCESS:    5396790  HIT:    3408586  MISS:    1988204
cpu0_L1D PREFETCH  ACCESS:          0  HIT:          0  MISS:          0
cpu0_L1D WRITEBACK ACCESS:          0  HIT:          0  MISS:          0
cpu0_L2C TOTAL     ACCESS:    4331469  HIT:    2879211  MISS:    1452258
cpu0_L2C LOAD      ACCESS:     355053  HIT:          1  MISS:     355052
cpu0_L2C RFO       ACCESS:    1988204  HIT:     891084  MISS:    1097120
cpu0_L2C PREFETCH  ACCESS:          0  HIT:          0  MISS:          0
cpu0_L2C WRITEBACK ACCESS:    1988202  HIT:    1988126  MISS:         76
LLC TOTAL     ACCESS:    2549552  HIT:    1128264  MISS:    1421288
LLC LOAD      ACCESS:     355052  HIT:          0  MISS:     355052
LLC RFO       ACCESS:    1097083  HIT:      32017  MISS:    1065066
LLC PREFETCH  ACCESS:          0  HIT:          0  MISS:          0
LLC WRITEBACK ACCESS:    1097407  HIT:    1096247  MISS:       1160
Heartbeat CPU 0 instructions: 82000001 cycles: 164822087 heartbeat IPC: 0.197963 cumulative IPC: 0.210705 (Simulation time: 1 hr 51 min 32 sec) 

Region of Interest Statistics
cpu0_DTLB TOTAL     ACCESS:    5710765  HIT:    5666934  MISS:      43831
cpu0_DTLB LOAD      ACCESS:    2538032  HIT:    2532084  MISS:       5948
cpu0_DTLB RFO       ACCESS:    3172733  HIT:    3134850  MISS:      37883
cpu0_DTLB PREFETCH  ACCESS:          0  HIT:          0  MISS:          0
cpu0_DTLB WRITEBACK ACCESS:          0  HIT:          0  MISS:          0
cpu0_ITLB TOTAL     ACCESS:     607722  HIT:     607722  MISS:          0
cpu0_ITLB LOAD      ACCESS:     607722  HIT:     607722  MISS:          0
cpu0_ITLB RFO       ACCESS:          0  HIT:          0  MISS:          0
cpu0_ITLB PREFETCH  ACCESS:          0  HIT:          0  MISS:          0
cpu0_ITLB WRITEBACK ACCESS:          0  HIT:          0  MISS:          0
cpu0_L1I TOTAL     ACCESS:     707803  HIT:     707803  MISS:          0
cpu0_L1I LOAD      ACCESS:     707803  HIT:     707803  MISS:          0
cpu0_L1I RFO       ACCESS:          0  HIT:          0  MISS:          0
cpu0_L1I PREFETCH  ACCESS:          0  HIT:          0  MISS:          0
cpu0_L1I WRITEBACK ACCESS:          0  HIT:          0  MISS:          0
cpu0_STLB TOTAL     ACCESS:      43831  HIT:      20047  MISS:      23784
cpu0_STLB LOAD      ACCESS:       5948  HIT:          0  MISS:       5948
cpu0_STLB RFO       ACCESS:      37883  HIT:      20047  MISS:      17836
cpu0_STLB PREFETCH  ACCESS:          0  HIT:          0  MISS:          0
cpu0_STLB WRITEBACK ACCESS:          0  HIT:          0  MISS:          0
cpu0_L1D TOTAL     ACCESS:    7586964  HIT:    5076098  MISS:    2510866
cpu0_L1D LOAD      ACCESS:    1798999  HIT:    1418551  MISS:     380448
cpu0_L1D RFO       ACCESS:    5765138  HIT:    3634730  MISS:    2130408
cpu0_L1D PREFETCH  ACCESS:          0  HIT:          0  MISS:          0
cpu0_L1D WRITEBACK ACCESS:          0  HIT:          0  MISS:          0
cpu0_L2C TOTAL     ACCESS:    4641268  HIT:    3084910  MISS:    1556358
cpu0_L2C LOAD      ACCESS:     380448  HIT:          1  MISS:     380447
cpu0_L2C RFO       ACCESS:    2130408  HIT:     954587  MISS:    1175821
cpu0_L2C PREFETCH  ACCESS:          0  HIT:          0  MISS:          0
cpu0_L2C WRITEBACK ACCESS:    2130402  HIT:    2130322  MISS:         80
LLC TOTAL     ACCESS:    2732490  HIT:    1209589  MISS:    1522901
LLC LOAD      ACCESS:     380447  HIT:          0  MISS:     380447
LLC RFO       ACCESS:    1175783  HIT:      34541  MISS:    1141242
LLC PREFETCH  ACCESS:          0  HIT:          0  MISS:          0
LLC WRITEBACK ACCESS:    1176250  HIT:    1175048  MISS:       1202
Heartbeat CPU 0 instructions: 84000001 cycles: 174199066 heartbeat IPC: 0.213288 cumulative IPC: 0.210855 (Simulation time: 1 hr 56 min 27 sec) 

Region of Interest Statistics
cpu0_DTLB TOTAL     ACCESS:    6065822  HIT:    6019285  MISS:      46537
cpu0_DTLB LOAD      ACCESS:    2696400  HIT:    2690085  MISS:       6315
cpu0_DTLB RFO       ACCESS:    3369422  HIT:    3329200  MISS:      40222
cpu0_DTLB PREFETCH  ACCESS:          0  HIT:          0  MISS:          0
cpu0_DTLB WRITEBACK ACCESS:          0  HIT:          0  MISS:          0
cpu0_ITLB TOTAL     ACCESS:     645224  HIT:     645224  MISS:          0
cpu0_ITLB LOAD      ACCESS:     645224  HIT:     645224  MISS:          0
cpu0_ITLB RFO       ACCESS:          0  HIT:          0  MISS:          0
cpu0_ITLB PREFETCH  ACCESS:          0  HIT:          0  MISS:          0
cpu0_ITLB WRITEBACK ACCESS:          0  HIT:          0  MISS:          0
cpu0_L1I TOTAL     ACCESS:     751112  HIT:     751112  MISS:          0
cpu0_L1I LOAD      ACCESS:     751112  HIT:     751112  MISS:          0
cpu0_L1I RFO       ACCESS:          0  HIT:          0  MISS:          0
cpu0_L1I PREFETCH  ACCESS:          0  HIT:          0  MISS:          0
cpu0_L1I WRITEBACK ACCESS:          0  HIT:          0  MISS:          0
cpu0_STLB TOTAL     ACCESS:      46537  HIT:      21285  MISS:      25252
cpu0_STLB LOAD      ACCESS:       6315  HIT:          0  MISS:       6315
cpu0_STLB RFO       ACCESS:      40222  HIT:      21285  MISS:      18937
cpu0_STLB PREFETCH  ACCESS:          0  HIT:          0  MISS:          0
cpu0_STLB WRITEBACK ACCESS:          0  HIT:          0  MISS:          0
cpu0_L1D TOTAL     ACCESS:    8059611  HIT:    5393780  MISS:    2665831
cpu0_L1D LOAD      ACCESS:    1911381  HIT:    1507453  MISS:     403928
cpu0_L1D RFO       ACCESS:    6123935  HIT:    3862042  MISS:    2261893
cpu0_L1D PREFETCH  ACCESS:          0  HIT:          0  MISS:          0
cpu0_L1D WRITEBACK ACCESS:          0  HIT:          0  MISS:          0
cpu0_L2C TOTAL     ACCESS:    4927720  HIT:    3274991  MISS:    1652729
cpu0_L2C LOAD      ACCESS:     403928  HIT:          1  MISS:     403927
cpu0_L2C RFO       ACCESS:    2261893  HIT:    1013183  MISS:    1248710
cpu0_L2C PREFETCH  ACCESS:          0  HIT:          0  MISS:          0
cpu0_L2C WRITEBACK ACCESS:    2261889  HIT:    2261807  MISS:         82
LLC TOTAL     ACCESS:    2901603  HIT:    1284630  MISS:    1616973
LLC LOAD      ACCESS:     403927  HIT:          0  MISS:     403927
LLC RFO       ACCESS:    1248672  HIT:      36992  MISS:    1211680
LLC PREFETCH  ACCESS:          0  HIT:          0  MISS:          0
LLC WRITEBACK ACCESS:    1248994  HIT:    1247638  MISS:       1356
Heartbeat CPU 0 instructions: 86000003 cycles: 183614812 heartbeat IPC: 0.21241 cumulative IPC: 0.210941 (Simulation time: 2 hr 1 min 37 sec) 

Region of Interest Statistics
cpu0_DTLB TOTAL     ACCESS:    6421696  HIT:    6372443  MISS:      49253
cpu0_DTLB LOAD      ACCESS:    2855051  HIT:    2848368  MISS:       6683
cpu0_DTLB RFO       ACCESS:    3566645  HIT:    3524075  MISS:      42570
cpu0_DTLB PREFETCH  ACCESS:          0  HIT:          0  MISS:          0
cpu0_DTLB WRITEBACK ACCESS:          0  HIT:          0  MISS:          0
cpu0_ITLB TOTAL     ACCESS:     682861  HIT:     682861  MISS:          0
cpu0_ITLB LOAD      ACCESS:     682861  HIT:     682861  MISS:          0
cpu0_ITLB RFO       ACCESS:          0  HIT:          0  MISS:          0
cpu0_ITLB PREFETCH  ACCESS:          0  HIT:          0  MISS:          0
cpu0_ITLB WRITEBACK ACCESS:          0  HIT:          0  MISS:          0
cpu0_L1I TOTAL     ACCESS:     794977  HIT:     794977  MISS:          0
cpu0_L1I LOAD      ACCESS:     794977  HIT:     794977  MISS:          0
cpu0_L1I RFO       ACCESS:          0  HIT:          0  MISS:          0
cpu0_L1I PREFETCH  ACCESS:          0  HIT:          0  MISS:          0
cpu0_L1I WRITEBACK ACCESS:          0  HIT:          0  MISS:          0
cpu0_STLB TOTAL     ACCESS:      49253  HIT:      22529  MISS:      26724
cpu0_STLB LOAD      ACCESS:       6683  HIT:          0  MISS:       6683
cpu0_STLB RFO       ACCESS:      42570  HIT:      22529  MISS:      20041
cpu0_STLB PREFETCH  ACCESS:          0  HIT:          0  MISS:          0
cpu0_STLB WRITEBACK ACCESS:          0  HIT:          0  MISS:          0
cpu0_L1D TOTAL     ACCESS:    8532551  HIT:    5711130  MISS:    2821421
cpu0_L1D LOAD      ACCESS:    2024024  HIT:    1596520  MISS:     427504
cpu0_L1D RFO       ACCESS:    6483036  HIT:    4089129  MISS:    2393907
cpu0_L1D PREFETCH  ACCESS:          0  HIT:          0  MISS:          0
cpu0_L1D WRITEBACK ACCESS:          0  HIT:          0  MISS:          0
cpu0_L2C TOTAL     ACCESS:    5215327  HIT:    3465716  MISS:    1749611
cpu0_L2C LOAD      ACCESS:     427504  HIT:          1  MISS:     427503
cpu0_L2C RFO       ACCESS:    2393907  HIT:    1071895  MISS:    1322012
cpu0_L2C PREFETCH  ACCESS:          0  HIT:          0  MISS:          0
cpu0_L2C WRITEBACK ACCESS:    2393906  HIT:    2393820  MISS:         86
LLC TOTAL     ACCESS:    3072042  HIT:    1360661  MISS:    1711381
LLC LOAD      ACCESS:     427503  HIT:          0  MISS:     427503
LLC RFO       ACCESS:    1321959  HIT:      39533  MISS:    1282426
LLC PREFETCH  ACCESS:          0  HIT:          0  MISS:          0
LLC WRITEBACK ACCESS:    1322570  HIT:    1321128  MISS:       1442
Heartbeat CPU 0 instructions: 88000003 cycles: 192412162 heartbeat IPC: 0.227341 cumulative IPC: 0.211745 (Simulation time: 2 hr 6 min 15 sec) 

Region of Interest Statistics
cpu0_DTLB TOTAL     ACCESS:    6766611  HIT:    6714856  MISS:      51755
cpu0_DTLB LOAD      ACCESS:    3012099  HIT:    3005075  MISS:       7024
cpu0_DTLB RFO       ACCESS:    3754512  HIT:    3709781  MISS:      44731
cpu0_DTLB PREFETCH  ACCESS:          0  HIT:          0  MISS:          0
cpu0_DTLB WRITEBACK ACCESS:          0  HIT:          0  MISS:          0
cpu0_ITLB TOTAL     ACCESS:     715943  HIT:     715943  MISS:          0
cpu0_ITLB LOAD      ACCESS:     715943  HIT:     715943  MISS:          0
cpu0_ITLB RFO       ACCESS:          0  HIT:          0  MISS:          0
cpu0_ITLB PREFETCH  ACCESS:          0  HIT:          0  MISS:          0
cpu0_ITLB WRITEBACK ACCESS:          0  HIT:          0  MISS:          0
cpu0_L1I TOTAL     ACCESS:     839113  HIT:     839113  MISS:          0
cpu0_L1I LOAD      ACCESS:     839113  HIT:     839113  MISS:          0
cpu0_L1I RFO       ACCESS:          0  HIT:          0  MISS:          0
cpu0_L1I PREFETCH  ACCESS:          0  HIT:          0  MISS:          0
cpu0_L1I WRITEBACK ACCESS:          0  HIT:          0  MISS:          0
cpu0_STLB TOTAL     ACCESS:      51755  HIT:      23669  MISS:      28086
cpu0_STLB LOAD      ACCESS:       7024  HIT:          0  MISS:       7024
cpu0_STLB RFO       ACCESS:      44731  HIT:      23669  MISS:      21062
cpu0_STLB PREFETCH  ACCESS:          0  HIT:          0  MISS:          0
cpu0_STLB WRITEBACK ACCESS:          0  HIT:          0  MISS:          0
cpu0_L1D TOTAL     ACCESS:    8997032  HIT:    6032025  MISS:    2965007
cpu0_L1D LOAD      ACCESS:    2136944  HIT:    1687683  MISS:     449261
cpu0_L1D RFO       ACCESS:    6833568  HIT:    4317834  MISS:    2515734
cpu0_L1D PREFETCH  ACCESS:          0  HIT:          0  MISS:          0
cpu0_L1D WRITEBACK ACCESS:          0  HIT:          0  MISS:          0
cpu0_L2C TOTAL     ACCESS:    5480738  HIT:    3641438  MISS:    1839300
cpu0_L2C LOAD      ACCESS:     449261  HIT:          1  MISS:     449260
cpu0_L2C RFO       ACCESS:    2515734  HIT:    1125801  MISS:    1389933
cpu0_L2C PREFETCH  ACCESS:          0  HIT:          0  MISS:          0
cpu0_L2C WRITEBACK ACCESS:    2515731  HIT:    2515636  MISS:         95
LLC TOTAL     ACCESS:    3229200  HIT:    1430714  MISS:    1798486
LLC LOAD      ACCESS:     449260  HIT:          0  MISS:     449260
LLC RFO       ACCESS:    1389880  HIT:      42196  MISS:    1347684
LLC PREFETCH  ACCESS:          0  HIT:          0  MISS:          0
LLC WRITEBACK ACCESS:    1390048  HIT:    1388518  MISS:       1530
Heartbeat CPU 0 instructions: 90000000 cycles: 202950397 heartbeat IPC: 0.189785 cumulative IPC: 0.210527 (Simulation time: 2 hr 12 min 23 sec) 

Region of Interest Statistics
cpu0_DTLB TOTAL     ACCESS:    7141141  HIT:    7086318  MISS:      54823
cpu0_DTLB LOAD      ACCESS:    3173761  HIT:    3166321  MISS:       7440
cpu0_DTLB RFO       ACCESS:    3967380  HIT:    3919997  MISS:      47383
cpu0_DTLB PREFETCH  ACCESS:          0  HIT:          0  MISS:          0
cpu0_DTLB WRITEBACK ACCESS:          0  HIT:          0  MISS:          0
cpu0_ITLB TOTAL     ACCESS:     759765  HIT:     759765  MISS:          0
cpu0_ITLB LOAD      ACCESS:     759765  HIT:     759765  MISS:          0
cpu0_ITLB RFO       ACCESS:          0  HIT:          0  MISS:          0
cpu0_ITLB PREFETCH  ACCESS:          0  HIT:          0  MISS:          0
cpu0_ITLB WRITEBACK ACCESS:          0  HIT:          0  MISS:          0
cpu0_L1I TOTAL     ACCESS:     885822  HIT:     885822  MISS:          0
cpu0_L1I LOAD      ACCESS:     885822  HIT:     885822  MISS:          0
cpu0_L1I RFO       ACCESS:          0  HIT:          0  MISS:          0
cpu0_L1I PREFETCH  ACCESS:          0  HIT:          0  MISS:          0
cpu0_L1I WRITEBACK ACCESS:          0  HIT:          0  MISS:          0
cpu0_STLB TOTAL     ACCESS:      54823  HIT:      25073  MISS:      29750
cpu0_STLB LOAD      ACCESS:       7440  HIT:          0  MISS:       7440
cpu0_STLB RFO       ACCESS:      47383  HIT:      25073  MISS:      22310
cpu0_STLB PREFETCH  ACCESS:          0  HIT:          0  MISS:          0
cpu0_STLB WRITEBACK ACCESS:          0  HIT:          0  MISS:          0
cpu0_L1D TOTAL     ACCESS:    9484354  HIT:    6343721  MISS:    3140633
cpu0_L1D LOAD      ACCESS:    2248864  HIT:    1772982  MISS:     475882
cpu0_L1D RFO       ACCESS:    7207651  HIT:    4542913  MISS:    2664738
cpu0_L1D PREFETCH  ACCESS:          0  HIT:          0  MISS:          0
cpu0_L1D WRITEBACK ACCESS:          0  HIT:          0  MISS:          0
cpu0_L2C TOTAL     ACCESS:    5805376  HIT:    3857502  MISS:    1947874
cpu0_L2C LOAD      ACCESS:     475882  HIT:          1  MISS:     475881
cpu0_L2C RFO       ACCESS:    2664738  HIT:    1192859  MISS:    1471879
cpu0_L2C PREFETCH  ACCESS:          0  HIT:          0  MISS:          0
cpu0_L2C WRITEBACK ACCESS:    2664743  HIT:    2664642  MISS:        101
LLC TOTAL     ACCESS:    3419914  HIT:    1514984  MISS:    1904930
LLC LOAD      ACCESS:     475881  HIT:          0  MISS:     475881
LLC RFO       ACCESS:    1471825  HIT:      44325  MISS:    1427500
LLC PREFETCH  ACCESS:          0  HIT:          0  MISS:          0
LLC WRITEBACK ACCESS:    1472195  HIT:    1470659  MISS:       1536
Heartbeat CPU 0 instructions: 92000001 cycles: 212502186 heartbeat IPC: 0.209385 cumulative IPC: 0.210472 (Simulation time: 2 hr 18 min 8 sec) 

Region of Interest Statistics
cpu0_DTLB TOTAL     ACCESS:    7498746  HIT:    7441166  MISS:      57580
cpu0_DTLB LOAD      ACCESS:    3332323  HIT:    3324509  MISS:       7814
cpu0_DTLB RFO       ACCESS:    4166423  HIT:    4116657  MISS:      49766
cpu0_DTLB PREFETCH  ACCESS:          0  HIT:          0  MISS:          0
cpu0_DTLB WRITEBACK ACCESS:          0  HIT:          0  MISS:          0
cpu0_ITLB TOTAL     ACCESS:     798073  HIT:     798073  MISS:          0
cpu0_ITLB LOAD      ACCESS:     798073  HIT:     798073  MISS:          0
cpu0_ITLB RFO       ACCESS:          0  HIT:          0  MISS:          0
cpu0_ITLB PREFETCH  ACCESS:          0  HIT:          0  MISS:          0
cpu0_ITLB WRITEBACK ACCESS:          0  HIT:          0  MISS:          0
cpu0_L1I TOTAL     ACCESS:     929828  HIT:     929828  MISS:          0
cpu0_L1I LOAD      ACCESS:     929828  HIT:     929828  MISS:          0
cpu0_L1I RFO       ACCESS:          0  HIT:          0  MISS:          0
cpu0_L1I PREFETCH  ACCESS:          0  HIT:          0  MISS:          0
cpu0_L1I WRITEBACK ACCESS:          0  HIT:          0  MISS:          0
cpu0_STLB TOTAL     ACCESS:      57580  HIT:      26335  MISS:      31245
cpu0_STLB LOAD      ACCESS:       7814  HIT:          0  MISS:       7814
cpu0_STLB RFO       ACCESS:      49766  HIT:      26335  MISS:      23431
cpu0_STLB PREFETCH  ACCESS:          0  HIT:          0  MISS:          0
cpu0_STLB WRITEBACK ACCESS:          0  HIT:          0  MISS:          0
cpu0_L1D TOTAL     ACCESS:    9958534  HIT:    6659932  MISS:    3298602
cpu0_L1D LOAD      ACCESS:    2360897  HIT:    1861089  MISS:     499808
cpu0_L1D RFO       ACCESS:    7568303  HIT:    4769523  MISS:    2798780
cpu0_L1D PREFETCH  ACCESS:          0  HIT:          0  MISS:          0
cpu0_L1D WRITEBACK ACCESS:          0  HIT:          0  MISS:          0
cpu0_L2C TOTAL     ACCESS:    6097378  HIT:    4051629  MISS:    2045749
cpu0_L2C LOAD      ACCESS:     499808  HIT:          1  MISS:     499807
cpu0_L2C RFO       ACCESS:    2798780  HIT:    1252958  MISS:    1545822
cpu0_L2C PREFETCH  ACCESS:          0  HIT:          0  MISS:          0
cpu0_L2C WRITEBACK ACCESS:    2798776  HIT:    2798670  MISS:        106
LLC TOTAL     ACCESS:    3591545  HIT:    1590856  MISS:    2000689
LLC LOAD      ACCESS:     499807  HIT:          0  MISS:     499807
LLC RFO       ACCESS:    1545767  HIT:      46458  MISS:    1499309
LLC PREFETCH  ACCESS:          0  HIT:          0  MISS:          0
LLC WRITEBACK ACCESS:    1545957  HIT:    1544398  MISS:       1559
Heartbeat CPU 0 instructions: 94000000 cycles: 222263657 heartbeat IPC: 0.204887 cumulative IPC: 0.210212 (Simulation time: 2 hr 23 min 14 sec) 

Region of Interest Statistics
cpu0_DTLB TOTAL     ACCESS:    7860332  HIT:    7799924  MISS:      60408
cpu0_DTLB LOAD      ACCESS:    3491628  HIT:    3483431  MISS:       8197
cpu0_DTLB RFO       ACCESS:    4368704  HIT:    4316493  MISS:      52211
cpu0_DTLB PREFETCH  ACCESS:          0  HIT:          0  MISS:          0
cpu0_DTLB WRITEBACK ACCESS:          0  HIT:          0  MISS:          0
cpu0_ITLB TOTAL     ACCESS:     837513  HIT:     837513  MISS:          0
cpu0_ITLB LOAD      ACCESS:     837513  HIT:     837513  MISS:          0
cpu0_ITLB RFO       ACCESS:          0  HIT:          0  MISS:          0
cpu0_ITLB PREFETCH  ACCESS:          0  HIT:          0  MISS:          0
cpu0_ITLB WRITEBACK ACCESS:          0  HIT:          0  MISS:          0
cpu0_L1I TOTAL     ACCESS:     974598  HIT:     974598  MISS:          0
cpu0_L1I LOAD      ACCESS:     974598  HIT:     974598  MISS:          0
cpu0_L1I RFO       ACCESS:          0  HIT:          0  MISS:          0
cpu0_L1I PREFETCH  ACCESS:          0  HIT:          0  MISS:          0
cpu0_L1I WRITEBACK ACCESS:          0  HIT:          0  MISS:          0
cpu0_STLB TOTAL     ACCESS:      60408  HIT:      27630  MISS:      32778
cpu0_STLB LOAD      ACCESS:       8197  HIT:          0  MISS:       8197
cpu0_STLB RFO       ACCESS:      52211  HIT:      27630  MISS:      24581
cpu0_STLB PREFETCH  ACCESS:          0  HIT:          0  MISS:          0
cpu0_STLB WRITEBACK ACCESS:          0  HIT:          0  MISS:          0
cpu0_L1D TOTAL     ACCESS:   10436324  HIT:    6975723  MISS:    3460601
cpu0_L1D LOAD      ACCESS:    2473162  HIT:    1948809  MISS:     524353
cpu0_L1D RFO       ACCESS:    7932295  HIT:    4996061  MISS:    2936234
cpu0_L1D PREFETCH  ACCESS:          0  HIT:          0  MISS:          0
cpu0_L1D WRITEBACK ACCESS:          0  HIT:          0  MISS:          0
cpu0_L2C TOTAL     ACCESS:    6396836  HIT:    4250016  MISS:    2146820
cpu0_L2C LOAD      ACCESS:     524353  HIT:          1  MISS:     524352
cpu0_L2C RFO       ACCESS:    2936234  HIT:    1313887  MISS:    1622347
cpu0_L2C PREFETCH  ACCESS:          0  HIT:          0  MISS:          0
cpu0_L2C WRITEBACK ACCESS:    2936235  HIT:    2936128  MISS:        107
LLC TOTAL     ACCESS:    3769447  HIT:    1670425  MISS:    2099022
LLC LOAD      ACCESS:     524352  HIT:          0  MISS:     524352
LLC RFO       ACCESS:    1622289  HIT:      49344  MISS:    1572945
LLC PREFETCH  ACCESS:          0  HIT:          0  MISS:          0
LLC WRITEBACK ACCESS:    1622792  HIT:    1621081  MISS:       1711
Heartbeat CPU 0 instructions: 96000002 cycles: 230706137 heartbeat IPC: 0.236897 cumulative IPC: 0.211246 (Simulation time: 2 hr 27 min 38 sec) 

Region of Interest Statistics
cpu0_DTLB TOTAL     ACCESS:    8199249  HIT:    8136439  MISS:      62810
cpu0_DTLB LOAD      ACCESS:    3647502  HIT:    3638978  MISS:       8524
cpu0_DTLB RFO       ACCESS:    4551747  HIT:    4497461  MISS:      54286
cpu0_DTLB PREFETCH  ACCESS:          0  HIT:          0  MISS:          0
cpu0_DTLB WRITEBACK ACCESS:          0  HIT:          0  MISS:          0
cpu0_ITLB TOTAL     ACCESS:     868444  HIT:     868444  MISS:          0
cpu0_ITLB LOAD      ACCESS:     868444  HIT:     868444  MISS:          0
cpu0_ITLB RFO       ACCESS:          0  HIT:          0  MISS:          0
cpu0_ITLB PREFETCH  ACCESS:          0  HIT:          0  MISS:          0
cpu0_ITLB WRITEBACK ACCESS:          0  HIT:          0  MISS:          0
cpu0_L1I TOTAL     ACCESS:    1018323  HIT:    1018323  MISS:          0
cpu0_L1I LOAD      ACCESS:    1018323  HIT:    1018323  MISS:          0
cpu0_L1I RFO       ACCESS:          0  HIT:          0  MISS:          0
cpu0_L1I PREFETCH  ACCESS:          0  HIT:          0  MISS:          0
cpu0_L1I WRITEBACK ACCESS:          0  HIT:          0  MISS:          0
cpu0_STLB TOTAL     ACCESS:      62810  HIT:      28726  MISS:      34084
cpu0_STLB LOAD      ACCESS:       8524  HIT:          0  MISS:       8524
cpu0_STLB RFO       ACCESS:      54286  HIT:      28726  MISS:      25560
cpu0_STLB PREFETCH  ACCESS:          0  HIT:          0  MISS:          0
cpu0_STLB WRITEBACK ACCESS:          0  HIT:          0  MISS:          0
cpu0_L1D TOTAL     ACCESS:   10896757  HIT:    7298643  MISS:    3598114
cpu0_L1D LOAD      ACCESS:    2586043  HIT:    2040854  MISS:     545189
cpu0_L1D RFO       ACCESS:    8278541  HIT:    5225632  MISS:    3052909
cpu0_L1D PREFETCH  ACCESS:          0  HIT:          0  MISS:          0
cpu0_L1D WRITEBACK ACCESS:          0  HIT:          0  MISS:          0
cpu0_L2C TOTAL     ACCESS:    6651018  HIT:    4418796  MISS:    2232222
cpu0_L2C LOAD      ACCESS:     545189  HIT:          1  MISS:     545188
cpu0_L2C RFO       ACCESS:    3052909  HIT:    1366009  MISS:    1686900
cpu0_L2C PREFETCH  ACCESS:          0  HIT:          0  MISS:          0
cpu0_L2C WRITEBACK ACCESS:    3052904  HIT:    3052786  MISS:        118
LLC TOTAL     ACCESS:    3919021  HIT:    1736603  MISS:    2182418
LLC LOAD      ACCESS:     545188  HIT:          0  MISS:     545188
LLC RFO       ACCESS:    1686839  HIT:      51396  MISS:    1635443
LLC PREFETCH  ACCESS:          0  HIT:          0  MISS:          0
LLC WRITEBACK ACCESS:    1686978  HIT:    1685207  MISS:       1771
Heartbeat CPU 0 instructions: 98000004 cycles: 240864976 heartbeat IPC: 0.196873 cumulative IPC: 0.210606 (Simulation time: 2 hr 33 min 12 sec) 

Region of Interest Statistics
cpu0_DTLB TOTAL     ACCESS:    8567724  HIT:    8501955  MISS:      65769
cpu0_DTLB LOAD      ACCESS:    3807744  HIT:    3798819  MISS:       8925
cpu0_DTLB RFO       ACCESS:    4759980  HIT:    4703136  MISS:      56844
cpu0_DTLB PREFETCH  ACCESS:          0  HIT:          0  MISS:          0
cpu0_DTLB WRITEBACK ACCESS:          0  HIT:          0  MISS:          0
cpu0_ITLB TOTAL     ACCESS:     910752  HIT:     910752  MISS:          0
cpu0_ITLB LOAD      ACCESS:     910752  HIT:     910752  MISS:          0
cpu0_ITLB RFO       ACCESS:          0  HIT:          0  MISS:          0
cpu0_ITLB PREFETCH  ACCESS:          0  HIT:          0  MISS:          0
cpu0_ITLB WRITEBACK ACCESS:          0  HIT:          0  MISS:          0
cpu0_L1I TOTAL     ACCESS:    1064096  HIT:    1064096  MISS:          0
cpu0_L1I LOAD      ACCESS:    1064096  HIT:    1064096  MISS:          0
cpu0_L1I RFO       ACCESS:          0  HIT:          0  MISS:          0
cpu0_L1I PREFETCH  ACCESS:          0  HIT:          0  MISS:          0
cpu0_L1I WRITEBACK ACCESS:          0  HIT:          0  MISS:          0
cpu0_STLB TOTAL     ACCESS:      65769  HIT:      30081  MISS:      35688
cpu0_STLB LOAD      ACCESS:       8925  HIT:          0  MISS:       8925
cpu0_STLB RFO       ACCESS:      56844  HIT:      30081  MISS:      26763
cpu0_STLB PREFETCH  ACCESS:          0  HIT:          0  MISS:          0
cpu0_STLB WRITEBACK ACCESS:          0  HIT:          0  MISS:          0
cpu0_L1D TOTAL     ACCESS:   11379428  HIT:    7611756  MISS:    3767672
cpu0_L1D LOAD      ACCESS:    2697870  HIT:    2126988  MISS:     570882
cpu0_L1D RFO       ACCESS:    8647781  HIT:    5451007  MISS:    3196774
cpu0_L1D PREFETCH  ACCESS:          0  HIT:          0  MISS:          0
cpu0_L1D WRITEBACK ACCESS:          0  HIT:          0  MISS:          0
cpu0_L2C TOTAL     ACCESS:    6964445  HIT:    4626620  MISS:    2337825
cpu0_L2C LOAD      ACCESS:     570882  HIT:          3  MISS:     570879
cpu0_L2C RFO       ACCESS:    3196774  HIT:    1429971  MISS:    1766803
cpu0_L2C PREFETCH  ACCESS:          0  HIT:          0  MISS:          0
cpu0_L2C WRITEBACK ACCESS:    3196773  HIT:    3196646  MISS:        127
LLC TOTAL     ACCESS:    4104646  HIT:    1819419  MISS:    2285227
LLC LOAD      ACCESS:     570879  HIT:          0  MISS:     570879
LLC RFO       ACCESS:    1766739  HIT:      54233  MISS:    1712506
LLC PREFETCH  ACCESS:          0  HIT:          0  MISS:          0
LLC WRITEBACK ACCESS:    1767012  HIT:    1765186  MISS:       1826
Heartbeat CPU 0 instructions: 100000002 cycles: 250838214 heartbeat IPC: 0.200536 cumulative IPC: 0.210184 (Simulation time: 2 hr 38 min 35 sec) 

Region of Interest Statistics
cpu0_DTLB TOTAL     ACCESS:    8932755  HIT:    8864098  MISS:      68657
cpu0_DTLB LOAD      ACCESS:    3967824  HIT:    3958507  MISS:       9317
cpu0_DTLB RFO       ACCESS:    4964931  HIT:    4905591  MISS:      59340
cpu0_DTLB PREFETCH  ACCESS:          0  HIT:          0  MISS:          0
cpu0_DTLB WRITEBACK ACCESS:          0  HIT:          0  MISS:          0
cpu0_ITLB TOTAL     ACCESS:     951174  HIT:     951174  MISS:          0
cpu0_ITLB LOAD      ACCESS:     951174  HIT:     951174  MISS:          0
cpu0_ITLB RFO       ACCESS:          0  HIT:          0  MISS:          0
cpu0_ITLB PREFETCH  ACCESS:          0  HIT:          0  MISS:          0
cpu0_ITLB WRITEBACK ACCESS:          0  HIT:          0  MISS:          0
cpu0_L1I TOTAL     ACCESS:    1109090  HIT:    1109090  MISS:          0
cpu0_L1I LOAD      ACCESS:    1109090  HIT:    1109090  MISS:          0
cpu0_L1I RFO       ACCESS:          0  HIT:          0  MISS:          0
cpu0_L1I PREFETCH  ACCESS:          0  HIT:          0  MISS:          0
cpu0_L1I WRITEBACK ACCESS:          0  HIT:          0  MISS:          0
cpu0_STLB TOTAL     ACCESS:      68657  HIT:      31401  MISS:      37256
cpu0_STLB LOAD      ACCESS:       9317  HIT:          0  MISS:       9317
cpu0_STLB RFO       ACCESS:      59340  HIT:      31401  MISS:      27939
cpu0_STLB PREFETCH  ACCESS:          0  HIT:          0  MISS:          0
cpu0_STLB WRITEBACK ACCESS:          0  HIT:          0  MISS:          0
cpu0_L1D TOTAL     ACCESS:   11860003  HIT:    7926885  MISS:    3933118
cpu0_L1D LOAD      ACCESS:    2810251  HIT:    2214300  MISS:     595951
cpu0_L1D RFO       ACCESS:    9014407  HIT:    5677256  MISS:    3337151
cpu0_L1D PREFETCH  ACCESS:          0  HIT:          0  MISS:          0
cpu0_L1D WRITEBACK ACCESS:          0  HIT:          0  MISS:          0
cpu0_L2C TOTAL     ACCESS:    7270263  HIT:    4829839  MISS:    2440424
cpu0_L2C LOAD      ACCESS:     595951  HIT:          3  MISS:     595948
cpu0_L2C RFO       ACCESS:    3337151  HIT:    1492821  MISS:    1844330
cpu0_L2C PREFETCH  ACCESS:          0  HIT:          0  MISS:          0
cpu0_L2C WRITEBACK ACCESS:    3337145  HIT:    3337015  MISS:        130
LLC TOTAL     ACCESS:    4284853  HIT:    1899235  MISS:    2385618
LLC LOAD      ACCESS:     595948  HIT:          0  MISS:     595948
LLC RFO       ACCESS:    1844265  HIT:      56557  MISS:    1787708
LLC PREFETCH  ACCESS:          0  HIT:          0  MISS:          0
LLC WRITEBACK ACCESS:    1844624  HIT:    1842678  MISS:       1946
Heartbeat CPU 0 instructions: 102000003 cycles: 260782322 heartbeat IPC: 0.201124 cumulative IPC: 0.20982 (Simulation time: 2 hr 44 min 48 sec) 

Region of Interest Statistics
cpu0_DTLB TOTAL     ACCESS:    9296762  HIT:    9225226  MISS:      71536
cpu0_DTLB LOAD      ACCESS:    4127440  HIT:    4117733  MISS:       9707
cpu0_DTLB RFO       ACCESS:    5169322  HIT:    5107493  MISS:      61829
cpu0_DTLB PREFETCH  ACCESS:          0  HIT:          0  MISS:          0
cpu0_DTLB WRITEBACK ACCESS:          0  HIT:          0  MISS:          0
cpu0_ITLB TOTAL     ACCESS:     991403  HIT:     991403  MISS:          0
cpu0_ITLB LOAD      ACCESS:     991403  HIT:     991403  MISS:          0
cpu0_ITLB RFO       ACCESS:          0  HIT:          0  MISS:          0
cpu0_ITLB PREFETCH  ACCESS:          0  HIT:          0  MISS:          0
cpu0_ITLB WRITEBACK ACCESS:          0  HIT:          0  MISS:          0
cpu0_L1I TOTAL     ACCESS:    1154285  HIT:    1154285  MISS:          0
cpu0_L1I LOAD      ACCESS:    1154285  HIT:    1154285  MISS:          0
cpu0_L1I RFO       ACCESS:          0  HIT:          0  MISS:          0
cpu0_L1I PREFETCH  ACCESS:          0  HIT:          0  MISS:          0
cpu0_L1I WRITEBACK ACCESS:          0  HIT:          0  MISS:          0
cpu0_STLB TOTAL     ACCESS:      71536  HIT:      32720  MISS:      38816
cpu0_STLB LOAD      ACCESS:       9707  HIT:          0  MISS:       9707
cpu0_STLB RFO       ACCESS:      61829  HIT:      32720  MISS:      29109
cpu0_STLB PREFETCH  ACCESS:          0  HIT:          0  MISS:          0
cpu0_STLB WRITEBACK ACCESS:          0  HIT:          0  MISS:          0
cpu0_L1D TOTAL     ACCESS:   12340005  HIT:    8242050  MISS:    4097955
cpu0_L1D LOAD      ACCESS:    2922392  HIT:    2301464  MISS:     620928
cpu0_L1D RFO       ACCESS:    9380708  HIT:    5903697  MISS:    3477011
cpu0_L1D PREFETCH  ACCESS:          0  HIT:          0  MISS:          0
cpu0_L1D WRITEBACK ACCESS:          0  HIT:          0  MISS:          0
cpu0_L2C TOTAL     ACCESS:    7574965  HIT:    5032374  MISS:    2542591
cpu0_L2C LOAD      ACCESS:     620928  HIT:          3  MISS:     620925
cpu0_L2C RFO       ACCESS:    3477011  HIT:    1555491  MISS:    1921520
cpu0_L2C PREFETCH  ACCESS:          0  HIT:          0  MISS:          0
cpu0_L2C WRITEBACK ACCESS:    3477010  HIT:    3476880  MISS:        130
LLC TOTAL     ACCESS:    4464092  HIT:    1978538  MISS:    2485554
LLC LOAD      ACCESS:     620925  HIT:          0  MISS:     620925
LLC RFO       ACCESS:    1921448  HIT:      58820  MISS:    1862628
LLC PREFETCH  ACCESS:          0  HIT:          0  MISS:          0
LLC WRITEBACK ACCESS:    1921703  HIT:    1919718  MISS:       1985
Heartbeat CPU 0 instructions: 104000000 cycles: 269455762 heartbeat IPC: 0.230589 cumulative IPC: 0.210522 (Simulation time: 2 hr 49 min 47 sec) 

Region of Interest Statistics
cpu0_DTLB TOTAL     ACCESS:    9640120  HIT:    9566100  MISS:      74020
cpu0_DTLB LOAD      ACCESS:    4283992  HIT:    4273948  MISS:      10044
cpu0_DTLB RFO       ACCESS:    5356128  HIT:    5292152  MISS:      63976
cpu0_DTLB PREFETCH  ACCESS:          0  HIT:          0  MISS:          0
cpu0_DTLB WRITEBACK ACCESS:          0  HIT:          0  MISS:          0
cpu0_ITLB TOTAL     ACCESS:    1025045  HIT:    1025045  MISS:          0
cpu0_ITLB LOAD      ACCESS:    1025045  HIT:    1025045  MISS:          0
cpu0_ITLB RFO       ACCESS:          0  HIT:          0  MISS:          0
cpu0_ITLB PREFETCH  ACCESS:          0  HIT:          0  MISS:          0
cpu0_ITLB WRITEBACK ACCESS:          0  HIT:          0  MISS:          0
cpu0_L1I TOTAL     ACCESS:    1196619  HIT:    1196619  MISS:          0
cpu0_L1I LOAD      ACCESS:    1196619  HIT:    1196619  MISS:          0
cpu0_L1I RFO       ACCESS:          0  HIT:          0  MISS:          0
cpu0_L1I PREFETCH  ACCESS:          0  HIT:          0  MISS:          0
cpu0_L1I WRITEBACK ACCESS:          0  HIT:          0  MISS:          0
cpu0_STLB TOTAL     ACCESS:      74020  HIT:      33856  MISS:      40164
cpu0_STLB LOAD      ACCESS:      10044  HIT:          0  MISS:      10044
cpu0_STLB RFO       ACCESS:      63976  HIT:      33856  MISS:      30120
cpu0_STLB PREFETCH  ACCESS:          0  HIT:          0  MISS:          0
cpu0_STLB WRITEBACK ACCESS:          0  HIT:          0  MISS:          0
cpu0_L1D TOTAL     ACCESS:   12803432  HIT:    8563225  MISS:    4240207
cpu0_L1D LOAD      ACCESS:    3035069  HIT:    2392589  MISS:     642480
cpu0_L1D RFO       ACCESS:    9730110  HIT:    6132399  MISS:    3597711
cpu0_L1D PREFETCH  ACCESS:          0  HIT:          0  MISS:          0
cpu0_L1D WRITEBACK ACCESS:          0  HIT:          0  MISS:          0
cpu0_L2C TOTAL     ACCESS:    7837918  HIT:    5207041  MISS:    2630877
cpu0_L2C LOAD      ACCESS:     642480  HIT:          3  MISS:     642477
cpu0_L2C RFO       ACCESS:    3597711  HIT:    1609461  MISS:    1988250
cpu0_L2C PREFETCH  ACCESS:          0  HIT:          0  MISS:          0
cpu0_L2C WRITEBACK ACCESS:    3597711  HIT:    3597577  MISS:        134
LLC TOTAL     ACCESS:    4619329  HIT:    2047349  MISS:    2571980
LLC LOAD      ACCESS:     642477  HIT:          0  MISS:     642477
LLC RFO       ACCESS:    1988169  HIT:      60879  MISS:    1927290
LLC PREFETCH  ACCESS:          0  HIT:          0  MISS:          0
LLC WRITEBACK ACCESS:    1988667  HIT:    1986470  MISS:       2197
Heartbeat CPU 0 instructions: 106000000 cycles: 279457875 heartbeat IPC: 0.199958 cumulative IPC: 0.210126 (Simulation time: 2 hr 55 min 9 sec) 

Region of Interest Statistics
cpu0_DTLB TOTAL     ACCESS:   10005074  HIT:    9928175  MISS:      76899
cpu0_DTLB LOAD      ACCESS:    4444408  HIT:    4433973  MISS:      10435
cpu0_DTLB RFO       ACCESS:    5560666  HIT:    5494202  MISS:      66464
cpu0_DTLB PREFETCH  ACCESS:          0  HIT:          0  MISS:          0
cpu0_DTLB WRITEBACK ACCESS:          0  HIT:          0  MISS:          0
cpu0_ITLB TOTAL     ACCESS:    1064389  HIT:    1064389  MISS:          0
cpu0_ITLB LOAD      ACCESS:    1064389  HIT:    1064389  MISS:          0
cpu0_ITLB RFO       ACCESS:          0  HIT:          0  MISS:          0
cpu0_ITLB PREFETCH  ACCESS:          0  HIT:          0  MISS:          0
cpu0_ITLB WRITEBACK ACCESS:          0  HIT:          0  MISS:          0
cpu0_L1I TOTAL     ACCESS:    1243736  HIT:    1243736  MISS:          0
cpu0_L1I LOAD      ACCESS:    1243736  HIT:    1243736  MISS:          0
cpu0_L1I RFO       ACCESS:          0  HIT:          0  MISS:          0
cpu0_L1I PREFETCH  ACCESS:          0  HIT:          0  MISS:          0
cpu0_L1I WRITEBACK ACCESS:          0  HIT:          0  MISS:          0
cpu0_STLB TOTAL     ACCESS:      76899  HIT:      35171  MISS:      41728
cpu0_STLB LOAD      ACCESS:      10435  HIT:          0  MISS:      10435
cpu0_STLB RFO       ACCESS:      66464  HIT:      35171  MISS:      31293
cpu0_STLB PREFETCH  ACCESS:          0  HIT:          0  MISS:          0
cpu0_STLB WRITEBACK ACCESS:          0  HIT:          0  MISS:          0
cpu0_L1D TOTAL     ACCESS:   13283546  HIT:    8878306  MISS:    4405240
cpu0_L1D LOAD      ACCESS:    3147361  HIT:    2479875  MISS:     667486
cpu0_L1D RFO       ACCESS:   10096368  HIT:    6358632  MISS:    3737736
cpu0_L1D PREFETCH  ACCESS:          0  HIT:          0  MISS:          0
cpu0_L1D WRITEBACK ACCESS:          0  HIT:          0  MISS:          0
cpu0_L2C TOTAL     ACCESS:    8142974  HIT:    5409993  MISS:    2732981
cpu0_L2C LOAD      ACCESS:     667486  HIT:          3  MISS:     667483
cpu0_L2C RFO       ACCESS:    3737736  HIT:    1672405  MISS:    2065331
cpu0_L2C PREFETCH  ACCESS:          0  HIT:          0  MISS:          0
[...]
cpu0_DTLB TOTAL     ACCESS:  266824036  HIT:  264782996  MISS:    2041040
cpu0_DTLB LOAD      ACCESS:  118793720  HIT:  118516758  MISS:     276962
cpu0_DTLB RFO       ACCESS:  148030316  HIT:  146266238  MISS:    1764078
cpu0_DTLB PREFETCH  ACCESS:          0  HIT:          0  MISS:          0
cpu0_DTLB WRITEBACK ACCESS:          0  HIT:          0  MISS:          0
cpu0_ITLB TOTAL     ACCESS:   28071281  HIT:   28071281  MISS:          0
cpu0_ITLB LOAD      ACCESS:   28071281  HIT:   28071281  MISS:          0
cpu0_ITLB RFO       ACCESS:          0  HIT:          0  MISS:          0
cpu0_ITLB PREFETCH  ACCESS:          0  HIT:          0  MISS:          0
cpu0_ITLB WRITEBACK ACCESS:          0  HIT:          0  MISS:          0
cpu0_L1I TOTAL     ACCESS:   33349123  HIT:   33349123  MISS:          0
cpu0_L1I LOAD      ACCESS:   33349123  HIT:   33349123  MISS:          0
cpu0_L1I RFO       ACCESS:          0  HIT:          0  MISS:          0
cpu0_L1I PREFETCH  ACCESS:          0  HIT:          0  MISS:          0
cpu0_L1I WRITEBACK ACCESS:          0  HIT:          0  MISS:          0
cpu0_STLB TOTAL     ACCESS:    2041040  HIT:     933551  MISS:    1107489
cpu0_STLB LOAD      ACCESS:     276962  HIT:          1  MISS:     276961
cpu0_STLB RFO       ACCESS:    1764078  HIT:     933550  MISS:     830528
cpu0_STLB PREFETCH  ACCESS:          0  HIT:          0  MISS:          0
cpu0_STLB WRITEBACK ACCESS:          0  HIT:          0  MISS:          0
cpu0_L1D TOTAL     ACCESS:  354733279  HIT:  237812916  MISS:  116920363
cpu0_L1D LOAD      ACCESS:   84251529  HIT:   66535427  MISS:   17716102
cpu0_L1D RFO       ACCESS:  269438198  HIT:  170234512  MISS:   99203686
cpu0_L1D PREFETCH  ACCESS:          0  HIT:          0  MISS:          0
cpu0_L1D WRITEBACK ACCESS:          0  HIT:          0  MISS:          0
cpu0_L2C TOTAL     ACCESS:  216124044  HIT:  143623247  MISS:   72500797
cpu0_L2C LOAD      ACCESS:   17716102  HIT:        487  MISS:   17715615
cpu0_L2C RFO       ACCESS:   99203684  HIT:   44422364  MISS:   54781320
cpu0_L2C PREFETCH  ACCESS:          0  HIT:          0  MISS:          0
cpu0_L2C WRITEBACK ACCESS:   99203683  HIT:   99200381  MISS:       3302
LLC TOTAL     ACCESS:  127280036  HIT:   56358192  MISS:   70921844
LLC LOAD      ACCESS:   17715615  HIT:         45  MISS:   17715570
LLC RFO       ACCESS:   54779181  HIT:    1636422  MISS:   53142759
LLC PREFETCH  ACCESS:          0  HIT:          0  MISS:          0
LLC WRITEBACK ACCESS:   54784680  HIT:   54721709  MISS:      62971
Heartbeat CPU 0 instructions: 1550000003 cycles: 7105382704 heartbeat IPC: 0.238357 cumulative IPC: 0.211493 (Simulation time: 24 hr 15 min 34 sec) 

Region of Interest Statistics
cpu0_DTLB TOTAL     ACCESS:  267163175  HIT:  265119739  MISS:    2043436
cpu0_DTLB LOAD      ACCESS:  118949938  HIT:  118672652  MISS:     277286
cpu0_DTLB RFO       ACCESS:  148213237  HIT:  146447087  MISS:    1766150
cpu0_DTLB PREFETCH  ACCESS:          0  HIT:          0  MISS:          0
cpu0_DTLB WRITEBACK ACCESS:          0  HIT:          0  MISS:          0
cpu0_ITLB TOTAL     ACCESS:   28102067  HIT:   28102067  MISS:          0
cpu0_ITLB LOAD      ACCESS:   28102067  HIT:   28102067  MISS:          0
cpu0_ITLB RFO       ACCESS:          0  HIT:          0  MISS:          0
cpu0_ITLB PREFETCH  ACCESS:          0  HIT:          0  MISS:          0
cpu0_ITLB WRITEBACK ACCESS:          0  HIT:          0  MISS:          0
cpu0_L1I TOTAL     ACCESS:   33392423  HIT:   33392423  MISS:          0
cpu0_L1I LOAD      ACCESS:   33392423  HIT:   33392423  MISS:          0
cpu0_L1I RFO       ACCESS:          0  HIT:          0  MISS:          0
cpu0_L1I PREFETCH  ACCESS:          0  HIT:          0  MISS:          0
cpu0_L1I WRITEBACK ACCESS:          0  HIT:          0  MISS:          0
cpu0_STLB TOTAL     ACCESS:    2043436  HIT:     934648  MISS:    1108788
cpu0_STLB LOAD      ACCESS:     277286  HIT:          1  MISS:     277285
cpu0_STLB RFO       ACCESS:    1766150  HIT:     934647  MISS:     831503
cpu0_STLB PREFETCH  ACCESS:          0  HIT:          0  MISS:          0
cpu0_STLB WRITEBACK ACCESS:          0  HIT:          0  MISS:          0
cpu0_L1D TOTAL     ACCESS:  355193668  HIT:  238136056  MISS:  117057612
cpu0_L1D LOAD      ACCESS:   84364675  HIT:   66627778  MISS:   17736897
cpu0_L1D RFO       ACCESS:  269784460  HIT:  170464320  MISS:   99320140
cpu0_L1D PREFETCH  ACCESS:          0  HIT:          0  MISS:          0
cpu0_L1D WRITEBACK ACCESS:          0  HIT:          0  MISS:          0
cpu0_L2C TOTAL     ACCESS:  216377743  HIT:  143791913  MISS:   72585830
cpu0_L2C LOAD      ACCESS:   17736897  HIT:        487  MISS:   17736410
cpu0_L2C RFO       ACCESS:   99320138  HIT:   44474582  MISS:   54845556
cpu0_L2C PREFETCH  ACCESS:          0  HIT:          0  MISS:          0
cpu0_L2C WRITEBACK ACCESS:   99320133  HIT:   99316829  MISS:       3304
LLC TOTAL     ACCESS:  127429224  HIT:   56424109  MISS:   71005115
LLC LOAD      ACCESS:   17736410  HIT:         45  MISS:   17736365
LLC RFO       ACCESS:   54843416  HIT:    1638272  MISS:   53205144
LLC PREFETCH  ACCESS:          0  HIT:          0  MISS:          0
LLC WRITEBACK ACCESS:   54848838  HIT:   54785776  MISS:      63062
Finished CPU 0 instructions: 1500000000 cycles: 7092431734 cumulative IPC: 0.211493 (Simulation time: 24 hr 15 min 34 sec) 

ChampSim completed all CPUs

Region of Interest Statistics

CPU 0 cumulative IPC: 0.211493 instructions: 1500000000 cycles: 7092431734
cpu0_DTLB TOTAL     ACCESS:  267163175  HIT:  265119739  MISS:    2043436
cpu0_DTLB LOAD      ACCESS:  118949938  HIT:  118672652  MISS:     277286
cpu0_DTLB RFO       ACCESS:  148213237  HIT:  146447087  MISS:    1766150
cpu0_DTLB PREFETCH  ACCESS:          0  HIT:          0  MISS:          0
cpu0_DTLB WRITEBACK ACCESS:          0  HIT:          0  MISS:          0
cpu0_DTLB TRANSLATION ACCESS:          0  HIT:          0  MISS:          0
cpu0_DTLB PREFETCH  REQUESTED:          0  ISSUED:          0  USEFUL:          0  USELESS:          0
cpu0_DTLB AVERAGE MISS LATENCY: 522.543 cycles
cpu0_ITLB TOTAL     ACCESS:   28102067  HIT:   28102067  MISS:          0
cpu0_ITLB LOAD      ACCESS:   28102067  HIT:   28102067  MISS:          0
cpu0_ITLB RFO       ACCESS:          0  HIT:          0  MISS:          0
cpu0_ITLB PREFETCH  ACCESS:          0  HIT:          0  MISS:          0
cpu0_ITLB WRITEBACK ACCESS:          0  HIT:          0  MISS:          0
cpu0_ITLB TRANSLATION ACCESS:          0  HIT:          0  MISS:          0
cpu0_ITLB PREFETCH  REQUESTED:          0  ISSUED:          0  USEFUL:          0  USELESS:          0
cpu0_ITLB AVERAGE MISS LATENCY: -nan cycles
cpu0_L1I TOTAL     ACCESS:   33392423  HIT:   33392423  MISS:          0
cpu0_L1I LOAD      ACCESS:   33392423  HIT:   33392423  MISS:          0
cpu0_L1I RFO       ACCESS:          0  HIT:          0  MISS:          0
cpu0_L1I PREFETCH  ACCESS:          0  HIT:          0  MISS:          0
cpu0_L1I WRITEBACK ACCESS:          0  HIT:          0  MISS:          0
cpu0_L1I TRANSLATION ACCESS:          0  HIT:          0  MISS:          0
cpu0_L1I PREFETCH  REQUESTED:          0  ISSUED:          0  USEFUL:          0  USELESS:          0
cpu0_L1I AVERAGE MISS LATENCY: -nan cycles
cpu0_STLB TOTAL     ACCESS:    2043436  HIT:     934648  MISS:    1108788
cpu0_STLB LOAD      ACCESS:     277286  HIT:          1  MISS:     277285
cpu0_STLB RFO       ACCESS:    1766150  HIT:     934647  MISS:     831503
cpu0_STLB PREFETCH  ACCESS:          0  HIT:          0  MISS:          0
cpu0_STLB WRITEBACK ACCESS:          0  HIT:          0  MISS:          0
cpu0_STLB TRANSLATION ACCESS:          0  HIT:          0  MISS:          0
cpu0_STLB PREFETCH  REQUESTED:          0  ISSUED:          0  USEFUL:          0  USELESS:          0
cpu0_STLB AVERAGE MISS LATENCY: 946.291 cycles
cpu0_L1D TOTAL     ACCESS:  355193668  HIT:  238136056  MISS:  117057612
cpu0_L1D LOAD      ACCESS:   84364675  HIT:   66627778  MISS:   17736897
cpu0_L1D RFO       ACCESS:  269784460  HIT:  170464320  MISS:   99320140
cpu0_L1D PREFETCH  ACCESS:          0  HIT:          0  MISS:          0
cpu0_L1D WRITEBACK ACCESS:          0  HIT:          0  MISS:          0
cpu0_L1D TRANSLATION ACCESS:    1044533  HIT:    1043958  MISS:        575
cpu0_L1D PREFETCH  REQUESTED:          0  ISSUED:          0  USEFUL:          0  USELESS:          0
cpu0_L1D AVERAGE MISS LATENCY: 757.115 cycles
cpu0_L2C TOTAL     ACCESS:  216377743  HIT:  143791913  MISS:   72585830
cpu0_L2C LOAD      ACCESS:   17736897  HIT:        487  MISS:   17736410
cpu0_L2C RFO       ACCESS:   99320138  HIT:   44474582  MISS:   54845556
cpu0_L2C PREFETCH  ACCESS:          0  HIT:          0  MISS:          0
cpu0_L2C WRITEBACK ACCESS:   99320133  HIT:   99316829  MISS:       3304
cpu0_L2C TRANSLATION ACCESS:        575  HIT:         15  MISS:        560
cpu0_L2C PREFETCH  REQUESTED:          0  ISSUED:          0  USEFUL:          0  USELESS:          0
cpu0_L2C AVERAGE MISS LATENCY: 1203.16 cycles
LLC TOTAL     ACCESS:  127429224  HIT:   56424109  MISS:   71005115
LLC LOAD      ACCESS:   17736410  HIT:         45  MISS:   17736365
LLC RFO       ACCESS:   54843416  HIT:    1638272  MISS:   53205144
LLC PREFETCH  ACCESS:          0  HIT:          0  MISS:          0
LLC WRITEBACK ACCESS:   54848838  HIT:   54785776  MISS:      63062
LLC TRANSLATION ACCESS:        560  HIT:         16  MISS:        544
LLC PREFETCH  REQUESTED:          0  ISSUED:          0  USEFUL:          0  USELESS:          0
LLC AVERAGE MISS LATENCY: 1208.48 cycles
~~~~~~~~~~Reuse Distance Profiler output~~~~~~~~~~
0	0	0
1	0	0
2	0	0
3	0	0
4	0	0
5	0	0
6	0	0
7	0	0
8	0	0
9	0	0
10	0	0
11	0	0
12	0	0
13	0	0
14	0	0
15	0	0
16	0	0
17	0	0
18	0	0
19	0	0
20	0	0
21	0	0
22	0	0
23	0	0
24	0	0
25	0	0
26	0	0
27	0	0
28	0	0
29	0	0
30	0	0
31	0	0
32	0	0
33	0	0
34	0	0
35	0	0
36	0	0
37	0	0
38	0	0
39	0	0
40	0	0
41	0	0
42	0	0
43	0	0
44	0	0
45	0	0
46	0	0
47	0	0
48	0	0
49	0	0
50	0	0
51	0	0
52	0	0
53	0	0
54	0	0
55	0	0
56	0	0
57	0	0
58	0	0
59	0	0
60	0	0
61	0	0
62	0	0
63	0	0
64	0	0
66	0	0
68	0	0
70	0	0
72	0	0
74	0	0
76	0	0
78	0	0
80	0	0
82	0	0
84	0	0
86	0	0
88	0	0
90	0	0
92	0	0
94	0	0
96	0	0
98	0	0
100	0	0
102	0	0
104	0	0
106	0	0
108	0	0
110	0	0
112	0	0
114	0	0
116	0	0
118	0	0
120	0	0
122	0	0
124	0	0
126	0	0
128	0	0
132	0	0
136	0	0
140	0	0
144	0	0
148	0	0
152	0	0
156	0	0
160	0	0
164	0	0
168	0	0
172	0	0
176	0	0
180	0	0
184	0	0
188	0	0
192	0	0
196	0	0
200	0	0
204	0	0
208	0	0
212	0	0
216	0	0
220	0	0
224	0	0
228	0	0
232	0	0
236	0	0
240	0	0
244	0	0
248	0	0
252	0	0
256	0	0
264	0	0
272	0	0
280	0	0
288	0	0
296	0	0
304	0	0
312	0	0
320	0	0
328	0	0
336	0	0
344	0	0
352	0	0
360	0	0
368	0	0
376	0	0
384	0	0
392	0	0
400	0	0
408	0	0
416	0	0
424	0	0
432	0	0
440	0	0
448	0	0
456	0	0
464	0	0
472	0	0
480	0	0
488	0	0
496	0	0
504	0	0
512	0	0
528	0	0
544	0	0
560	0	0
576	0	0
592	0	0
608	0	0
624	0	0
640	0	0
656	0	0
672	0	0
688	0	0
704	0	0
720	0	0
736	0	0
752	0	0
768	0	0
784	0	0
800	0	0
816	0	0
832	0	0
848	0	0
864	0	0
880	0	0
896	0	0
912	0	0
928	0	0
944	0	0
960	0	0
976	0	0
992	0	0
1008	0	0
1024	0	0
1056	0	0
1088	0	0
1120	0	0
1152	0	0
1184	0	0
1216	0	0
1248	0	0
1280	0	0
1312	0	0
1344	0	0
1376	0	0
1408	0	0
1440	0	0
1472	0	0
1504	0	0
1536	0	0
1568	0	0
1600	0	0
1632	0	0
1664	0	0
1696	0	0
1728	0	0
1760	0	0
1792	0	0
1824	0	0
1856	0	0
1888	0	0
1920	0	0
1952	0	0
1984	0	0
2016	0	0
2048	0	0
2112	0	0
2176	0	0
2240	0	0
2304	0	0
2368	0	0
2432	0	0
2496	0	0
2560	0	0
2624	0	0
2688	0	0
2752	0	0
2816	0	0
2880	0	0
2944	0	0
3008	0	0
3072	0	0
3136	0	0
3200	0	0
3264	0	0
3328	0	0
3392	0	0
3456	0	0
3520	0	0
3584	0	0
3648	0	0
3712	0	0
3776	0	0
3840	0	0
3904	0	0
3968	0	0
4032	0	0
4096	0	0
4224	0	0
4352	0	0
4480	0	0
4608	0	0
4736	0	0
4864	0	0
4992	0	0
5120	0	0
5248	0	0
5376	0	0
5504	0	0
5632	0	0
5760	0	0
5888	0	0
6016	0	0
6144	0	0
6272	0	0
6400	0	0
6528	0	0
6656	0	0
6784	0	0
6912	0	0
7040	0	0
7168	0	0
7296	0	0
7424	0	0
7552	0	0
7680	0	0
7808	0	0
7936	0	0
8064	0	0
8192	0	0
8448	0	0
8704	0	0
8960	0	0
9216	0	0
9472	0	0
9728	0	0
9984	0	0
10240	0	0
10496	0	0
10752	0	0
11008	0	0
11264	0	0
11520	0	0
11776	0	0
12032	0	0
12288	0	0
12544	0	0
12800	0	0
13056	0	0
13312	0	0
13568	0	0
13824	0	0
14080	0	0
14336	0	0
14592	0	0
14848	0	0
15104	0	0
15360	0	0
15616	0	0
15872	0	0
16128	0	0
16384	0	0
16896	0	0
17408	0	0
17920	0	0
18432	0	0
18944	0	0
19456	0	0
19968	0	0
20480	0	0
20992	0	0
21504	0	0
22016	0	0
22528	0	0
23040	0	0
23552	0	0
24064	0	0
24576	0	0
25088	0	0
25600	0	0
26112	0	0
26624	0	0
27136	0	0
27648	0	0
28160	0	0
28672	0	0
29184	0	0
29696	0	0
30208	0	0
30720	0	0
31232	0	0
31744	0	0
32256	0	0
32768	0	0
33792	0	0
34816	0	0
35840	0	0
36864	0	0
37888	0	0
38912	0	0
39936	0	0
40960	0	0
41984	0	0
43008	0	0
44032	0	0
45056	0	0
46080	0	0
47104	0	0
48128	0	0
49152	0	0
50176	0	0
51200	0	0
52224	0	0
53248	0	0
54272	0	0
55296	0	0
56320	0	0
57344	0	0
58368	0	0
59392	0	0
60416	0	0
61440	0	0
62464	0	0
63488	0	0
64512	0	0
65536	0	0
67584	0	0
69632	0	0
71680	0	0
73728	0	0
75776	0	0
77824	0	0
79872	0	0
81920	0	0
83968	0	0
86016	0	0
88064	0	0
90112	0	0
92160	0	0
94208	0	0
96256	0	0
98304	0	0
100352	0	0
102400	0	0
104448	0	0
106496	0	0
108544	0	0
110592	0	0
112640	0	0
114688	0	0
116736	0	0
118784	0	0
120832	0	0
122880	0	0
124928	0	0
126976	0	0
129024	0	0
131072	0	0
135168	0	0
139264	0	0
143360	0	0
147456	0	0
151552	0	0
155648	0	0
159744	0	0
163840	0	0
167936	0	0
172032	0	0
176128	0	0
180224	0	0
184320	0	0
188416	0	0
192512	0	0
196608	0	0
200704	0	0
204800	0	0
208896	0	0
212992	0	0
217088	0	0
221184	0	0
225280	0	0
229376	0	0
233472	0	0
237568	0	0
241664	0	0
245760	0	0
249856	0	0
253952	0	0
258048	0	0
262144	0	0
270336	0	0
278528	0	0
286720	0	0
294912	0	0
303104	0	0
311296	0	0
319488	0	0
327680	0	0
335872	0	0
344064	0	0
352256	0	0
360448	0	0
368640	0	0
376832	0	0
385024	0	0
393216	0	0
401408	0	0
409600	0	0
417792	0	0
425984	0	0
434176	0	0
442368	0	0
450560	0	0
458752	0	0
466944	0	0
475136	0	0
483328	0	0
491520	0	0
499712	0	0
507904	0	0
516096	0	0
524288	0	0
540672	0	0
557056	0	0
573440	0	0
589824	0	0
606208	0	0
622592	0	0
638976	0	0
655360	0	0
671744	0	0
688128	0	0
704512	0	0
720896	0	0
737280	0	0
753664	0	0
770048	0	0
786432	0	0
802816	0	0
819200	0	0
835584	0	0
851968	0	0
868352	0	0
884736	0	0
901120	0	0
917504	0	0
933888	0	0
950272	0	0
966656	0	0
983040	0	0
999424	0	0
1015808	0	0
1032192	0	0
1048576	0	0
1081344	0	0
1114112	0	0
1146880	0	0
1179648	0	0
1212416	0	0
1245184	0	0
1277952	0	0
1310720	0	0
1343488	0	0
1376256	0	0
1409024	0	0
1441792	0	0
1474560	0	0
1507328	0	0
1540096	0	0
1572864	0	0
1605632	0	0
1638400	0	0
1671168	0	0
1703936	0	0
1736704	0	0
1769472	0	0
1802240	0	0
1835008	0	0
1867776	0	0
1900544	0	0
1933312	0	0
1966080	0	0
1998848	0	0
2031616	0	0
2064384	0	0
2097152	0	0
2162688	0	0
2228224	0	0
2293760	0	0
2359296	0	0
2424832	0	0
2490368	0	0
2555904	0	0
2621440	0	0
2686976	0	0
2752512	0	0
2818048	0	0
2883584	0	0
2949120	0	0
3014656	0	0
3080192	0	0
3145728	0	0
3211264	0	0
3276800	0	0
3342336	0	0
3407872	0	0
3473408	0	0
3538944	0	0
3604480	0	0
3670016	0	0
3735552	0	0
3801088	0	0
3866624	0	0
3932160	0	0
3997696	0	0
4063232	0	0
4128768	0	0
4194304	0	0
4325376	0	0
4456448	0	0
4587520	0	0
4718592	0	0
4849664	0	0
4980736	0	0
5111808	0	0
5242880	0	0
5373952	0	0
5505024	0	0
5636096	0	0
5767168	0	0
5898240	0	0
6029312	0	0
6160384	0	0
6291456	0	0
6422528	0	0
6553600	0	0
6684672	0	0
6815744	0	0
6946816	0	0
7077888	0	0
7208960	0	0
7340032	0	0
7471104	0	0
7602176	0	0
7733248	0	0
7864320	0	0
7995392	0	0
8126464	0	0
8257536	0	0
8388608	0	0
8650752	0	0
8912896	0	0
9175040	0	0
9437184	0	0
9699328	0	0
9961472	0	0
10223616	0	0
10485760	0	0
10747904	0	0
11010048	0	0
11272192	0	0
11534336	0	0
11796480	0	0
12058624	0	0
12320768	0	0
12582912	0	0
12845056	0	0
13107200	0	0
13369344	0	0
13631488	0	0
13893632	0	0
14155776	0	0
14417920	0	0
14680064	0	0
14942208	0	0
15204352	0	0
15466496	0	0
15728640	0	0
15990784	0	0
16252928	0	0
16515072	0	0
16777216	0	0
17301504	0	0
17825792	0	0
18350080	0	0
18874368	0	0
19398656	0	0
19922944	0	0
20447232	0	0
20971520	0	0
21495808	0	0
22020096	0	0
22544384	0	0
23068672	0	0
23592960	0	0
24117248	0	0
24641536	0	0
25165824	0	0
25690112	0	0
26214400	0	0
26738688	0	0
27262976	0	0
27787264	0	0
28311552	0	0
28835840	0	0
29360128	0	0
29884416	0	0
30408704	0	0
30932992	0	0
31457280	0	0
31981568	0	0
32505856	0	0
33030144	0	0
33554432	0	0
34603008	0	0
35651584	0	0
36700160	0	0
37748736	0	0
38797312	0	0
39845888	0	0
40894464	0	0
41943040	0	0
42991616	0	0
44040192	0	0
45088768	0	0
46137344	0	0
47185920	0	0
48234496	0	0
49283072	0	0
50331648	0	0
51380224	0	0
52428800	0	0
53477376	0	0
54525952	0	0
55574528	0	0
56623104	0	0
57671680	0	0
58720256	0	0
59768832	0	0
60817408	0	0
61865984	0	0
62914560	0	0
63963136	0	0
65011712	0	0
66060288	0	0
67108864	0	0
69206016	0	0
71303168	0	0
73400320	0	0
75497472	0	0
77594624	0	0
79691776	0	0
81788928	0	0
83886080	0	0
85983232	0	0
88080384	0	0
90177536	0	0
92274688	0	0
94371840	0	0
96468992	0	0
98566144	0	0
100663296	0	0
102760448	0	0
104857600	0	0
106954752	0	0
109051904	0	0
111149056	0	0
113246208	0	0
115343360	0	0
117440512	0	0
119537664	0	0
121634816	0	0
123731968	0	0
125829120	0	0
127926272	0	0
130023424	0	0
132120576	0	0
134217728	0	0
138412032	0	0
142606336	0	0
146800640	0	0
150994944	0	0
155189248	0	0
159383552	0	0
163577856	0	0
167772160	0	0
171966464	0	0
176160768	0	0
180355072	0	0
184549376	0	0
188743680	0	0
192937984	0	0
197132288	0	0
201326592	0	0
205520896	0	0
209715200	0	0
213909504	0	0
218103808	0	0
222298112	0	0
226492416	0	0
230686720	0	0
234881024	0	0
239075328	0	0
243269632	0	0
247463936	0	0
251658240	0	0
255852544	0	0
260046848	0	0
264241152	0	0
268435456	0	0
276824064	0	0
285212672	0	0
293601280	0	0
301989888	0	0
310378496	0	0
318767104	0	0
327155712	0	0
335544320	0	0
343932928	0	0
352321536	0	0
360710144	0	0
369098752	0	0
377487360	0	0
385875968	0	0
394264576	0	0
402653184	0	0
411041792	0	0
419430400	0	0
427819008	0	0
436207616	0	0
444596224	0	0
452984832	0	0
461373440	0	0
469762048	0	0
478150656	0	0
486539264	0	0
494927872	0	0
503316480	0	0
511705088	0	0
520093696	0	0
528482304	0	0
536870912	0	0
553648128	0	0
570425344	0	0
587202560	0	0
603979776	0	0
620756992	0	0
637534208	0	0
654311424	0	0
671088640	0	0
687865856	0	0
704643072	0	0
721420288	0	0
738197504	0	0
754974720	0	0
771751936	0	0
788529152	0	0
805306368	0	0
822083584	0	0
838860800	0	0
855638016	0	0
872415232	0	0
889192448	0	0
905969664	0	0
922746880	0	0
939524096	0	0
956301312	0	0
973078528	0	0
989855744	0	0
1006632960	0	0
1023410176	0	0
1040187392	0	0
1056964608	0	0
1073741824	0	0
1107296256	0	0
1140850688	0	0
1174405120	0	0
1207959552	0	0
1241513984	0	0
1275068416	0	0
1308622848	0	0
1342177280	0	0
1375731712	0	0
1409286144	0	0
1442840576	0	0
1476395008	0	0
1509949440	0	0
1543503872	0	0
1577058304	0	0
1610612736	0	0
1644167168	0	0
1677721600	0	0
1711276032	0	0
1744830464	0	0
1778384896	0	0
1811939328	0	0
1845493760	0	0
1879048192	0	0
1912602624	0	0
1946157056	0	0
1979711488	0	0
2013265920	0	0
2046820352	0	0
2080374784	0	0
2113929216	0	0
2147483648	0	0
2214592512	0	0
2281701376	0	0
2348810240	0	0
2415919104	0	0
2483027968	0	0
2550136832	0	0
2617245696	0	0
2684354560	0	0
2751463424	0	0
2818572288	0	0
2885681152	0	0
2952790016	0	0
3019898880	0	0
3087007744	0	0
3154116608	0	0
3221225472	0	0
3288334336	0	0
3355443200	0	0
3422552064	0	0
3489660928	0	0
3556769792	0	0
3623878656	0	0
3690987520	0	0
3758096384	0	0
3825205248	0	0
3892314112	0	0
3959422976	0	0
4026531840	0	0
4093640704	0	0
4160749568	0	0
4227858432	0	0
~~~~~~~~~~Reuse Distance Profiler output end~~~~~~~~~~


DRAM Statistics
 CHANNEL 0
 RQ ROW_BUFFER_HIT:    2177712  ROW_BUFFER_MISS:   68764320
 DBUS AVG_CONGESTED_CYCLE:    4.00323
 WQ ROW_BUFFER_HIT:     796613  ROW_BUFFER_MISS:   52411944  FULL:          0


CPU 0 Branch Prediction Accuracy: 96.0416% MPKI: 0.707559 Average ROB Occupancy at Mispredict: 258.175
Branch type MPKI
BRANCH_DIRECT_JUMP: 0
BRANCH_INDIRECT: 0
BRANCH_CONDITIONAL: 0.707559
BRANCH_DIRECT_CALL: 0
BRANCH_INDIRECT_CALL: 0
BRANCH_RETURN: 0

