
*** ChampSim Multicore Out-of-Order Simulator ***

Warmup Instructions: 50000000
Simulation Instructions: 1500000000
Number of CPUs: 1
Off-chip DRAM Size: 4 GiB Channels: 1 Width: 64-bit Data Rate: 3200 MT/s

VirtualMemory physical capacity: 8588881920 num_ppages: 2096895
VirtualMemory page size: 4096 log2_page_size: 12

CPU 0 runs traces/619.lbm_s-2676B.champsimtrace.xz
CPU 0 Bimodal branch predictor
Basic BTB sets: 1024 ways: 8 indirect buffer size: 4096 RAS size: 64
Initializing LRU.
Initializing LRU.
Initializing LRU.
Initializing LRU.
Initializing rdLRU.
Initializing LRU.
Initializing LRU.
Heartbeat CPU 0 instructions: 2000002 cycles: 512597 heartbeat IPC: 3.9017 cumulative IPC: 3.9017 (Simulation time: 0 hr 0 min 50 sec) 
Heartbeat CPU 0 instructions: 4000000 cycles: 1034041 heartbeat IPC: 3.8355 cumulative IPC: 3.86832 (Simulation time: 0 hr 1 min 41 sec) 
Heartbeat CPU 0 instructions: 6000000 cycles: 1553596 heartbeat IPC: 3.84945 cumulative IPC: 3.86201 (Simulation time: 0 hr 2 min 34 sec) 
Heartbeat CPU 0 instructions: 8000001 cycles: 2073420 heartbeat IPC: 3.84746 cumulative IPC: 3.85836 (Simulation time: 0 hr 3 min 30 sec) 
Heartbeat CPU 0 instructions: 10000001 cycles: 2591185 heartbeat IPC: 3.86276 cumulative IPC: 3.85924 (Simulation time: 0 hr 4 min 21 sec) 
Heartbeat CPU 0 instructions: 12000002 cycles: 3107356 heartbeat IPC: 3.87469 cumulative IPC: 3.8618 (Simulation time: 0 hr 5 min 8 sec) 
Heartbeat CPU 0 instructions: 14000000 cycles: 3625197 heartbeat IPC: 3.86219 cumulative IPC: 3.86186 (Simulation time: 0 hr 5 min 55 sec) 
Heartbeat CPU 0 instructions: 16000003 cycles: 4143154 heartbeat IPC: 3.86133 cumulative IPC: 3.86179 (Simulation time: 0 hr 6 min 43 sec) 
Heartbeat CPU 0 instructions: 18000001 cycles: 4661796 heartbeat IPC: 3.85622 cumulative IPC: 3.86117 (Simulation time: 0 hr 7 min 33 sec) 
Heartbeat CPU 0 instructions: 20000002 cycles: 5177406 heartbeat IPC: 3.8789 cumulative IPC: 3.86294 (Simulation time: 0 hr 8 min 23 sec) 
Heartbeat CPU 0 instructions: 22000002 cycles: 5693661 heartbeat IPC: 3.87405 cumulative IPC: 3.86395 (Simulation time: 0 hr 9 min 18 sec) 
Heartbeat CPU 0 instructions: 24000002 cycles: 6208896 heartbeat IPC: 3.88172 cumulative IPC: 3.86542 (Simulation time: 0 hr 10 min 6 sec) 
Heartbeat CPU 0 instructions: 26000000 cycles: 6725665 heartbeat IPC: 3.8702 cumulative IPC: 3.86579 (Simulation time: 0 hr 10 min 55 sec) 
Heartbeat CPU 0 instructions: 28000003 cycles: 7242349 heartbeat IPC: 3.87084 cumulative IPC: 3.86615 (Simulation time: 0 hr 11 min 48 sec) 
Heartbeat CPU 0 instructions: 30000003 cycles: 7758334 heartbeat IPC: 3.87608 cumulative IPC: 3.86681 (Simulation time: 0 hr 12 min 35 sec) 
Heartbeat CPU 0 instructions: 32000002 cycles: 8271998 heartbeat IPC: 3.89359 cumulative IPC: 3.86847 (Simulation time: 0 hr 13 min 27 sec) 
Heartbeat CPU 0 instructions: 34000003 cycles: 8787091 heartbeat IPC: 3.8828 cumulative IPC: 3.86931 (Simulation time: 0 hr 14 min 17 sec) 
Heartbeat CPU 0 instructions: 36000000 cycles: 9298901 heartbeat IPC: 3.90769 cumulative IPC: 3.87143 (Simulation time: 0 hr 15 min 5 sec) 
Heartbeat CPU 0 instructions: 38000002 cycles: 9818180 heartbeat IPC: 3.8515 cumulative IPC: 3.87037 (Simulation time: 0 hr 15 min 58 sec) 
Heartbeat CPU 0 instructions: 40000000 cycles: 10329481 heartbeat IPC: 3.91159 cumulative IPC: 3.87241 (Simulation time: 0 hr 16 min 50 sec) 
Heartbeat CPU 0 instructions: 42000003 cycles: 10840330 heartbeat IPC: 3.91506 cumulative IPC: 3.87442 (Simulation time: 0 hr 17 min 41 sec) 
Heartbeat CPU 0 instructions: 44000001 cycles: 11353627 heartbeat IPC: 3.89638 cumulative IPC: 3.87541 (Simulation time: 0 hr 18 min 32 sec) 
Heartbeat CPU 0 instructions: 46000002 cycles: 11863198 heartbeat IPC: 3.92487 cumulative IPC: 3.87754 (Simulation time: 0 hr 19 min 21 sec) 
Heartbeat CPU 0 instructions: 48000000 cycles: 12378155 heartbeat IPC: 3.88382 cumulative IPC: 3.8778 (Simulation time: 0 hr 20 min 11 sec) 
Heartbeat CPU 0 instructions: 50000003 cycles: 12892269 heartbeat IPC: 3.89019 cumulative IPC: 3.87829 (Simulation time: 0 hr 20 min 59 sec) 

Warmup complete CPU 0 instructions: 50000003 cycles: 12892269 (Simulation time: 0 hr 20 min 59 sec) 

Heartbeat CPU 0 instructions: 52000001 cycles: 20217655 heartbeat IPC: 0.273023 cumulative IPC: 0.273023 (Simulation time: 0 hr 25 min 36 sec) 

Region of Interest Statistics
cpu0_DTLB TOTAL     ACCESS:     320152  HIT:     318093  MISS:       2059
cpu0_DTLB LOAD      ACCESS:     152270  HIT:     151990  MISS:        280
cpu0_DTLB RFO       ACCESS:     167882  HIT:     166103  MISS:       1779
cpu0_DTLB PREFETCH  ACCESS:          0  HIT:          0  MISS:          0
cpu0_DTLB WRITEBACK ACCESS:          0  HIT:          0  MISS:          0
cpu0_ITLB TOTAL     ACCESS:      25070  HIT:      25070  MISS:          0
cpu0_ITLB LOAD      ACCESS:      25070  HIT:      25070  MISS:          0
cpu0_ITLB RFO       ACCESS:          0  HIT:          0  MISS:          0
cpu0_ITLB PREFETCH  ACCESS:          0  HIT:          0  MISS:          0
cpu0_ITLB WRITEBACK ACCESS:          0  HIT:          0  MISS:          0
cpu0_L1I TOTAL     ACCESS:      40977  HIT:      40977  MISS:          0
cpu0_L1I LOAD      ACCESS:      40977  HIT:      40977  MISS:          0
cpu0_L1I RFO       ACCESS:          0  HIT:          0  MISS:          0
cpu0_L1I PREFETCH  ACCESS:          0  HIT:          0  MISS:          0
cpu0_L1I WRITEBACK ACCESS:          0  HIT:          0  MISS:          0
cpu0_STLB TOTAL     ACCESS:       2059  HIT:        942  MISS:       1117
cpu0_STLB LOAD      ACCESS:        280  HIT:          0  MISS:        280
cpu0_STLB RFO       ACCESS:       1779  HIT:        942  MISS:        837
cpu0_STLB PREFETCH  ACCESS:          0  HIT:          0  MISS:          0
cpu0_STLB WRITEBACK ACCESS:          0  HIT:          0  MISS:          0
cpu0_L1D TOTAL     ACCESS:     445223  HIT:     327281  MISS:     117942
cpu0_L1D LOAD      ACCESS:     112184  HIT:      94314  MISS:      17870
cpu0_L1D RFO       ACCESS:     331922  HIT:     231850  MISS:     100072
cpu0_L1D PREFETCH  ACCESS:          0  HIT:          0  MISS:          0
cpu0_L1D WRITEBACK ACCESS:          0  HIT:          0  MISS:          0
cpu0_L2C TOTAL     ACCESS:     218013  HIT:     145251  MISS:      72762
cpu0_L2C LOAD      ACCESS:      17870  HIT:          0  MISS:      17870
cpu0_L2C RFO       ACCESS:     100072  HIT:      45180  MISS:      54892
cpu0_L2C PREFETCH  ACCESS:          0  HIT:          0  MISS:          0
cpu0_L2C WRITEBACK ACCESS:     100071  HIT:     100071  MISS:          0
LLC TOTAL     ACCESS:     127557  HIT:        416  MISS:     127141
LLC LOAD      ACCESS:      17870  HIT:          0  MISS:      17870
LLC RFO       ACCESS:      54892  HIT:        416  MISS:      54476
LLC PREFETCH  ACCESS:          0  HIT:          0  MISS:          0
LLC WRITEBACK ACCESS:      54795  HIT:          0  MISS:      54795
Heartbeat CPU 0 instructions: 54000004 cycles: 28151234 heartbeat IPC: 0.252093 cumulative IPC: 0.262141 (Simulation time: 0 hr 30 min 56 sec) 

Region of Interest Statistics
cpu0_DTLB TOTAL     ACCESS:     649639  HIT:     645352  MISS:       4287
cpu0_DTLB LOAD      ACCESS:     306465  HIT:     305883  MISS:        582
cpu0_DTLB RFO       ACCESS:     343174  HIT:     339469  MISS:       3705
cpu0_DTLB PREFETCH  ACCESS:          0  HIT:          0  MISS:          0
cpu0_DTLB WRITEBACK ACCESS:          0  HIT:          0  MISS:          0
cpu0_ITLB TOTAL     ACCESS:      52042  HIT:      52042  MISS:          0
cpu0_ITLB LOAD      ACCESS:      52042  HIT:      52042  MISS:          0
cpu0_ITLB RFO       ACCESS:          0  HIT:          0  MISS:          0
cpu0_ITLB PREFETCH  ACCESS:          0  HIT:          0  MISS:          0
cpu0_ITLB WRITEBACK ACCESS:          0  HIT:          0  MISS:          0
cpu0_L1I TOTAL     ACCESS:      84199  HIT:      84199  MISS:          0
cpu0_L1I LOAD      ACCESS:      84199  HIT:      84199  MISS:          0
cpu0_L1I RFO       ACCESS:          0  HIT:          0  MISS:          0
cpu0_L1I PREFETCH  ACCESS:          0  HIT:          0  MISS:          0
cpu0_L1I WRITEBACK ACCESS:          0  HIT:          0  MISS:          0
cpu0_STLB TOTAL     ACCESS:       4287  HIT:       1962  MISS:       2325
cpu0_STLB LOAD      ACCESS:        582  HIT:          0  MISS:        582
cpu0_STLB RFO       ACCESS:       3705  HIT:       1962  MISS:       1743
cpu0_STLB PREFETCH  ACCESS:          0  HIT:          0  MISS:          0
cpu0_STLB WRITEBACK ACCESS:          0  HIT:          0  MISS:          0
cpu0_L1D TOTAL     ACCESS:     897751  HIT:     652278  MISS:     245473
cpu0_L1D LOAD      ACCESS:     224282  HIT:     187090  MISS:      37192
cpu0_L1D RFO       ACCESS:     671144  HIT:     462863  MISS:     208281
cpu0_L1D PREFETCH  ACCESS:          0  HIT:          0  MISS:          0
cpu0_L1D WRITEBACK ACCESS:          0  HIT:          0  MISS:          0
cpu0_L2C TOTAL     ACCESS:     453752  HIT:     301823  MISS:     151929
cpu0_L2C LOAD      ACCESS:      37192  HIT:          0  MISS:      37192
cpu0_L2C RFO       ACCESS:     208282  HIT:      93545  MISS:     114737
cpu0_L2C PREFETCH  ACCESS:          0  HIT:          0  MISS:          0
cpu0_L2C WRITEBACK ACCESS:     208278  HIT:     208278  MISS:          0
LLC TOTAL     ACCESS:     266559  HIT:       1160  MISS:     265399
LLC LOAD      ACCESS:      37192  HIT:          0  MISS:      37192
LLC RFO       ACCESS:     114733  HIT:       1160  MISS:     113573
LLC PREFETCH  ACCESS:          0  HIT:          0  MISS:          0
LLC WRITEBACK ACCESS:     114634  HIT:          0  MISS:     114634
Heartbeat CPU 0 instructions: 56000002 cycles: 35641892 heartbeat IPC: 0.266999 cumulative IPC: 0.263741 (Simulation time: 0 hr 36 min 1 sec) 

Region of Interest Statistics
cpu0_DTLB TOTAL     ACCESS:     970864  HIT:     964501  MISS:       6363
cpu0_DTLB LOAD      ACCESS:     459014  HIT:     458151  MISS:        863
cpu0_DTLB RFO       ACCESS:     511850  HIT:     506350  MISS:       5500
cpu0_DTLB PREFETCH  ACCESS:          0  HIT:          0  MISS:          0
cpu0_DTLB WRITEBACK ACCESS:          0  HIT:          0  MISS:          0
cpu0_ITLB TOTAL     ACCESS:      77583  HIT:      77583  MISS:          0
cpu0_ITLB LOAD      ACCESS:      77583  HIT:      77583  MISS:          0
cpu0_ITLB RFO       ACCESS:          0  HIT:          0  MISS:          0
cpu0_ITLB PREFETCH  ACCESS:          0  HIT:          0  MISS:          0
cpu0_ITLB WRITEBACK ACCESS:          0  HIT:          0  MISS:          0
cpu0_L1I TOTAL     ACCESS:     125231  HIT:     125231  MISS:          0
cpu0_L1I LOAD      ACCESS:     125231  HIT:     125231  MISS:          0
cpu0_L1I RFO       ACCESS:          0  HIT:          0  MISS:          0
cpu0_L1I PREFETCH  ACCESS:          0  HIT:          0  MISS:          0
cpu0_L1I WRITEBACK ACCESS:          0  HIT:          0  MISS:          0
cpu0_STLB TOTAL     ACCESS:       6363  HIT:       2913  MISS:       3450
cpu0_STLB LOAD      ACCESS:        863  HIT:          0  MISS:        863
cpu0_STLB RFO       ACCESS:       5500  HIT:       2913  MISS:       2587
cpu0_STLB PREFETCH  ACCESS:          0  HIT:          0  MISS:          0
cpu0_STLB WRITEBACK ACCESS:          0  HIT:          0  MISS:          0
cpu0_L1D TOTAL     ACCESS:    1343465  HIT:     979087  MISS:     364378
cpu0_L1D LOAD      ACCESS:     336411  HIT:     281201  MISS:      55210
cpu0_L1D RFO       ACCESS:    1003604  HIT:     694436  MISS:     309168
cpu0_L1D PREFETCH  ACCESS:          0  HIT:          0  MISS:          0
cpu0_L1D WRITEBACK ACCESS:          0  HIT:          0  MISS:          0
cpu0_L2C TOTAL     ACCESS:     673548  HIT:     447800  MISS:     225748
cpu0_L2C LOAD      ACCESS:      55210  HIT:          0  MISS:      55210
cpu0_L2C RFO       ACCESS:     309168  HIT:     138630  MISS:     170538
cpu0_L2C PREFETCH  ACCESS:          0  HIT:          0  MISS:          0
cpu0_L2C WRITEBACK ACCESS:     309170  HIT:     309170  MISS:          0
LLC TOTAL     ACCESS:     396322  HIT:       1668  MISS:     394654
LLC LOAD      ACCESS:      55210  HIT:          0  MISS:      55210
LLC RFO       ACCESS:     170533  HIT:       1668  MISS:     168865
LLC PREFETCH  ACCESS:          0  HIT:          0  MISS:          0
LLC WRITEBACK ACCESS:     170579  HIT:          0  MISS:     170579
Heartbeat CPU 0 instructions: 58000003 cycles: 43561143 heartbeat IPC: 0.252549 cumulative IPC: 0.260851 (Simulation time: 0 hr 41 min 16 sec) 

Region of Interest Statistics
cpu0_DTLB TOTAL     ACCESS:    1299301  HIT:    1290730  MISS:       8571
cpu0_DTLB LOAD      ACCESS:     612935  HIT:     611772  MISS:       1163
cpu0_DTLB RFO       ACCESS:     686366  HIT:     678958  MISS:       7408
cpu0_DTLB PREFETCH  ACCESS:          0  HIT:          0  MISS:          0
cpu0_DTLB WRITEBACK ACCESS:          0  HIT:          0  MISS:          0
cpu0_ITLB TOTAL     ACCESS:     105272  HIT:     105272  MISS:          0
cpu0_ITLB LOAD      ACCESS:     105272  HIT:     105272  MISS:          0
cpu0_ITLB RFO       ACCESS:          0  HIT:          0  MISS:          0
cpu0_ITLB PREFETCH  ACCESS:          0  HIT:          0  MISS:          0
cpu0_ITLB WRITEBACK ACCESS:          0  HIT:          0  MISS:          0
cpu0_L1I TOTAL     ACCESS:     167001  HIT:     167001  MISS:          0
cpu0_L1I LOAD      ACCESS:     167001  HIT:     167001  MISS:          0
cpu0_L1I RFO       ACCESS:          0  HIT:          0  MISS:          0
cpu0_L1I PREFETCH  ACCESS:          0  HIT:          0  MISS:          0
cpu0_L1I WRITEBACK ACCESS:          0  HIT:          0  MISS:          0
cpu0_STLB TOTAL     ACCESS:       8571  HIT:       3922  MISS:       4649
cpu0_STLB LOAD      ACCESS:       1163  HIT:          0  MISS:       1163
cpu0_STLB RFO       ACCESS:       7408  HIT:       3922  MISS:       3486
cpu0_STLB PREFETCH  ACCESS:          0  HIT:          0  MISS:          0
cpu0_STLB WRITEBACK ACCESS:          0  HIT:          0  MISS:          0
cpu0_L1D TOTAL     ACCESS:    1795466  HIT:    1304541  MISS:     490925
cpu0_L1D LOAD      ACCESS:     448600  HIT:     374218  MISS:      74382
cpu0_L1D RFO       ACCESS:    1342217  HIT:     925675  MISS:     416542
cpu0_L1D PREFETCH  ACCESS:          0  HIT:          0  MISS:          0
cpu0_L1D WRITEBACK ACCESS:          0  HIT:          0  MISS:          0
cpu0_L2C TOTAL     ACCESS:     907465  HIT:     602976  MISS:     304489
cpu0_L2C LOAD      ACCESS:      74382  HIT:          0  MISS:      74382
cpu0_L2C RFO       ACCESS:     416543  HIT:     186437  MISS:     230106
cpu0_L2C PREFETCH  ACCESS:          0  HIT:          0  MISS:          0
cpu0_L2C WRITEBACK ACCESS:     416539  HIT:     416539  MISS:          0
LLC TOTAL     ACCESS:     534663  HIT:       2352  MISS:     532311
LLC LOAD      ACCESS:      74382  HIT:          0  MISS:      74382
LLC RFO       ACCESS:     230101  HIT:       2352  MISS:     227749
LLC PREFETCH  ACCESS:          0  HIT:          0  MISS:          0
LLC WRITEBACK ACCESS:     230179  HIT:          0  MISS:     230179
Heartbeat CPU 0 instructions: 60000003 cycles: 50964667 heartbeat IPC: 0.270142 cumulative IPC: 0.262657 (Simulation time: 0 hr 46 min 14 sec) 

Region of Interest Statistics
cpu0_DTLB TOTAL     ACCESS:    1619897  HIT:    1609271  MISS:      10626
cpu0_DTLB LOAD      ACCESS:     765832  HIT:     764390  MISS:       1442
cpu0_DTLB RFO       ACCESS:     854065  HIT:     844881  MISS:       9184
cpu0_DTLB PREFETCH  ACCESS:          0  HIT:          0  MISS:          0
cpu0_DTLB WRITEBACK ACCESS:          0  HIT:          0  MISS:          0
cpu0_ITLB TOTAL     ACCESS:     128829  HIT:     128829  MISS:          0
cpu0_ITLB LOAD      ACCESS:     128829  HIT:     128829  MISS:          0
cpu0_ITLB RFO       ACCESS:          0  HIT:          0  MISS:          0
cpu0_ITLB PREFETCH  ACCESS:          0  HIT:          0  MISS:          0
cpu0_ITLB WRITEBACK ACCESS:          0  HIT:          0  MISS:          0
cpu0_L1I TOTAL     ACCESS:     210113  HIT:     210113  MISS:          0
cpu0_L1I LOAD      ACCESS:     210113  HIT:     210113  MISS:          0
cpu0_L1I RFO       ACCESS:          0  HIT:          0  MISS:          0
cpu0_L1I PREFETCH  ACCESS:          0  HIT:          0  MISS:          0
cpu0_L1I WRITEBACK ACCESS:          0  HIT:          0  MISS:          0
cpu0_STLB TOTAL     ACCESS:      10626  HIT:       4860  MISS:       5766
cpu0_STLB LOAD      ACCESS:       1442  HIT:          0  MISS:       1442
cpu0_STLB RFO       ACCESS:       9184  HIT:       4860  MISS:       4324
cpu0_STLB PREFETCH  ACCESS:          0  HIT:          0  MISS:          0
cpu0_STLB WRITEBACK ACCESS:          0  HIT:          0  MISS:          0
cpu0_L1D TOTAL     ACCESS:    2241029  HIT:    1632316  MISS:     608713
cpu0_L1D LOAD      ACCESS:     560956  HIT:     468726  MISS:      92230
cpu0_L1D RFO       ACCESS:    1674505  HIT:    1158025  MISS:     516480
cpu0_L1D PREFETCH  ACCESS:          0  HIT:          0  MISS:          0
cpu0_L1D WRITEBACK ACCESS:          0  HIT:          0  MISS:          0
cpu0_L2C TOTAL     ACCESS:    1125190  HIT:     747635  MISS:     377555
cpu0_L2C LOAD      ACCESS:      92230  HIT:          0  MISS:      92230
cpu0_L2C RFO       ACCESS:     516480  HIT:     231167  MISS:     285313
cpu0_L2C PREFETCH  ACCESS:          0  HIT:          0  MISS:          0
cpu0_L2C WRITEBACK ACCESS:     516477  HIT:     516468  MISS:          9
LLC TOTAL     ACCESS:     663145  HIT:       2858  MISS:     660287
LLC LOAD      ACCESS:      92230  HIT:          0  MISS:      92230
LLC RFO       ACCESS:     285308  HIT:       2858  MISS:     282450
LLC PREFETCH  ACCESS:          0  HIT:          0  MISS:          0
LLC WRITEBACK ACCESS:     285604  HIT:          0  MISS:     285604
Heartbeat CPU 0 instructions: 62000001 cycles: 57961166 heartbeat IPC: 0.285857 cumulative IPC: 0.266259 (Simulation time: 0 hr 50 min 46 sec) 

Region of Interest Statistics
cpu0_DTLB TOTAL     ACCESS:    1933674  HIT:    1921117  MISS:      12557
cpu0_DTLB LOAD      ACCESS:     917457  HIT:     915753  MISS:       1704
cpu0_DTLB RFO       ACCESS:    1016217  HIT:    1005364  MISS:      10853
cpu0_DTLB PREFETCH  ACCESS:          0  HIT:          0  MISS:          0
cpu0_DTLB WRITEBACK ACCESS:          0  HIT:          0  MISS:          0
cpu0_ITLB TOTAL     ACCESS:     150922  HIT:     150922  MISS:          0
cpu0_ITLB LOAD      ACCESS:     150922  HIT:     150922  MISS:          0
cpu0_ITLB RFO       ACCESS:          0  HIT:          0  MISS:          0
cpu0_ITLB PREFETCH  ACCESS:          0  HIT:          0  MISS:          0
cpu0_ITLB WRITEBACK ACCESS:          0  HIT:          0  MISS:          0
cpu0_L1I TOTAL     ACCESS:     251268  HIT:     251268  MISS:          0
cpu0_L1I LOAD      ACCESS:     251268  HIT:     251268  MISS:          0
cpu0_L1I RFO       ACCESS:          0  HIT:          0  MISS:          0
cpu0_L1I PREFETCH  ACCESS:          0  HIT:          0  MISS:          0
cpu0_L1I WRITEBACK ACCESS:          0  HIT:          0  MISS:          0
cpu0_STLB TOTAL     ACCESS:      12557  HIT:       5743  MISS:       6814
cpu0_STLB LOAD      ACCESS:       1704  HIT:          0  MISS:       1704
cpu0_STLB RFO       ACCESS:      10853  HIT:       5743  MISS:       5110
cpu0_STLB PREFETCH  ACCESS:          0  HIT:          0  MISS:          0
cpu0_STLB WRITEBACK ACCESS:          0  HIT:          0  MISS:          0
cpu0_L1D TOTAL     ACCESS:    2680742  HIT:    1961447  MISS:     719295
cpu0_L1D LOAD      ACCESS:     673303  HIT:     564318  MISS:     108985
cpu0_L1D RFO       ACCESS:    2001082  HIT:    1390775  MISS:     610307
cpu0_L1D PREFETCH  ACCESS:          0  HIT:          0  MISS:          0
cpu0_L1D WRITEBACK ACCESS:          0  HIT:          0  MISS:          0
cpu0_L2C TOTAL     ACCESS:    1329598  HIT:     883282  MISS:     446316
cpu0_L2C LOAD      ACCESS:     108985  HIT:          0  MISS:     108985
cpu0_L2C RFO       ACCESS:     610307  HIT:     272988  MISS:     337319
cpu0_L2C PREFETCH  ACCESS:          0  HIT:          0  MISS:          0
cpu0_L2C WRITEBACK ACCESS:     610303  HIT:     610294  MISS:          9
LLC TOTAL     ACCESS:     783667  HIT:       3515  MISS:     780152
LLC LOAD      ACCESS:     108985  HIT:          0  MISS:     108985
LLC RFO       ACCESS:     337314  HIT:       3515  MISS:     333799
LLC PREFETCH  ACCESS:          0  HIT:          0  MISS:          0
LLC WRITEBACK ACCESS:     337365  HIT:          0  MISS:     337365
Heartbeat CPU 0 instructions: 64000001 cycles: 65308338 heartbeat IPC: 0.272214 cumulative IPC: 0.267094 (Simulation time: 0 hr 55 min 44 sec) 

Region of Interest Statistics
cpu0_DTLB TOTAL     ACCESS:    2254130  HIT:    2239518  MISS:      14612
cpu0_DTLB LOAD      ACCESS:    1070164  HIT:    1068181  MISS:       1983
cpu0_DTLB RFO       ACCESS:    1183966  HIT:    1171337  MISS:      12629
cpu0_DTLB PREFETCH  ACCESS:          0  HIT:          0  MISS:          0
cpu0_DTLB WRITEBACK ACCESS:          0  HIT:          0  MISS:          0
cpu0_ITLB TOTAL     ACCESS:     175536  HIT:     175536  MISS:          0
cpu0_ITLB LOAD      ACCESS:     175536  HIT:     175536  MISS:          0
cpu0_ITLB RFO       ACCESS:          0  HIT:          0  MISS:          0
cpu0_ITLB PREFETCH  ACCESS:          0  HIT:          0  MISS:          0
cpu0_ITLB WRITEBACK ACCESS:          0  HIT:          0  MISS:          0
cpu0_L1I TOTAL     ACCESS:     292978  HIT:     292978  MISS:          0
cpu0_L1I LOAD      ACCESS:     292978  HIT:     292978  MISS:          0
cpu0_L1I RFO       ACCESS:          0  HIT:          0  MISS:          0
cpu0_L1I PREFETCH  ACCESS:          0  HIT:          0  MISS:          0
cpu0_L1I WRITEBACK ACCESS:          0  HIT:          0  MISS:          0
cpu0_STLB TOTAL     ACCESS:      14612  HIT:       6684  MISS:       7928
cpu0_STLB LOAD      ACCESS:       1983  HIT:          0  MISS:       1983
cpu0_STLB RFO       ACCESS:      12629  HIT:       6684  MISS:       5945
cpu0_STLB PREFETCH  ACCESS:          0  HIT:          0  MISS:          0
cpu0_STLB WRITEBACK ACCESS:          0  HIT:          0  MISS:          0
cpu0_L1D TOTAL     ACCESS:    3125636  HIT:    2288592  MISS:     837044
cpu0_L1D LOAD      ACCESS:     785510  HIT:     658685  MISS:     126825
cpu0_L1D RFO       ACCESS:    2332927  HIT:    1622711  MISS:     710216
cpu0_L1D PREFETCH  ACCESS:          0  HIT:          0  MISS:          0
cpu0_L1D WRITEBACK ACCESS:          0  HIT:          0  MISS:          0
cpu0_L2C TOTAL     ACCESS:    1547255  HIT:    1028300  MISS:     518955
cpu0_L2C LOAD      ACCESS:     126825  HIT:          0  MISS:     126825
cpu0_L2C RFO       ACCESS:     710216  HIT:     318098  MISS:     392118
cpu0_L2C PREFETCH  ACCESS:          0  HIT:          0  MISS:          0
cpu0_L2C WRITEBACK ACCESS:     710211  HIT:     710202  MISS:          9
LLC TOTAL     ACCESS:     911075  HIT:       3922  MISS:     907153
LLC LOAD      ACCESS:     126825  HIT:          0  MISS:     126825
LLC RFO       ACCESS:     392111  HIT:       3922  MISS:     388189
LLC PREFETCH  ACCESS:          0  HIT:          0  MISS:          0
LLC WRITEBACK ACCESS:     392136  HIT:          0  MISS:     392136
Heartbeat CPU 0 instructions: 66000004 cycles: 72586120 heartbeat IPC: 0.274809 cumulative IPC: 0.268034 (Simulation time: 1 hr 0 min 38 sec) 

Region of Interest Statistics
cpu0_DTLB TOTAL     ACCESS:    2572967  HIT:    2556331  MISS:      16636
cpu0_DTLB LOAD      ACCESS:    1222711  HIT:    1220454  MISS:       2257
cpu0_DTLB RFO       ACCESS:    1350256  HIT:    1335877  MISS:      14379
cpu0_DTLB PREFETCH  ACCESS:          0  HIT:          0  MISS:          0
cpu0_DTLB WRITEBACK ACCESS:          0  HIT:          0  MISS:          0
cpu0_ITLB TOTAL     ACCESS:     199236  HIT:     199236  MISS:          0
cpu0_ITLB LOAD      ACCESS:     199236  HIT:     199236  MISS:          0
cpu0_ITLB RFO       ACCESS:          0  HIT:          0  MISS:          0
cpu0_ITLB PREFETCH  ACCESS:          0  HIT:          0  MISS:          0
cpu0_ITLB WRITEBACK ACCESS:          0  HIT:          0  MISS:          0
cpu0_L1I TOTAL     ACCESS:     334867  HIT:     334867  MISS:          0
cpu0_L1I LOAD      ACCESS:     334867  HIT:     334867  MISS:          0
cpu0_L1I RFO       ACCESS:          0  HIT:          0  MISS:          0
cpu0_L1I PREFETCH  ACCESS:          0  HIT:          0  MISS:          0
cpu0_L1I WRITEBACK ACCESS:          0  HIT:          0  MISS:          0
cpu0_STLB TOTAL     ACCESS:      16636  HIT:       7610  MISS:       9026
cpu0_STLB LOAD      ACCESS:       2257  HIT:          0  MISS:       2257
cpu0_STLB RFO       ACCESS:      14379  HIT:       7610  MISS:       6769
cpu0_STLB PREFETCH  ACCESS:          0  HIT:          0  MISS:          0
cpu0_STLB WRITEBACK ACCESS:          0  HIT:          0  MISS:          0
cpu0_L1D TOTAL     ACCESS:    3569443  HIT:    2616490  MISS:     952953
cpu0_L1D LOAD      ACCESS:     897782  HIT:     753394  MISS:     144388
cpu0_L1D RFO       ACCESS:    2663593  HIT:    1855032  MISS:     808561
cpu0_L1D PREFETCH  ACCESS:          0  HIT:          0  MISS:          0
cpu0_L1D WRITEBACK ACCESS:          0  HIT:          0  MISS:          0
cpu0_L2C TOTAL     ACCESS:    1761514  HIT:    1170655  MISS:     590859
cpu0_L2C LOAD      ACCESS:     144388  HIT:          0  MISS:     144388
cpu0_L2C RFO       ACCESS:     808561  HIT:     362103  MISS:     446458
cpu0_L2C PREFETCH  ACCESS:          0  HIT:          0  MISS:          0
cpu0_L2C WRITEBACK ACCESS:     808561  HIT:     808552  MISS:          9
LLC TOTAL     ACCESS:    1037298  HIT:       4473  MISS:    1032825
LLC LOAD      ACCESS:     144388  HIT:          0  MISS:     144388
LLC RFO       ACCESS:     446447  HIT:       4473  MISS:     441974
LLC PREFETCH  ACCESS:          0  HIT:          0  MISS:          0
LLC WRITEBACK ACCESS:     446459  HIT:          0  MISS:     446459
Heartbeat CPU 0 instructions: 68000001 cycles: 79304179 heartbeat IPC: 0.297705 cumulative IPC: 0.271036 (Simulation time: 1 hr 5 min 3 sec) 

Region of Interest Statistics
cpu0_DTLB TOTAL     ACCESS:    2882618  HIT:    2864129  MISS:      18489
cpu0_DTLB LOAD      ACCESS:    1373621  HIT:    1371112  MISS:       2509
cpu0_DTLB RFO       ACCESS:    1508997  HIT:    1493017  MISS:      15980
cpu0_DTLB PREFETCH  ACCESS:          0  HIT:          0  MISS:          0
cpu0_DTLB WRITEBACK ACCESS:          0  HIT:          0  MISS:          0
cpu0_ITLB TOTAL     ACCESS:     220816  HIT:     220816  MISS:          0
cpu0_ITLB LOAD      ACCESS:     220816  HIT:     220816  MISS:          0
cpu0_ITLB RFO       ACCESS:          0  HIT:          0  MISS:          0
cpu0_ITLB PREFETCH  ACCESS:          0  HIT:          0  MISS:          0
cpu0_ITLB WRITEBACK ACCESS:          0  HIT:          0  MISS:          0
cpu0_L1I TOTAL     ACCESS:     374906  HIT:     374906  MISS:          0
cpu0_L1I LOAD      ACCESS:     374906  HIT:     374906  MISS:          0
cpu0_L1I RFO       ACCESS:          0  HIT:          0  MISS:          0
cpu0_L1I PREFETCH  ACCESS:          0  HIT:          0  MISS:          0
cpu0_L1I WRITEBACK ACCESS:          0  HIT:          0  MISS:          0
cpu0_STLB TOTAL     ACCESS:      18489  HIT:       8458  MISS:      10031
cpu0_STLB LOAD      ACCESS:       2509  HIT:          0  MISS:       2509
cpu0_STLB RFO       ACCESS:      15980  HIT:       8458  MISS:       7522
cpu0_STLB PREFETCH  ACCESS:          0  HIT:          0  MISS:          0
cpu0_STLB WRITEBACK ACCESS:          0  HIT:          0  MISS:          0
cpu0_L1D TOTAL     ACCESS:    4005765  HIT:    2946700  MISS:    1059065
cpu0_L1D LOAD      ACCESS:    1010217  HIT:     849752  MISS:     160465
cpu0_L1D RFO       ACCESS:    2986475  HIT:    2087879  MISS:     898596
cpu0_L1D PREFETCH  ACCESS:          0  HIT:          0  MISS:          0
cpu0_L1D WRITEBACK ACCESS:          0  HIT:          0  MISS:          0
cpu0_L2C TOTAL     ACCESS:    1957660  HIT:    1300978  MISS:     656682
cpu0_L2C LOAD      ACCESS:     160465  HIT:          0  MISS:     160465
cpu0_L2C RFO       ACCESS:     898596  HIT:     402392  MISS:     496204
cpu0_L2C PREFETCH  ACCESS:          0  HIT:          0  MISS:          0
cpu0_L2C WRITEBACK ACCESS:     898595  HIT:     898586  MISS:          9
LLC TOTAL     ACCESS:    1152728  HIT:       4832  MISS:    1147896
LLC LOAD      ACCESS:     160465  HIT:          0  MISS:     160465
LLC RFO       ACCESS:     496193  HIT:       4832  MISS:     491361
LLC PREFETCH  ACCESS:          0  HIT:          0  MISS:          0
LLC WRITEBACK ACCESS:     496066  HIT:          0  MISS:     496066
Heartbeat CPU 0 instructions: 70000000 cycles: 87280966 heartbeat IPC: 0.250727 cumulative IPC: 0.268858 (Simulation time: 1 hr 10 min 3 sec) 

Region of Interest Statistics
cpu0_DTLB TOTAL     ACCESS:    3214277  HIT:    3193518  MISS:      20759
cpu0_DTLB LOAD      ACCESS:    1527968  HIT:    1525152  MISS:       2816
cpu0_DTLB RFO       ACCESS:    1686309  HIT:    1668366  MISS:      17943
cpu0_DTLB PREFETCH  ACCESS:          0  HIT:          0  MISS:          0
cpu0_DTLB WRITEBACK ACCESS:          0  HIT:          0  MISS:          0
cpu0_ITLB TOTAL     ACCESS:     249003  HIT:     249003  MISS:          0
cpu0_ITLB LOAD      ACCESS:     249003  HIT:     249003  MISS:          0
cpu0_ITLB RFO       ACCESS:          0  HIT:          0  MISS:          0
cpu0_ITLB PREFETCH  ACCESS:          0  HIT:          0  MISS:          0
cpu0_ITLB WRITEBACK ACCESS:          0  HIT:          0  MISS:          0
cpu0_L1I TOTAL     ACCESS:     417652  HIT:     417652  MISS:          0
cpu0_L1I LOAD      ACCESS:     417652  HIT:     417652  MISS:          0
cpu0_L1I RFO       ACCESS:          0  HIT:          0  MISS:          0
cpu0_L1I PREFETCH  ACCESS:          0  HIT:          0  MISS:          0
cpu0_L1I WRITEBACK ACCESS:          0  HIT:          0  MISS:          0
cpu0_STLB TOTAL     ACCESS:      20759  HIT:       9497  MISS:      11262
cpu0_STLB LOAD      ACCESS:       2816  HIT:          0  MISS:       2816
cpu0_STLB RFO       ACCESS:      17943  HIT:       9497  MISS:       8446
cpu0_STLB PREFETCH  ACCESS:          0  HIT:          0  MISS:          0
cpu0_STLB WRITEBACK ACCESS:          0  HIT:          0  MISS:          0
cpu0_L1D TOTAL     ACCESS:    4460259  HIT:    3271192  MISS:    1189067
cpu0_L1D LOAD      ACCESS:    1122334  HIT:     942167  MISS:     180167
cpu0_L1D RFO       ACCESS:    3327621  HIT:    2318725  MISS:    1008896
cpu0_L1D PREFETCH  ACCESS:          0  HIT:          0  MISS:          0
cpu0_L1D WRITEBACK ACCESS:          0  HIT:          0  MISS:          0
cpu0_L2C TOTAL     ACCESS:    2197964  HIT:    1461186  MISS:     736778
cpu0_L2C LOAD      ACCESS:     180167  HIT:          0  MISS:     180167
cpu0_L2C RFO       ACCESS:    1008896  HIT:     452301  MISS:     556595
cpu0_L2C PREFETCH  ACCESS:          0  HIT:          0  MISS:          0
cpu0_L2C WRITEBACK ACCESS:    1008897  HIT:    1008885  MISS:         12
LLC TOTAL     ACCESS:    1293454  HIT:       5271  MISS:    1288183
LLC LOAD      ACCESS:     180167  HIT:          0  MISS:     180167
LLC RFO       ACCESS:     556580  HIT:       5271  MISS:     551309
LLC PREFETCH  ACCESS:          0  HIT:          0  MISS:          0
LLC WRITEBACK ACCESS:     556703  HIT:          0  MISS:     556703
Heartbeat CPU 0 instructions: 72000004 cycles: 93890597 heartbeat IPC: 0.302589 cumulative IPC: 0.271611 (Simulation time: 1 hr 14 min 25 sec) 

Region of Interest Statistics
cpu0_DTLB TOTAL     ACCESS:    3520921  HIT:    3498367  MISS:      22554
cpu0_DTLB LOAD      ACCESS:    1678460  HIT:    1675399  MISS:       3061
cpu0_DTLB RFO       ACCESS:    1842461  HIT:    1822968  MISS:      19493
cpu0_DTLB PREFETCH  ACCESS:          0  HIT:          0  MISS:          0
cpu0_DTLB WRITEBACK ACCESS:          0  HIT:          0  MISS:          0
cpu0_ITLB TOTAL     ACCESS:     268109  HIT:     268109  MISS:          0
cpu0_ITLB LOAD      ACCESS:     268109  HIT:     268109  MISS:          0
cpu0_ITLB RFO       ACCESS:          0  HIT:          0  MISS:          0
cpu0_ITLB PREFETCH  ACCESS:          0  HIT:          0  MISS:          0
cpu0_ITLB WRITEBACK ACCESS:          0  HIT:          0  MISS:          0
cpu0_L1I TOTAL     ACCESS:     459527  HIT:     459527  MISS:          0
cpu0_L1I LOAD      ACCESS:     459527  HIT:     459527  MISS:          0
cpu0_L1I RFO       ACCESS:          0  HIT:          0  MISS:          0
cpu0_L1I PREFETCH  ACCESS:          0  HIT:          0  MISS:          0
cpu0_L1I WRITEBACK ACCESS:          0  HIT:          0  MISS:          0
cpu0_STLB TOTAL     ACCESS:      22554  HIT:      10316  MISS:      12238
cpu0_STLB LOAD      ACCESS:       3061  HIT:          0  MISS:       3061
cpu0_STLB RFO       ACCESS:      19493  HIT:      10316  MISS:       9177
cpu0_STLB PREFETCH  ACCESS:          0  HIT:          0  MISS:          0
cpu0_STLB WRITEBACK ACCESS:          0  HIT:          0  MISS:          0
cpu0_L1D TOTAL     ACCESS:    4894665  HIT:    3602618  MISS:    1292047
cpu0_L1D LOAD      ACCESS:    1234790  HIT:    1039022  MISS:     195768
cpu0_L1D RFO       ACCESS:    3648595  HIT:    2552322  MISS:    1096273
cpu0_L1D PREFETCH  ACCESS:          0  HIT:          0  MISS:          0
cpu0_L1D WRITEBACK ACCESS:          0  HIT:          0  MISS:          0
cpu0_L2C TOTAL     ACCESS:    2388320  HIT:    1587458  MISS:     800862
cpu0_L2C LOAD      ACCESS:     195768  HIT:          0  MISS:     195768
cpu0_L2C RFO       ACCESS:    1096273  HIT:     491202  MISS:     605071
cpu0_L2C PREFETCH  ACCESS:          0  HIT:          0  MISS:          0
cpu0_L2C WRITEBACK ACCESS:    1096273  HIT:    1096256  MISS:         17
LLC TOTAL     ACCESS:    1405941  HIT:       5840  MISS:    1400101
LLC LOAD      ACCESS:     195768  HIT:          0  MISS:     195768
LLC RFO       ACCESS:     605056  HIT:       5840  MISS:     599216
LLC PREFETCH  ACCESS:          0  HIT:          0  MISS:          0
LLC WRITEBACK ACCESS:     605111  HIT:          0  MISS:     605111
Heartbeat CPU 0 instructions: 74000000 cycles: 100619601 heartbeat IPC: 0.29722 cumulative IPC: 0.273575 (Simulation time: 1 hr 18 min 50 sec) 

Region of Interest Statistics
cpu0_DTLB TOTAL     ACCESS:    3831063  HIT:    3806646  MISS:      24417
cpu0_DTLB LOAD      ACCESS:    1829538  HIT:    1826224  MISS:       3314
cpu0_DTLB RFO       ACCESS:    2001525  HIT:    1980422  MISS:      21103
cpu0_DTLB PREFETCH  ACCESS:          0  HIT:          0  MISS:          0
cpu0_DTLB WRITEBACK ACCESS:          0  HIT:          0  MISS:          0
cpu0_ITLB TOTAL     ACCESS:     289432  HIT:     289432  MISS:          0
cpu0_ITLB LOAD      ACCESS:     289432  HIT:     289432  MISS:          0
cpu0_ITLB RFO       ACCESS:          0  HIT:          0  MISS:          0
cpu0_ITLB PREFETCH  ACCESS:          0  HIT:          0  MISS:          0
cpu0_ITLB WRITEBACK ACCESS:          0  HIT:          0  MISS:          0
cpu0_L1I TOTAL     ACCESS:     500106  HIT:     500106  MISS:          0
cpu0_L1I LOAD      ACCESS:     500106  HIT:     500106  MISS:          0
cpu0_L1I RFO       ACCESS:          0  HIT:          0  MISS:          0
cpu0_L1I PREFETCH  ACCESS:          0  HIT:          0  MISS:          0
cpu0_L1I WRITEBACK ACCESS:          0  HIT:          0  MISS:          0
cpu0_STLB TOTAL     ACCESS:      24417  HIT:      11168  MISS:      13249
cpu0_STLB LOAD      ACCESS:       3314  HIT:          0  MISS:       3314
cpu0_STLB RFO       ACCESS:      21103  HIT:      11168  MISS:       9935
cpu0_STLB PREFETCH  ACCESS:          0  HIT:          0  MISS:          0
cpu0_STLB WRITEBACK ACCESS:          0  HIT:          0  MISS:          0
cpu0_L1D TOTAL     ACCESS:    5331655  HIT:    3932973  MISS:    1398682
cpu0_L1D LOAD      ACCESS:    1347170  HIT:    1135246  MISS:     211924
cpu0_L1D RFO       ACCESS:    3972194  HIT:    2785442  MISS:    1186752
cpu0_L1D PREFETCH  ACCESS:          0  HIT:          0  MISS:          0
cpu0_L1D WRITEBACK ACCESS:          0  HIT:          0  MISS:          0
cpu0_L2C TOTAL     ACCESS:    2585432  HIT:    1718682  MISS:     866750
cpu0_L2C LOAD      ACCESS:     211924  HIT:          0  MISS:     211924
cpu0_L2C RFO       ACCESS:    1186752  HIT:     531949  MISS:     654803
cpu0_L2C PREFETCH  ACCESS:          0  HIT:          0  MISS:          0
cpu0_L2C WRITEBACK ACCESS:    1186750  HIT:    1186733  MISS:         17
LLC TOTAL     ACCESS:    1521334  HIT:       6191  MISS:    1515143
LLC LOAD      ACCESS:     211924  HIT:          0  MISS:     211924
LLC RFO       ACCESS:     654788  HIT:       6191  MISS:     648597
LLC PREFETCH  ACCESS:          0  HIT:          0  MISS:          0
LLC WRITEBACK ACCESS:     654616  HIT:          0  MISS:     654616
Heartbeat CPU 0 instructions: 76000001 cycles: 107550204 heartbeat IPC: 0.288575 cumulative IPC: 0.274673 (Simulation time: 1 hr 23 min 22 sec) 

Region of Interest Statistics
cpu0_DTLB TOTAL     ACCESS:    4144958  HIT:    4118606  MISS:      26352
cpu0_DTLB LOAD      ACCESS:    1981130  HIT:    1977554  MISS:       3576
cpu0_DTLB RFO       ACCESS:    2163828  HIT:    2141052  MISS:      22776
cpu0_DTLB PREFETCH  ACCESS:          0  HIT:          0  MISS:          0
cpu0_DTLB WRITEBACK ACCESS:          0  HIT:          0  MISS:          0
cpu0_ITLB TOTAL     ACCESS:     311344  HIT:     311344  MISS:          0
cpu0_ITLB LOAD      ACCESS:     311344  HIT:     311344  MISS:          0
cpu0_ITLB RFO       ACCESS:          0  HIT:          0  MISS:          0
cpu0_ITLB PREFETCH  ACCESS:          0  HIT:          0  MISS:          0
cpu0_ITLB WRITEBACK ACCESS:          0  HIT:          0  MISS:          0
cpu0_L1I TOTAL     ACCESS:     541569  HIT:     541569  MISS:          0
cpu0_L1I LOAD      ACCESS:     541569  HIT:     541569  MISS:          0
cpu0_L1I RFO       ACCESS:          0  HIT:          0  MISS:          0
cpu0_L1I PREFETCH  ACCESS:          0  HIT:          0  MISS:          0
cpu0_L1I WRITEBACK ACCESS:          0  HIT:          0  MISS:          0
cpu0_STLB TOTAL     ACCESS:      26352  HIT:      12054  MISS:      14298
cpu0_STLB LOAD      ACCESS:       3576  HIT:          0  MISS:       3576
cpu0_STLB RFO       ACCESS:      22776  HIT:      12054  MISS:      10722
cpu0_STLB PREFETCH  ACCESS:          0  HIT:          0  MISS:          0
cpu0_STLB WRITEBACK ACCESS:          0  HIT:          0  MISS:          0
cpu0_L1D TOTAL     ACCESS:    5772187  HIT:    4262700  MISS:    1509487
cpu0_L1D LOAD      ACCESS:    1459610  HIT:    1230896  MISS:     228714
cpu0_L1D RFO       ACCESS:    4299237  HIT:    3018470  MISS:    1280767
cpu0_L1D PREFETCH  ACCESS:          0  HIT:          0  MISS:          0
cpu0_L1D WRITEBACK ACCESS:          0  HIT:          0  MISS:          0
cpu0_L2C TOTAL     ACCESS:    2790255  HIT:    1855324  MISS:     934931
cpu0_L2C LOAD      ACCESS:     228714  HIT:          0  MISS:     228714
cpu0_L2C RFO       ACCESS:    1280767  HIT:     574575  MISS:     706192
cpu0_L2C PREFETCH  ACCESS:          0  HIT:          0  MISS:          0
cpu0_L2C WRITEBACK ACCESS:    1280768  HIT:    1280749  MISS:         19
LLC TOTAL     ACCESS:    1641054  HIT:       6454  MISS:    1634600
LLC LOAD      ACCESS:     228714  HIT:          0  MISS:     228714
LLC RFO       ACCESS:     706177  HIT:       6454  MISS:     699723
LLC PREFETCH  ACCESS:          0  HIT:          0  MISS:          0
LLC WRITEBACK ACCESS:     706157  HIT:          0  MISS:     706157
Heartbeat CPU 0 instructions: 78000001 cycles: 114444050 heartbeat IPC: 0.290114 cumulative IPC: 0.275721 (Simulation time: 1 hr 27 min 44 sec) 

Region of Interest Statistics
cpu0_DTLB TOTAL     ACCESS:    4456512  HIT:    4428270  MISS:      28242
cpu0_DTLB LOAD      ACCESS:    2132360  HIT:    2128528  MISS:       3832
cpu0_DTLB RFO       ACCESS:    2324152  HIT:    2299742  MISS:      24410
cpu0_DTLB PREFETCH  ACCESS:          0  HIT:          0  MISS:          0
cpu0_DTLB WRITEBACK ACCESS:          0  HIT:          0  MISS:          0
cpu0_ITLB TOTAL     ACCESS:     332572  HIT:     332572  MISS:          0
cpu0_ITLB LOAD      ACCESS:     332572  HIT:     332572  MISS:          0
cpu0_ITLB RFO       ACCESS:          0  HIT:          0  MISS:          0
cpu0_ITLB PREFETCH  ACCESS:          0  HIT:          0  MISS:          0
cpu0_ITLB WRITEBACK ACCESS:          0  HIT:          0  MISS:          0
cpu0_L1I TOTAL     ACCESS:     582887  HIT:     582887  MISS:          0
cpu0_L1I LOAD      ACCESS:     582887  HIT:     582887  MISS:          0
cpu0_L1I RFO       ACCESS:          0  HIT:          0  MISS:          0
cpu0_L1I PREFETCH  ACCESS:          0  HIT:          0  MISS:          0
cpu0_L1I WRITEBACK ACCESS:          0  HIT:          0  MISS:          0
cpu0_STLB TOTAL     ACCESS:      28242  HIT:      12918  MISS:      15324
cpu0_STLB LOAD      ACCESS:       3832  HIT:          0  MISS:       3832
cpu0_STLB RFO       ACCESS:      24410  HIT:      12918  MISS:      11492
cpu0_STLB PREFETCH  ACCESS:          0  HIT:          0  MISS:          0
cpu0_STLB WRITEBACK ACCESS:          0  HIT:          0  MISS:          0
cpu0_L1D TOTAL     ACCESS:    6210509  HIT:    4592716  MISS:    1617793
cpu0_L1D LOAD      ACCESS:    1572032  HIT:    1326908  MISS:     245124
cpu0_L1D RFO       ACCESS:    4624111  HIT:    3251448  MISS:    1372663
cpu0_L1D PREFETCH  ACCESS:          0  HIT:          0  MISS:          0
cpu0_L1D WRITEBACK ACCESS:          0  HIT:          0  MISS:          0
cpu0_L2C TOTAL     ACCESS:    2990455  HIT:    1988451  MISS:    1002004
cpu0_L2C LOAD      ACCESS:     245124  HIT:          0  MISS:     245124
cpu0_L2C RFO       ACCESS:    1372663  HIT:     615808  MISS:     756855
cpu0_L2C PREFETCH  ACCESS:          0  HIT:          0  MISS:          0
cpu0_L2C WRITEBACK ACCESS:    1372662  HIT:    1372643  MISS:         19
LLC TOTAL     ACCESS:    1758847  HIT:       6898  MISS:    1751949
LLC LOAD      ACCESS:     245124  HIT:          0  MISS:     245124
LLC RFO       ACCESS:     756840  HIT:       6898  MISS:     749942
LLC PREFETCH  ACCESS:          0  HIT:          0  MISS:          0
LLC WRITEBACK ACCESS:     756877  HIT:          0  MISS:     756877
Heartbeat CPU 0 instructions: 80000000 cycles: 120796580 heartbeat IPC: 0.314835 cumulative IPC: 0.278024 (Simulation time: 1 hr 31 min 30 sec) 

Region of Interest Statistics
cpu0_DTLB TOTAL     ACCESS:    4759514  HIT:    4729546  MISS:      29968
cpu0_DTLB LOAD      ACCESS:    2282272  HIT:    2278206  MISS:       4066
cpu0_DTLB RFO       ACCESS:    2477242  HIT:    2451340  MISS:      25902
cpu0_DTLB PREFETCH  ACCESS:          0  HIT:          0  MISS:          0
cpu0_DTLB WRITEBACK ACCESS:          0  HIT:          0  MISS:          0
cpu0_ITLB TOTAL     ACCESS:     351593  HIT:     351593  MISS:          0
cpu0_ITLB LOAD      ACCESS:     351593  HIT:     351593  MISS:          0
cpu0_ITLB RFO       ACCESS:          0  HIT:          0  MISS:          0
cpu0_ITLB PREFETCH  ACCESS:          0  HIT:          0  MISS:          0
cpu0_ITLB WRITEBACK ACCESS:          0  HIT:          0  MISS:          0
cpu0_L1I TOTAL     ACCESS:     622509  HIT:     622509  MISS:          0
cpu0_L1I LOAD      ACCESS:     622509  HIT:     622509  MISS:          0
cpu0_L1I RFO       ACCESS:          0  HIT:          0  MISS:          0
cpu0_L1I PREFETCH  ACCESS:          0  HIT:          0  MISS:          0
cpu0_L1I WRITEBACK ACCESS:          0  HIT:          0  MISS:          0
cpu0_STLB TOTAL     ACCESS:      29968  HIT:      13708  MISS:      16260
cpu0_STLB LOAD      ACCESS:       4066  HIT:          0  MISS:       4066
cpu0_STLB RFO       ACCESS:      25902  HIT:      13708  MISS:      12194
cpu0_STLB PREFETCH  ACCESS:          0  HIT:          0  MISS:          0
cpu0_STLB WRITEBACK ACCESS:          0  HIT:          0  MISS:          0
cpu0_L1D TOTAL     ACCESS:    6641575  HIT:    4924868  MISS:    1716707
cpu0_L1D LOAD      ACCESS:    1684561  HIT:    1424450  MISS:     260111
cpu0_L1D RFO       ACCESS:    4941712  HIT:    3485122  MISS:    1456590
cpu0_L1D PREFETCH  ACCESS:          0  HIT:          0  MISS:          0
cpu0_L1D WRITEBACK ACCESS:          0  HIT:          0  MISS:          0
cpu0_L2C TOTAL     ACCESS:    3173295  HIT:    2110072  MISS:    1063223
cpu0_L2C LOAD      ACCESS:     260111  HIT:          0  MISS:     260111
cpu0_L2C RFO       ACCESS:    1456590  HIT:     653503  MISS:     803087
cpu0_L2C PREFETCH  ACCESS:          0  HIT:          0  MISS:          0
cpu0_L2C WRITEBACK ACCESS:    1456588  HIT:    1456569  MISS:         19
LLC TOTAL     ACCESS:    1866397  HIT:       7347  MISS:    1859050
LLC LOAD      ACCESS:     260111  HIT:          0  MISS:     260111
LLC RFO       ACCESS:     803072  HIT:       7347  MISS:     795725
LLC PREFETCH  ACCESS:          0  HIT:          0  MISS:          0
LLC WRITEBACK ACCESS:     803208  HIT:          0  MISS:     803208
Heartbeat CPU 0 instructions: 82000000 cycles: 128317375 heartbeat IPC: 0.265929 cumulative IPC: 0.277236 (Simulation time: 1 hr 35 min 22 sec) 

Region of Interest Statistics
cpu0_DTLB TOTAL     ACCESS:    5082368  HIT:    5050297  MISS:      32071
cpu0_DTLB LOAD      ACCESS:    2435264  HIT:    2430912  MISS:       4352
cpu0_DTLB RFO       ACCESS:    2647104  HIT:    2619385  MISS:      27719
cpu0_DTLB PREFETCH  ACCESS:          0  HIT:          0  MISS:          0
cpu0_DTLB WRITEBACK ACCESS:          0  HIT:          0  MISS:          0
cpu0_ITLB TOTAL     ACCESS:     376865  HIT:     376865  MISS:          0
cpu0_ITLB LOAD      ACCESS:     376865  HIT:     376865  MISS:          0
cpu0_ITLB RFO       ACCESS:          0  HIT:          0  MISS:          0
cpu0_ITLB PREFETCH  ACCESS:          0  HIT:          0  MISS:          0
cpu0_ITLB WRITEBACK ACCESS:          0  HIT:          0  MISS:          0
cpu0_L1I TOTAL     ACCESS:     664426  HIT:     664426  MISS:          0
cpu0_L1I LOAD      ACCESS:     664426  HIT:     664426  MISS:          0
cpu0_L1I RFO       ACCESS:          0  HIT:          0  MISS:          0
cpu0_L1I PREFETCH  ACCESS:          0  HIT:          0  MISS:          0
cpu0_L1I WRITEBACK ACCESS:          0  HIT:          0  MISS:          0
cpu0_STLB TOTAL     ACCESS:      32071  HIT:      14670  MISS:      17401
cpu0_STLB LOAD      ACCESS:       4352  HIT:          0  MISS:       4352
cpu0_STLB RFO       ACCESS:      27719  HIT:      14670  MISS:      13049
cpu0_STLB PREFETCH  ACCESS:          0  HIT:          0  MISS:          0
cpu0_STLB WRITEBACK ACCESS:          0  HIT:          0  MISS:          0
cpu0_L1D TOTAL     ACCESS:    7088742  HIT:    5251593  MISS:    1837149
cpu0_L1D LOAD      ACCESS:    1796782  HIT:    1518422  MISS:     278360
cpu0_L1D RFO       ACCESS:    5275517  HIT:    3716734  MISS:    1558783
cpu0_L1D PREFETCH  ACCESS:          0  HIT:          0  MISS:          0
cpu0_L1D WRITEBACK ACCESS:          0  HIT:          0  MISS:          0
cpu0_L2C TOTAL     ACCESS:    3395931  HIT:    2258070  MISS:    1137861
cpu0_L2C LOAD      ACCESS:     278360  HIT:          0  MISS:     278360
cpu0_L2C RFO       ACCESS:    1558783  HIT:     699310  MISS:     859473
cpu0_L2C PREFETCH  ACCESS:          0  HIT:          0  MISS:          0
cpu0_L2C WRITEBACK ACCESS:    1558782  HIT:    1558760  MISS:         22
LLC TOTAL     ACCESS:    1997287  HIT:       7878  MISS:    1989409
LLC LOAD      ACCESS:     278360  HIT:          0  MISS:     278360
LLC RFO       ACCESS:     859457  HIT:       7878  MISS:     851579
LLC PREFETCH  ACCESS:          0  HIT:          0  MISS:          0
LLC WRITEBACK ACCESS:     859464  HIT:          0  MISS:     859464
Heartbeat CPU 0 instructions: 84000004 cycles: 134691011 heartbeat IPC: 0.313793 cumulative IPC: 0.279149 (Simulation time: 1 hr 38 min 41 sec) 

Region of Interest Statistics
cpu0_DTLB TOTAL     ACCESS:    5385658  HIT:    5351858  MISS:      33800
cpu0_DTLB LOAD      ACCESS:    2585480  HIT:    2580893  MISS:       4587
cpu0_DTLB RFO       ACCESS:    2800178  HIT:    2770965  MISS:      29213
cpu0_DTLB PREFETCH  ACCESS:          0  HIT:          0  MISS:          0
cpu0_DTLB WRITEBACK ACCESS:          0  HIT:          0  MISS:          0
cpu0_ITLB TOTAL     ACCESS:     394736  HIT:     394736  MISS:          0
cpu0_ITLB LOAD      ACCESS:     394736  HIT:     394736  MISS:          0
cpu0_ITLB RFO       ACCESS:          0  HIT:          0  MISS:          0
cpu0_ITLB PREFETCH  ACCESS:          0  HIT:          0  MISS:          0
cpu0_ITLB WRITEBACK ACCESS:          0  HIT:          0  MISS:          0
cpu0_L1I TOTAL     ACCESS:     705711  HIT:     705711  MISS:          0
cpu0_L1I LOAD      ACCESS:     705711  HIT:     705711  MISS:          0
cpu0_L1I RFO       ACCESS:          0  HIT:          0  MISS:          0
cpu0_L1I PREFETCH  ACCESS:          0  HIT:          0  MISS:          0
cpu0_L1I WRITEBACK ACCESS:          0  HIT:          0  MISS:          0
cpu0_STLB TOTAL     ACCESS:      33800  HIT:      15460  MISS:      18340
cpu0_STLB LOAD      ACCESS:       4587  HIT:          0  MISS:       4587
cpu0_STLB RFO       ACCESS:      29213  HIT:      15460  MISS:      13753
cpu0_STLB PREFETCH  ACCESS:          0  HIT:          0  MISS:          0
cpu0_STLB WRITEBACK ACCESS:          0  HIT:          0  MISS:          0
cpu0_L1D TOTAL     ACCESS:    7520506  HIT:    5584367  MISS:    1936139
cpu0_L1D LOAD      ACCESS:    1909419  HIT:    1616059  MISS:     293360
cpu0_L1D RFO       ACCESS:    5593705  HIT:    3950934  MISS:    1642771
cpu0_L1D PREFETCH  ACCESS:          0  HIT:          0  MISS:          0
cpu0_L1D WRITEBACK ACCESS:          0  HIT:          0  MISS:          0
cpu0_L2C TOTAL     ACCESS:    3578909  HIT:    2379417  MISS:    1199492
cpu0_L2C LOAD      ACCESS:     293360  HIT:          0  MISS:     293360
cpu0_L2C RFO       ACCESS:    1642771  HIT:     736674  MISS:     906097
cpu0_L2C PREFETCH  ACCESS:          0  HIT:          0  MISS:          0
cpu0_L2C WRITEBACK ACCESS:    1642770  HIT:    1642743  MISS:         27
LLC TOTAL     ACCESS:    2105524  HIT:       8400  MISS:    2097124
LLC LOAD      ACCESS:     293360  HIT:          0  MISS:     293360
LLC RFO       ACCESS:     906081  HIT:       8400  MISS:     897681
LLC PREFETCH  ACCESS:          0  HIT:          0  MISS:          0
LLC WRITEBACK ACCESS:     906075  HIT:          0  MISS:     906075
Heartbeat CPU 0 instructions: 86000003 cycles: 141029410 heartbeat IPC: 0.315537 cumulative IPC: 0.280949 (Simulation time: 1 hr 42 min 13 sec) 

Region of Interest Statistics
cpu0_DTLB TOTAL     ACCESS:    5687168  HIT:    5651669  MISS:      35499
cpu0_DTLB LOAD      ACCESS:    2735106  HIT:    2730289  MISS:       4817
cpu0_DTLB RFO       ACCESS:    2952062  HIT:    2921380  MISS:      30682
cpu0_DTLB PREFETCH  ACCESS:          0  HIT:          0  MISS:          0
cpu0_DTLB WRITEBACK ACCESS:          0  HIT:          0  MISS:          0
cpu0_ITLB TOTAL     ACCESS:     412824  HIT:     412824  MISS:          0
cpu0_ITLB LOAD      ACCESS:     412824  HIT:     412824  MISS:          0
cpu0_ITLB RFO       ACCESS:          0  HIT:          0  MISS:          0
cpu0_ITLB PREFETCH  ACCESS:          0  HIT:          0  MISS:          0
cpu0_ITLB WRITEBACK ACCESS:          0  HIT:          0  MISS:          0
cpu0_L1I TOTAL     ACCESS:     745504  HIT:     745504  MISS:          0
cpu0_L1I LOAD      ACCESS:     745504  HIT:     745504  MISS:          0
cpu0_L1I RFO       ACCESS:          0  HIT:          0  MISS:          0
cpu0_L1I PREFETCH  ACCESS:          0  HIT:          0  MISS:          0
cpu0_L1I WRITEBACK ACCESS:          0  HIT:          0  MISS:          0
cpu0_STLB TOTAL     ACCESS:      35499  HIT:      16237  MISS:      19262
cpu0_STLB LOAD      ACCESS:       4817  HIT:          0  MISS:       4817
cpu0_STLB RFO       ACCESS:      30682  HIT:      16237  MISS:      14445
cpu0_STLB PREFETCH  ACCESS:          0  HIT:          0  MISS:          0
cpu0_STLB WRITEBACK ACCESS:          0  HIT:          0  MISS:          0
cpu0_L1D TOTAL     ACCESS:    7950737  HIT:    5917232  MISS:    2033505
cpu0_L1D LOAD      ACCESS:    2021992  HIT:    1713879  MISS:     308113
cpu0_L1D RFO       ACCESS:    5910441  HIT:    4185057  MISS:    1725384
cpu0_L1D PREFETCH  ACCESS:          0  HIT:          0  MISS:          0
cpu0_L1D WRITEBACK ACCESS:          0  HIT:          0  MISS:          0
cpu0_L2C TOTAL     ACCESS:    3758889  HIT:    2498610  MISS:    1260279
cpu0_L2C LOAD      ACCESS:     308113  HIT:          0  MISS:     308113
cpu0_L2C RFO       ACCESS:    1725384  HIT:     773253  MISS:     952131
cpu0_L2C PREFETCH  ACCESS:          0  HIT:          0  MISS:          0
cpu0_L2C WRITEBACK ACCESS:    1725384  HIT:    1725357  MISS:         27
LLC TOTAL     ACCESS:    2212309  HIT:       8998  MISS:    2203311
LLC LOAD      ACCESS:     308113  HIT:          0  MISS:     308113
LLC RFO       ACCESS:     952112  HIT:       8998  MISS:     943114
LLC PREFETCH  ACCESS:          0  HIT:          0  MISS:          0
LLC WRITEBACK ACCESS:     952076  HIT:          0  MISS:     952076
Heartbeat CPU 0 instructions: 88000000 cycles: 147658696 heartbeat IPC: 0.301691 cumulative IPC: 0.281969 (Simulation time: 1 hr 45 min 56 sec) 

Region of Interest Statistics
cpu0_DTLB TOTAL     ACCESS:    5994770  HIT:    5957455  MISS:      37315
cpu0_DTLB LOAD      ACCESS:    2885716  HIT:    2880652  MISS:       5064
cpu0_DTLB RFO       ACCESS:    3109054  HIT:    3076803  MISS:      32251
cpu0_DTLB PREFETCH  ACCESS:          0  HIT:          0  MISS:          0
cpu0_DTLB WRITEBACK ACCESS:          0  HIT:          0  MISS:          0
cpu0_ITLB TOTAL     ACCESS:     432917  HIT:     432917  MISS:          0
cpu0_ITLB LOAD      ACCESS:     432917  HIT:     432917  MISS:          0
cpu0_ITLB RFO       ACCESS:          0  HIT:          0  MISS:          0
cpu0_ITLB PREFETCH  ACCESS:          0  HIT:          0  MISS:          0
cpu0_ITLB WRITEBACK ACCESS:          0  HIT:          0  MISS:          0
cpu0_L1I TOTAL     ACCESS:     785986  HIT:     785986  MISS:          0
cpu0_L1I LOAD      ACCESS:     785986  HIT:     785986  MISS:          0
cpu0_L1I RFO       ACCESS:          0  HIT:          0  MISS:          0
cpu0_L1I PREFETCH  ACCESS:          0  HIT:          0  MISS:          0
cpu0_L1I WRITEBACK ACCESS:          0  HIT:          0  MISS:          0
cpu0_STLB TOTAL     ACCESS:      37315  HIT:      17068  MISS:      20247
cpu0_STLB LOAD      ACCESS:       5064  HIT:          0  MISS:       5064
cpu0_STLB RFO       ACCESS:      32251  HIT:      17068  MISS:      15183
cpu0_STLB PREFETCH  ACCESS:          0  HIT:          0  MISS:          0
cpu0_STLB WRITEBACK ACCESS:          0  HIT:          0  MISS:          0
cpu0_L1D TOTAL     ACCESS:    8385951  HIT:    6248509  MISS:    2137442
cpu0_L1D LOAD      ACCESS:    2134560  HIT:    1810700  MISS:     323860
cpu0_L1D RFO       ACCESS:    6232102  HIT:    4418529  MISS:    1813573
cpu0_L1D PREFETCH  ACCESS:          0  HIT:          0  MISS:          0
cpu0_L1D WRITEBACK ACCESS:          0  HIT:          0  MISS:          0
cpu0_L2C TOTAL     ACCESS:    3951012  HIT:    2626560  MISS:    1324452
cpu0_L2C LOAD      ACCESS:     323860  HIT:          0  MISS:     323860
cpu0_L2C RFO       ACCESS:    1813573  HIT:     813017  MISS:    1000556
cpu0_L2C PREFETCH  ACCESS:          0  HIT:          0  MISS:          0
cpu0_L2C WRITEBACK ACCESS:    1813570  HIT:    1813543  MISS:         27
LLC TOTAL     ACCESS:    2325310  HIT:       9317  MISS:    2315993
LLC LOAD      ACCESS:     323860  HIT:          0  MISS:     323860
LLC RFO       ACCESS:    1000536  HIT:       9317  MISS:     991219
LLC PREFETCH  ACCESS:          0  HIT:          0  MISS:          0
LLC WRITEBACK ACCESS:    1000905  HIT:          0  MISS:    1000905
Heartbeat CPU 0 instructions: 90000001 cycles: 154328336 heartbeat IPC: 0.299866 cumulative IPC: 0.282813 (Simulation time: 1 hr 49 min 52 sec) 

Region of Interest Statistics
cpu0_DTLB TOTAL     ACCESS:    6303987  HIT:    6264830  MISS:      39157
cpu0_DTLB LOAD      ACCESS:    3036690  HIT:    3031377  MISS:       5313
cpu0_DTLB RFO       ACCESS:    3267297  HIT:    3233453  MISS:      33844
cpu0_DTLB PREFETCH  ACCESS:          0  HIT:          0  MISS:          0
cpu0_DTLB WRITEBACK ACCESS:          0  HIT:          0  MISS:          0
cpu0_ITLB TOTAL     ACCESS:     453183  HIT:     453183  MISS:          0
cpu0_ITLB LOAD      ACCESS:     453183  HIT:     453183  MISS:          0
cpu0_ITLB RFO       ACCESS:          0  HIT:          0  MISS:          0
cpu0_ITLB PREFETCH  ACCESS:          0  HIT:          0  MISS:          0
cpu0_ITLB WRITEBACK ACCESS:          0  HIT:          0  MISS:          0
cpu0_L1I TOTAL     ACCESS:     827199  HIT:     827199  MISS:          0
cpu0_L1I LOAD      ACCESS:     827199  HIT:     827199  MISS:          0
cpu0_L1I RFO       ACCESS:          0  HIT:          0  MISS:          0
cpu0_L1I PREFETCH  ACCESS:          0  HIT:          0  MISS:          0
cpu0_L1I WRITEBACK ACCESS:          0  HIT:          0  MISS:          0
cpu0_STLB TOTAL     ACCESS:      39157  HIT:      17911  MISS:      21246
cpu0_STLB LOAD      ACCESS:       5313  HIT:          0  MISS:       5313
cpu0_STLB RFO       ACCESS:      33844  HIT:      17911  MISS:      15933
cpu0_STLB PREFETCH  ACCESS:          0  HIT:          0  MISS:          0
cpu0_STLB WRITEBACK ACCESS:          0  HIT:          0  MISS:          0
cpu0_L1D TOTAL     ACCESS:    8822299  HIT:    6579270  MISS:    2243029
cpu0_L1D LOAD      ACCESS:    2247050  HIT:    1907192  MISS:     339858
cpu0_L1D RFO       ACCESS:    6554960  HIT:    4651798  MISS:    1903162
cpu0_L1D PREFETCH  ACCESS:          0  HIT:          0  MISS:          0
cpu0_L1D WRITEBACK ACCESS:          0  HIT:          0  MISS:          0
cpu0_L2C TOTAL     ACCESS:    4146191  HIT:    2756588  MISS:    1389603
cpu0_L2C LOAD      ACCESS:     339858  HIT:          0  MISS:     339858
cpu0_L2C RFO       ACCESS:    1903162  HIT:     853453  MISS:    1049709
cpu0_L2C PREFETCH  ACCESS:          0  HIT:          0  MISS:          0
cpu0_L2C WRITEBACK ACCESS:    1903162  HIT:    1903135  MISS:         27
LLC TOTAL     ACCESS:    2439333  HIT:       9638  MISS:    2429695
LLC LOAD      ACCESS:     339858  HIT:          0  MISS:     339858
LLC RFO       ACCESS:    1049689  HIT:       9638  MISS:    1040051
LLC PREFETCH  ACCESS:          0  HIT:          0  MISS:          0
LLC WRITEBACK ACCESS:    1049777  HIT:          0  MISS:    1049777
Heartbeat CPU 0 instructions: 92000002 cycles: 160809329 heartbeat IPC: 0.308595 cumulative IPC: 0.283943 (Simulation time: 1 hr 53 min 24 sec) 

Region of Interest Statistics
cpu0_DTLB TOTAL     ACCESS:    6608143  HIT:    6567233  MISS:      40910
cpu0_DTLB LOAD      ACCESS:    3186700  HIT:    3181149  MISS:       5551
cpu0_DTLB RFO       ACCESS:    3421443  HIT:    3386084  MISS:      35359
cpu0_DTLB PREFETCH  ACCESS:          0  HIT:          0  MISS:          0
cpu0_DTLB WRITEBACK ACCESS:          0  HIT:          0  MISS:          0
cpu0_ITLB TOTAL     ACCESS:     472297  HIT:     472297  MISS:          0
cpu0_ITLB LOAD      ACCESS:     472297  HIT:     472297  MISS:          0
cpu0_ITLB RFO       ACCESS:          0  HIT:          0  MISS:          0
cpu0_ITLB PREFETCH  ACCESS:          0  HIT:          0  MISS:          0
cpu0_ITLB WRITEBACK ACCESS:          0  HIT:          0  MISS:          0
cpu0_L1I TOTAL     ACCESS:     867326  HIT:     867326  MISS:          0
cpu0_L1I LOAD      ACCESS:     867326  HIT:     867326  MISS:          0
cpu0_L1I RFO       ACCESS:          0  HIT:          0  MISS:          0
cpu0_L1I PREFETCH  ACCESS:          0  HIT:          0  MISS:          0
cpu0_L1I WRITEBACK ACCESS:          0  HIT:          0  MISS:          0
cpu0_STLB TOTAL     ACCESS:      40910  HIT:      18714  MISS:      22196
cpu0_STLB LOAD      ACCESS:       5551  HIT:          0  MISS:       5551
cpu0_STLB RFO       ACCESS:      35359  HIT:      18714  MISS:      16645
cpu0_STLB PREFETCH  ACCESS:          0  HIT:          0  MISS:          0
cpu0_STLB WRITEBACK ACCESS:          0  HIT:          0  MISS:          0
cpu0_L1D TOTAL     ACCESS:    9254619  HIT:    6911195  MISS:    2343424
cpu0_L1D LOAD      ACCESS:    2359579  HIT:    2004509  MISS:     355070
cpu0_L1D RFO       ACCESS:    6874010  HIT:    4885665  MISS:    1988345
cpu0_L1D PREFETCH  ACCESS:          0  HIT:          0  MISS:          0
cpu0_L1D WRITEBACK ACCESS:          0  HIT:          0  MISS:          0
cpu0_L2C TOTAL     ACCESS:    4331766  HIT:    2879657  MISS:    1452109
cpu0_L2C LOAD      ACCESS:     355070  HIT:          0  MISS:     355070
cpu0_L2C RFO       ACCESS:    1988345  HIT:     891342  MISS:    1097003
cpu0_L2C PREFETCH  ACCESS:          0  HIT:          0  MISS:          0
cpu0_L2C WRITEBACK ACCESS:    1988342  HIT:    1988315  MISS:         27
LLC TOTAL     ACCESS:    2549294  HIT:      10065  MISS:    2539229
LLC LOAD      ACCESS:     355070  HIT:          0  MISS:     355070
LLC RFO       ACCESS:    1096983  HIT:      10065  MISS:    1086918
LLC PREFETCH  ACCESS:          0  HIT:          0  MISS:          0
LLC WRITEBACK ACCESS:    1097232  HIT:          0  MISS:    1097232
Heartbeat CPU 0 instructions: 94000003 cycles: 167196017 heartbeat IPC: 0.313152 cumulative IPC: 0.285152 (Simulation time: 1 hr 56 min 34 sec) 

Region of Interest Statistics
cpu0_DTLB TOTAL     ACCESS:    6912494  HIT:    6869829  MISS:      42665
cpu0_DTLB LOAD      ACCESS:    3336754  HIT:    3330965  MISS:       5789
cpu0_DTLB RFO       ACCESS:    3575740  HIT:    3538864  MISS:      36876
cpu0_DTLB PREFETCH  ACCESS:          0  HIT:          0  MISS:          0
cpu0_DTLB WRITEBACK ACCESS:          0  HIT:          0  MISS:          0
cpu0_ITLB TOTAL     ACCESS:     491710  HIT:     491710  MISS:          0
cpu0_ITLB LOAD      ACCESS:     491710  HIT:     491710  MISS:          0
cpu0_ITLB RFO       ACCESS:          0  HIT:          0  MISS:          0
cpu0_ITLB PREFETCH  ACCESS:          0  HIT:          0  MISS:          0
cpu0_ITLB WRITEBACK ACCESS:          0  HIT:          0  MISS:          0
cpu0_L1I TOTAL     ACCESS:     907010  HIT:     907010  MISS:          0
cpu0_L1I LOAD      ACCESS:     907010  HIT:     907010  MISS:          0
cpu0_L1I RFO       ACCESS:          0  HIT:          0  MISS:          0
cpu0_L1I PREFETCH  ACCESS:          0  HIT:          0  MISS:          0
cpu0_L1I WRITEBACK ACCESS:          0  HIT:          0  MISS:          0
cpu0_STLB TOTAL     ACCESS:      42665  HIT:      19517  MISS:      23148
cpu0_STLB LOAD      ACCESS:       5789  HIT:          0  MISS:       5789
cpu0_STLB RFO       ACCESS:      36876  HIT:      19517  MISS:      17359
cpu0_STLB PREFETCH  ACCESS:          0  HIT:          0  MISS:          0
cpu0_STLB WRITEBACK ACCESS:          0  HIT:          0  MISS:          0
cpu0_L1D TOTAL     ACCESS:    9687107  HIT:    7243130  MISS:    2443977
cpu0_L1D LOAD      ACCESS:    2472113  HIT:    2101808  MISS:     370305
cpu0_L1D RFO       ACCESS:    7193244  HIT:    5119581  MISS:    2073663
cpu0_L1D PREFETCH  ACCESS:          0  HIT:          0  MISS:          0
cpu0_L1D WRITEBACK ACCESS:          0  HIT:          0  MISS:          0
cpu0_L2C TOTAL     ACCESS:    4517638  HIT:    3003442  MISS:    1514196
cpu0_L2C LOAD      ACCESS:     370305  HIT:          0  MISS:     370305
cpu0_L2C RFO       ACCESS:    2073663  HIT:     929808  MISS:    1143855
cpu0_L2C PREFETCH  ACCESS:          0  HIT:          0  MISS:          0
cpu0_L2C WRITEBACK ACCESS:    2073661  HIT:    2073634  MISS:         27
LLC TOTAL     ACCESS:    2657915  HIT:      10348  MISS:    2647567
LLC LOAD      ACCESS:     370305  HIT:          0  MISS:     370305
LLC RFO       ACCESS:    1143835  HIT:      10348  MISS:    1133487
LLC PREFETCH  ACCESS:          0  HIT:          0  MISS:          0
LLC WRITEBACK ACCESS:    1143766  HIT:          0  MISS:    1143766
Heartbeat CPU 0 instructions: 96000000 cycles: 173762830 heartbeat IPC: 0.304561 cumulative IPC: 0.285944 (Simulation time: 2 hr 0 min 6 sec) 

Region of Interest Statistics
cpu0_DTLB TOTAL     ACCESS:    7219174  HIT:    7174717  MISS:      44457
cpu0_DTLB LOAD      ACCESS:    3487485  HIT:    3481452  MISS:       6033
cpu0_DTLB RFO       ACCESS:    3731689  HIT:    3693265  MISS:      38424
cpu0_DTLB PREFETCH  ACCESS:          0  HIT:          0  MISS:          0
cpu0_DTLB WRITEBACK ACCESS:          0  HIT:          0  MISS:          0
cpu0_ITLB TOTAL     ACCESS:     510393  HIT:     510393  MISS:          0
cpu0_ITLB LOAD      ACCESS:     510393  HIT:     510393  MISS:          0
cpu0_ITLB RFO       ACCESS:          0  HIT:          0  MISS:          0
cpu0_ITLB PREFETCH  ACCESS:          0  HIT:          0  MISS:          0
cpu0_ITLB WRITEBACK ACCESS:          0  HIT:          0  MISS:          0
cpu0_L1I TOTAL     ACCESS:     949045  HIT:     949045  MISS:          0
cpu0_L1I LOAD      ACCESS:     949045  HIT:     949045  MISS:          0
cpu0_L1I RFO       ACCESS:          0  HIT:          0  MISS:          0
cpu0_L1I PREFETCH  ACCESS:          0  HIT:          0  MISS:          0
cpu0_L1I WRITEBACK ACCESS:          0  HIT:          0  MISS:          0
cpu0_STLB TOTAL     ACCESS:      44457  HIT:      20333  MISS:      24124
cpu0_STLB LOAD      ACCESS:       6033  HIT:          0  MISS:       6033
cpu0_STLB RFO       ACCESS:      38424  HIT:      20333  MISS:      18091
cpu0_STLB PREFETCH  ACCESS:          0  HIT:          0  MISS:          0
cpu0_STLB WRITEBACK ACCESS:          0  HIT:          0  MISS:          0
cpu0_L1D TOTAL     ACCESS:   10121537  HIT:    7574834  MISS:    2546703
cpu0_L1D LOAD      ACCESS:    2584852  HIT:    2198981  MISS:     385871
cpu0_L1D RFO       ACCESS:    7514198  HIT:    5353377  MISS:    2160821
cpu0_L1D PREFETCH  ACCESS:          0  HIT:          0  MISS:          0
cpu0_L1D WRITEBACK ACCESS:          0  HIT:          0  MISS:          0
cpu0_L2C TOTAL     ACCESS:    4707522  HIT:    3129857  MISS:    1577665
cpu0_L2C LOAD      ACCESS:     385871  HIT:          0  MISS:     385871
cpu0_L2C RFO       ACCESS:    2160821  HIT:     969070  MISS:    1191751
cpu0_L2C PREFETCH  ACCESS:          0  HIT:          0  MISS:          0
cpu0_L2C WRITEBACK ACCESS:    2160819  HIT:    2160787  MISS:         32
LLC TOTAL     ACCESS:    2769337  HIT:      10634  MISS:    2758703
LLC LOAD      ACCESS:     385871  HIT:          0  MISS:     385871
LLC RFO       ACCESS:    1191731  HIT:      10634  MISS:    1181097
LLC PREFETCH  ACCESS:          0  HIT:          0  MISS:          0
LLC WRITEBACK ACCESS:    1191724  HIT:          0  MISS:    1191724
Heartbeat CPU 0 instructions: 98000000 cycles: 179920182 heartbeat IPC: 0.324815 cumulative IPC: 0.287377 (Simulation time: 2 hr 3 min 44 sec) 

Region of Interest Statistics
cpu0_DTLB TOTAL     ACCESS:    7518819  HIT:    7472692  MISS:      46127
cpu0_DTLB LOAD      ACCESS:    3636765  HIT:    3630505  MISS:       6260
cpu0_DTLB RFO       ACCESS:    3882054  HIT:    3842187  MISS:      39867
cpu0_DTLB PREFETCH  ACCESS:          0  HIT:          0  MISS:          0
cpu0_DTLB WRITEBACK ACCESS:          0  HIT:          0  MISS:          0
cpu0_ITLB TOTAL     ACCESS:     528194  HIT:     528194  MISS:          0
cpu0_ITLB LOAD      ACCESS:     528194  HIT:     528194  MISS:          0
cpu0_ITLB RFO       ACCESS:          0  HIT:          0  MISS:          0
cpu0_ITLB PREFETCH  ACCESS:          0  HIT:          0  MISS:          0
cpu0_ITLB WRITEBACK ACCESS:          0  HIT:          0  MISS:          0
cpu0_L1I TOTAL     ACCESS:     988523  HIT:     988523  MISS:          0
cpu0_L1I LOAD      ACCESS:     988523  HIT:     988523  MISS:          0
cpu0_L1I RFO       ACCESS:          0  HIT:          0  MISS:          0
cpu0_L1I PREFETCH  ACCESS:          0  HIT:          0  MISS:          0
cpu0_L1I WRITEBACK ACCESS:          0  HIT:          0  MISS:          0
cpu0_STLB TOTAL     ACCESS:      46127  HIT:      21098  MISS:      25029
cpu0_STLB LOAD      ACCESS:       6260  HIT:          0  MISS:       6260
cpu0_STLB RFO       ACCESS:      39867  HIT:      21098  MISS:      18769
cpu0_STLB PREFETCH  ACCESS:          0  HIT:          0  MISS:          0
cpu0_STLB WRITEBACK ACCESS:          0  HIT:          0  MISS:          0
cpu0_L1D TOTAL     ACCESS:   10550276  HIT:    7908056  MISS:    2642220
cpu0_L1D LOAD      ACCESS:    2697473  HIT:    2297130  MISS:     400343
cpu0_L1D RFO       ACCESS:    7829633  HIT:    5587767  MISS:    2241866
cpu0_L1D PREFETCH  ACCESS:          0  HIT:          0  MISS:          0
cpu0_L1D WRITEBACK ACCESS:          0  HIT:          0  MISS:          0
cpu0_L2C TOTAL     ACCESS:    4884083  HIT:    3247142  MISS:    1636941
cpu0_L2C LOAD      ACCESS:     400343  HIT:          0  MISS:     400343
cpu0_L2C RFO       ACCESS:    2241866  HIT:    1005311  MISS:    1236555
cpu0_L2C PREFETCH  ACCESS:          0  HIT:          0  MISS:          0
cpu0_L2C WRITEBACK ACCESS:    2241863  HIT:    2241831  MISS:         32
LLC TOTAL     ACCESS:    2873338  HIT:      11069  MISS:    2862269
LLC LOAD      ACCESS:     400343  HIT:          0  MISS:     400343
LLC RFO       ACCESS:    1236535  HIT:      11069  MISS:    1225466
LLC PREFETCH  ACCESS:          0  HIT:          0  MISS:          0
LLC WRITEBACK ACCESS:    1236449  HIT:          0  MISS:    1236449
Heartbeat CPU 0 instructions: 100000002 cycles: 186033341 heartbeat IPC: 0.327163 cumulative IPC: 0.288782 (Simulation time: 2 hr 7 min 47 sec) 

Region of Interest Statistics
cpu0_DTLB TOTAL     ACCESS:    7817547  HIT:    7769775  MISS:      47772
cpu0_DTLB LOAD      ACCESS:    3786081  HIT:    3779598  MISS:       6483
cpu0_DTLB RFO       ACCESS:    4031466  HIT:    3990177  MISS:      41289
cpu0_DTLB PREFETCH  ACCESS:          0  HIT:          0  MISS:          0
cpu0_DTLB WRITEBACK ACCESS:          0  HIT:          0  MISS:          0
cpu0_ITLB TOTAL     ACCESS:     545308  HIT:     545308  MISS:          0
cpu0_ITLB LOAD      ACCESS:     545308  HIT:     545308  MISS:          0
cpu0_ITLB RFO       ACCESS:          0  HIT:          0  MISS:          0
cpu0_ITLB PREFETCH  ACCESS:          0  HIT:          0  MISS:          0
cpu0_ITLB WRITEBACK ACCESS:          0  HIT:          0  MISS:          0
cpu0_L1I TOTAL     ACCESS:    1028303  HIT:    1028303  MISS:          0
cpu0_L1I LOAD      ACCESS:    1028303  HIT:    1028303  MISS:          0
cpu0_L1I RFO       ACCESS:          0  HIT:          0  MISS:          0
cpu0_L1I PREFETCH  ACCESS:          0  HIT:          0  MISS:          0
cpu0_L1I WRITEBACK ACCESS:          0  HIT:          0  MISS:          0
cpu0_STLB TOTAL     ACCESS:      47772  HIT:      21850  MISS:      25922
cpu0_STLB LOAD      ACCESS:       6483  HIT:          0  MISS:       6483
cpu0_STLB RFO       ACCESS:      41289  HIT:      21850  MISS:      19439
cpu0_STLB PREFETCH  ACCESS:          0  HIT:          0  MISS:          0
cpu0_STLB WRITEBACK ACCESS:          0  HIT:          0  MISS:          0
cpu0_L1D TOTAL     ACCESS:   10977951  HIT:    8241451  MISS:    2736500
cpu0_L1D LOAD      ACCESS:    2810029  HIT:    2395401  MISS:     414628
cpu0_L1D RFO       ACCESS:    8143912  HIT:    5822052  MISS:    2321860
cpu0_L1D PREFETCH  ACCESS:          0  HIT:          0  MISS:          0
cpu0_L1D WRITEBACK ACCESS:          0  HIT:          0  MISS:          0
cpu0_L2C TOTAL     ACCESS:    5058358  HIT:    3362993  MISS:    1695365
cpu0_L2C LOAD      ACCESS:     414628  HIT:          0  MISS:     414628
cpu0_L2C RFO       ACCESS:    2321860  HIT:    1041167  MISS:    1280693
cpu0_L2C PREFETCH  ACCESS:          0  HIT:          0  MISS:          0
cpu0_L2C WRITEBACK ACCESS:    2321858  HIT:    2321826  MISS:         32
LLC TOTAL     ACCESS:    2975918  HIT:      11437  MISS:    2964481
LLC LOAD      ACCESS:     414628  HIT:          0  MISS:     414628
LLC RFO       ACCESS:    1280673  HIT:      11437  MISS:    1269236
LLC PREFETCH  ACCESS:          0  HIT:          0  MISS:          0
LLC WRITEBACK ACCESS:    1280605  HIT:          0  MISS:    1280605
Heartbeat CPU 0 instructions: 102000000 cycles: 192577269 heartbeat IPC: 0.305627 cumulative IPC: 0.289395 (Simulation time: 2 hr 11 min 26 sec) 

Region of Interest Statistics
cpu0_DTLB TOTAL     ACCESS:    8123769  HIT:    8074202  MISS:      49567
cpu0_DTLB LOAD      ACCESS:    3936287  HIT:    3929561  MISS:       6726
cpu0_DTLB RFO       ACCESS:    4187482  HIT:    4144641  MISS:      42841
cpu0_DTLB PREFETCH  ACCESS:          0  HIT:          0  MISS:          0
cpu0_DTLB WRITEBACK ACCESS:          0  HIT:          0  MISS:          0
cpu0_ITLB TOTAL     ACCESS:     565143  HIT:     565143  MISS:          0
cpu0_ITLB LOAD      ACCESS:     565143  HIT:     565143  MISS:          0
cpu0_ITLB RFO       ACCESS:          0  HIT:          0  MISS:          0
cpu0_ITLB PREFETCH  ACCESS:          0  HIT:          0  MISS:          0
cpu0_ITLB WRITEBACK ACCESS:          0  HIT:          0  MISS:          0
cpu0_L1I TOTAL     ACCESS:    1068641  HIT:    1068641  MISS:          0
cpu0_L1I LOAD      ACCESS:    1068641  HIT:    1068641  MISS:          0
cpu0_L1I RFO       ACCESS:          0  HIT:          0  MISS:          0
cpu0_L1I PREFETCH  ACCESS:          0  HIT:          0  MISS:          0
cpu0_L1I WRITEBACK ACCESS:          0  HIT:          0  MISS:          0
cpu0_STLB TOTAL     ACCESS:      49567  HIT:      22673  MISS:      26894
cpu0_STLB LOAD      ACCESS:       6726  HIT:          0  MISS:       6726
cpu0_STLB RFO       ACCESS:      42841  HIT:      22673  MISS:      20168
cpu0_STLB PREFETCH  ACCESS:          0  HIT:          0  MISS:          0
cpu0_STLB WRITEBACK ACCESS:          0  HIT:          0  MISS:          0
cpu0_L1D TOTAL     ACCESS:   11412308  HIT:    8573074  MISS:    2839234
cpu0_L1D LOAD      ACCESS:    2922586  HIT:    2492392  MISS:     430194
cpu0_L1D RFO       ACCESS:    8464740  HIT:    6055712  MISS:    2409028
cpu0_L1D PREFETCH  ACCESS:          0  HIT:          0  MISS:          0
cpu0_L1D WRITEBACK ACCESS:          0  HIT:          0  MISS:          0
cpu0_L2C TOTAL     ACCESS:    5248259  HIT:    3489256  MISS:    1759003
cpu0_L2C LOAD      ACCESS:     430194  HIT:          0  MISS:     430194
cpu0_L2C RFO       ACCESS:    2409028  HIT:    1080266  MISS:    1328762
cpu0_L2C PREFETCH  ACCESS:          0  HIT:          0  MISS:          0
cpu0_L2C WRITEBACK ACCESS:    2409025  HIT:    2408990  MISS:         35
LLC TOTAL     ACCESS:    3087656  HIT:      11945  MISS:    3075711
LLC LOAD      ACCESS:     430194  HIT:          0  MISS:     430194
LLC RFO       ACCESS:    1328741  HIT:      11945  MISS:    1316796
LLC PREFETCH  ACCESS:          0  HIT:          0  MISS:          0
LLC WRITEBACK ACCESS:    1328709  HIT:          0  MISS:    1328709
Heartbeat CPU 0 instructions: 104000003 cycles: 198703514 heartbeat IPC: 0.326465 cumulative IPC: 0.290617 (Simulation time: 2 hr 14 min 31 sec) 

Region of Interest Statistics
cpu0_DTLB TOTAL     ACCESS:    8422516  HIT:    8371307  MISS:      51209
cpu0_DTLB LOAD      ACCESS:    4085740  HIT:    4078791  MISS:       6949
cpu0_DTLB RFO       ACCESS:    4336776  HIT:    4292516  MISS:      44260
cpu0_DTLB PREFETCH  ACCESS:          0  HIT:          0  MISS:          0
cpu0_DTLB WRITEBACK ACCESS:          0  HIT:          0  MISS:          0
cpu0_ITLB TOTAL     ACCESS:     582152  HIT:     582152  MISS:          0
cpu0_ITLB LOAD      ACCESS:     582152  HIT:     582152  MISS:          0
cpu0_ITLB RFO       ACCESS:          0  HIT:          0  MISS:          0
cpu0_ITLB PREFETCH  ACCESS:          0  HIT:          0  MISS:          0
cpu0_ITLB WRITEBACK ACCESS:          0  HIT:          0  MISS:          0
cpu0_L1I TOTAL     ACCESS:    1108409  HIT:    1108409  MISS:          0
cpu0_L1I LOAD      ACCESS:    1108409  HIT:    1108409  MISS:          0
cpu0_L1I RFO       ACCESS:          0  HIT:          0  MISS:          0
cpu0_L1I PREFETCH  ACCESS:          0  HIT:          0  MISS:          0
cpu0_L1I WRITEBACK ACCESS:          0  HIT:          0  MISS:          0
cpu0_STLB TOTAL     ACCESS:      51209  HIT:      23423  MISS:      27786
cpu0_STLB LOAD      ACCESS:       6949  HIT:          0  MISS:       6949
cpu0_STLB RFO       ACCESS:      44260  HIT:      23423  MISS:      20837
cpu0_STLB PREFETCH  ACCESS:          0  HIT:          0  MISS:          0
cpu0_STLB WRITEBACK ACCESS:          0  HIT:          0  MISS:          0
cpu0_L1D TOTAL     ACCESS:   11840292  HIT:    8906955  MISS:    2933337
cpu0_L1D LOAD      ACCESS:    3035438  HIT:    2590981  MISS:     444457
cpu0_L1D RFO       ACCESS:    8778980  HIT:    6290112  MISS:    2488868
cpu0_L1D PREFETCH  ACCESS:          0  HIT:          0  MISS:          0
cpu0_L1D WRITEBACK ACCESS:          0  HIT:          0  MISS:          0
cpu0_L2C TOTAL     ACCESS:    5422209  HIT:    3604653  MISS:    1817556
cpu0_L2C LOAD      ACCESS:     444457  HIT:          0  MISS:     444457
cpu0_L2C RFO       ACCESS:    2488868  HIT:    1115816  MISS:    1373052
cpu0_L2C PREFETCH  ACCESS:          0  HIT:          0  MISS:          0
cpu0_L2C WRITEBACK ACCESS:    2488872  HIT:    2488837  MISS:         35
LLC TOTAL     ACCESS:    3190754  HIT:      12461  MISS:    3178293
LLC LOAD      ACCESS:     444457  HIT:          0  MISS:     444457
LLC RFO       ACCESS:    1373031  HIT:      12461  MISS:    1360570
LLC PREFETCH  ACCESS:          0  HIT:          0  MISS:          0
LLC WRITEBACK ACCESS:    1373254  HIT:          0  MISS:    1373254
Heartbeat CPU 0 instructions: 106000004 cycles: 204852543 heartbeat IPC: 0.325255 cumulative IPC: 0.291727 (Simulation time: 2 hr 17 min 38 sec) 

Region of Interest Statistics
cpu0_DTLB TOTAL     ACCESS:    8721105  HIT:    8668247  MISS:      52858
cpu0_DTLB LOAD      ACCESS:    4234807  HIT:    4227635  MISS:       7172
cpu0_DTLB RFO       ACCESS:    4486298  HIT:    4440612  MISS:      45686
cpu0_DTLB PREFETCH  ACCESS:          0  HIT:          0  MISS:          0
cpu0_DTLB WRITEBACK ACCESS:          0  HIT:          0  MISS:          0
cpu0_ITLB TOTAL     ACCESS:     599205  HIT:     599205  MISS:          0
cpu0_ITLB LOAD      ACCESS:     599205  HIT:     599205  MISS:          0
cpu0_ITLB RFO       ACCESS:          0  HIT:          0  MISS:          0
cpu0_ITLB PREFETCH  ACCESS:          0  HIT:          0  MISS:          0
cpu0_ITLB WRITEBACK ACCESS:          0  HIT:          0  MISS:          0
cpu0_L1I TOTAL     ACCESS:    1148131  HIT:    1148131  MISS:          0
cpu0_L1I LOAD      ACCESS:    1148131  HIT:    1148131  MISS:          0
cpu0_L1I RFO       ACCESS:          0  HIT:          0  MISS:          0
cpu0_L1I PREFETCH  ACCESS:          0  HIT:          0  MISS:          0
cpu0_L1I WRITEBACK ACCESS:          0  HIT:          0  MISS:          0
cpu0_STLB TOTAL     ACCESS:      52858  HIT:      24178  MISS:      28680
cpu0_STLB LOAD      ACCESS:       7172  HIT:          0  MISS:       7172
cpu0_STLB RFO       ACCESS:      45686  HIT:      24178  MISS:      21508
cpu0_STLB PREFETCH  ACCESS:          0  HIT:          0  MISS:          0
cpu0_STLB WRITEBACK ACCESS:          0  HIT:          0  MISS:          0
cpu0_L1D TOTAL     ACCESS:   12268535  HIT:    9240671  MISS:    3027864
cpu0_L1D LOAD      ACCESS:    3148021  HIT:    2689247  MISS:     458774
cpu0_L1D RFO       ACCESS:    9093746  HIT:    6524668  MISS:    2569078
cpu0_L1D PREFETCH  ACCESS:          0  HIT:          0  MISS:          0
cpu0_L1D WRITEBACK ACCESS:          0  HIT:          0  MISS:          0
cpu0_L2C TOTAL     ACCESS:    5596940  HIT:    3720527  MISS:    1876413
cpu0_L2C LOAD      ACCESS:     458774  HIT:          0  MISS:     458774
cpu0_L2C RFO       ACCESS:    2569078  HIT:    1151486  MISS:    1417592
cpu0_L2C PREFETCH  ACCESS:          0  HIT:          0  MISS:          0
[...]
cpu0_DTLB LOAD      ACCESS:  115078698  HIT:  114857804  MISS:     220894
cpu0_DTLB RFO       ACCESS:  129578925  HIT:  128173116  MISS:    1405809
cpu0_DTLB PREFETCH  ACCESS:          0  HIT:          0  MISS:          0
cpu0_DTLB WRITEBACK ACCESS:          0  HIT:          0  MISS:          0
cpu0_ITLB TOTAL     ACCESS:   20126145  HIT:   20126144  MISS:          1
cpu0_ITLB LOAD      ACCESS:   20126145  HIT:   20126144  MISS:          1
cpu0_ITLB RFO       ACCESS:          0  HIT:          0  MISS:          0
cpu0_ITLB PREFETCH  ACCESS:          0  HIT:          0  MISS:          0
cpu0_ITLB WRITEBACK ACCESS:          0  HIT:          0  MISS:          0
cpu0_L1I TOTAL     ACCESS:   31595242  HIT:   31595239  MISS:          3
cpu0_L1I LOAD      ACCESS:   31595242  HIT:   31595239  MISS:          3
cpu0_L1I RFO       ACCESS:          0  HIT:          0  MISS:          0
cpu0_L1I PREFETCH  ACCESS:          0  HIT:          0  MISS:          0
cpu0_L1I WRITEBACK ACCESS:          0  HIT:          0  MISS:          0
cpu0_STLB TOTAL     ACCESS:    1626704  HIT:     743374  MISS:     883330
cpu0_STLB LOAD      ACCESS:     220895  HIT:          1  MISS:     220894
cpu0_STLB RFO       ACCESS:    1405809  HIT:     743373  MISS:     662436
cpu0_STLB PREFETCH  ACCESS:          0  HIT:          0  MISS:          0
cpu0_STLB WRITEBACK ACCESS:          0  HIT:          0  MISS:          0
cpu0_L1D TOTAL     ACCESS:  337021059  HIT:  243772381  MISS:   93248678
cpu0_L1D LOAD      ACCESS:   83844603  HIT:   69715291  MISS:   14129312
cpu0_L1D RFO       ACCESS:  252345243  HIT:  173226269  MISS:   79118974
cpu0_L1D PREFETCH  ACCESS:          0  HIT:          0  MISS:          0
cpu0_L1D WRITEBACK ACCESS:          0  HIT:          0  MISS:          0
cpu0_L2C TOTAL     ACCESS:  172367642  HIT:  114520295  MISS:   57847347
cpu0_L2C LOAD      ACCESS:   14129315  HIT:        284  MISS:   14129031
cpu0_L2C RFO       ACCESS:   79118961  HIT:   35402944  MISS:   43716017
cpu0_L2C PREFETCH  ACCESS:          0  HIT:          0  MISS:          0
cpu0_L2C WRITEBACK ACCESS:   79118974  HIT:   79117067  MISS:       1907
LLC TOTAL     ACCESS:  101562317  HIT:     405927  MISS:  101156390
LLC LOAD      ACCESS:   14129031  HIT:          0  MISS:   14129031
LLC RFO       ACCESS:   43714971  HIT:     405927  MISS:   43309044
LLC PREFETCH  ACCESS:          0  HIT:          0  MISS:          0
LLC WRITEBACK ACCESS:   43717923  HIT:          0  MISS:   43717923
Heartbeat CPU 0 instructions: 1550000000 cycles: 5848448652 heartbeat IPC: 0.209264 cumulative IPC: 0.257045 (Simulation time: 22 hr 17 min 20 sec) 

Region of Interest Statistics
cpu0_DTLB TOTAL     ACCESS:  245015151  HIT:  243385687  MISS:    1629464
cpu0_DTLB LOAD      ACCESS:  115236987  HIT:  115015719  MISS:     221268
cpu0_DTLB RFO       ACCESS:  129778164  HIT:  128369968  MISS:    1408196
cpu0_DTLB PREFETCH  ACCESS:          0  HIT:          0  MISS:          0
cpu0_DTLB WRITEBACK ACCESS:          0  HIT:          0  MISS:          0
cpu0_ITLB TOTAL     ACCESS:   20163557  HIT:   20163556  MISS:          1
cpu0_ITLB LOAD      ACCESS:   20163557  HIT:   20163556  MISS:          1
cpu0_ITLB RFO       ACCESS:          0  HIT:          0  MISS:          0
cpu0_ITLB PREFETCH  ACCESS:          0  HIT:          0  MISS:          0
cpu0_ITLB WRITEBACK ACCESS:          0  HIT:          0  MISS:          0
cpu0_L1I TOTAL     ACCESS:   31640626  HIT:   31640623  MISS:          3
cpu0_L1I LOAD      ACCESS:   31640626  HIT:   31640623  MISS:          3
cpu0_L1I RFO       ACCESS:          0  HIT:          0  MISS:          0
cpu0_L1I PREFETCH  ACCESS:          0  HIT:          0  MISS:          0
cpu0_L1I WRITEBACK ACCESS:          0  HIT:          0  MISS:          0
cpu0_STLB TOTAL     ACCESS:    1629465  HIT:     744638  MISS:     884827
cpu0_STLB LOAD      ACCESS:     221269  HIT:          1  MISS:     221268
cpu0_STLB RFO       ACCESS:    1408196  HIT:     744637  MISS:     663559
cpu0_STLB PREFETCH  ACCESS:          0  HIT:          0  MISS:          0
cpu0_STLB WRITEBACK ACCESS:          0  HIT:          0  MISS:          0
cpu0_L1D TOTAL     ACCESS:  337495277  HIT:  244088398  MISS:   93406879
cpu0_L1D LOAD      ACCESS:   83955917  HIT:   69802635  MISS:   14153282
cpu0_L1D RFO       ACCESS:  252707023  HIT:  173453818  MISS:   79253205
cpu0_L1D PREFETCH  ACCESS:          0  HIT:          0  MISS:          0
cpu0_L1D WRITEBACK ACCESS:          0  HIT:          0  MISS:          0
cpu0_L2C TOTAL     ACCESS:  172660075  HIT:  114714995  MISS:   57945080
cpu0_L2C LOAD      ACCESS:   14153285  HIT:        284  MISS:   14153001
cpu0_L2C RFO       ACCESS:   79253192  HIT:   35463412  MISS:   43789780
cpu0_L2C PREFETCH  ACCESS:          0  HIT:          0  MISS:          0
cpu0_L2C WRITEBACK ACCESS:   79253206  HIT:   79251299  MISS:       1907
LLC TOTAL     ACCESS:  101733693  HIT:     406508  MISS:  101327185
LLC LOAD      ACCESS:   14153001  HIT:          0  MISS:   14153001
LLC RFO       ACCESS:   43788734  HIT:     406508  MISS:   43382226
LLC PREFETCH  ACCESS:          0  HIT:          0  MISS:          0
LLC WRITEBACK ACCESS:   43791566  HIT:          0  MISS:   43791566
Finished CPU 0 instructions: 1500000002 cycles: 5835556384 cumulative IPC: 0.257045 (Simulation time: 22 hr 17 min 20 sec) 

ChampSim completed all CPUs

Region of Interest Statistics

CPU 0 cumulative IPC: 0.257045 instructions: 1500000002 cycles: 5835556384
cpu0_DTLB TOTAL     ACCESS:  245015151  HIT:  243385687  MISS:    1629464
cpu0_DTLB LOAD      ACCESS:  115236987  HIT:  115015719  MISS:     221268
cpu0_DTLB RFO       ACCESS:  129778164  HIT:  128369968  MISS:    1408196
cpu0_DTLB PREFETCH  ACCESS:          0  HIT:          0  MISS:          0
cpu0_DTLB WRITEBACK ACCESS:          0  HIT:          0  MISS:          0
cpu0_DTLB TRANSLATION ACCESS:          0  HIT:          0  MISS:          0
cpu0_DTLB PREFETCH  REQUESTED:          0  ISSUED:          0  USEFUL:          0  USELESS:          0
cpu0_DTLB AVERAGE MISS LATENCY: 439.284 cycles
cpu0_ITLB TOTAL     ACCESS:   20163557  HIT:   20163556  MISS:          1
cpu0_ITLB LOAD      ACCESS:   20163557  HIT:   20163556  MISS:          1
cpu0_ITLB RFO       ACCESS:          0  HIT:          0  MISS:          0
cpu0_ITLB PREFETCH  ACCESS:          0  HIT:          0  MISS:          0
cpu0_ITLB WRITEBACK ACCESS:          0  HIT:          0  MISS:          0
cpu0_ITLB TRANSLATION ACCESS:          0  HIT:          0  MISS:          0
cpu0_ITLB PREFETCH  REQUESTED:          0  ISSUED:          0  USEFUL:          0  USELESS:          0
cpu0_ITLB AVERAGE MISS LATENCY: 3867 cycles
cpu0_L1I TOTAL     ACCESS:   31640626  HIT:   31640623  MISS:          3
cpu0_L1I LOAD      ACCESS:   31640626  HIT:   31640623  MISS:          3
cpu0_L1I RFO       ACCESS:          0  HIT:          0  MISS:          0
cpu0_L1I PREFETCH  ACCESS:          0  HIT:          0  MISS:          0
cpu0_L1I WRITEBACK ACCESS:          0  HIT:          0  MISS:          0
cpu0_L1I TRANSLATION ACCESS:          0  HIT:          0  MISS:          0
cpu0_L1I PREFETCH  REQUESTED:          0  ISSUED:          0  USEFUL:          0  USELESS:          0
cpu0_L1I AVERAGE MISS LATENCY: 380.667 cycles
cpu0_STLB TOTAL     ACCESS:    1629465  HIT:     744638  MISS:     884827
cpu0_STLB LOAD      ACCESS:     221269  HIT:          1  MISS:     221268
cpu0_STLB RFO       ACCESS:    1408196  HIT:     744637  MISS:     663559
cpu0_STLB PREFETCH  ACCESS:          0  HIT:          0  MISS:          0
cpu0_STLB WRITEBACK ACCESS:          0  HIT:          0  MISS:          0
cpu0_STLB TRANSLATION ACCESS:          0  HIT:          0  MISS:          0
cpu0_STLB PREFETCH  REQUESTED:          0  ISSUED:          0  USEFUL:          0  USELESS:          0
cpu0_STLB AVERAGE MISS LATENCY: 792.252 cycles
cpu0_L1D TOTAL     ACCESS:  337495280  HIT:  244088401  MISS:   93406879
cpu0_L1D LOAD      ACCESS:   83955918  HIT:   69802636  MISS:   14153282
cpu0_L1D RFO       ACCESS:  252707025  HIT:  173453820  MISS:   79253205
cpu0_L1D PREFETCH  ACCESS:          0  HIT:          0  MISS:          0
cpu0_L1D WRITEBACK ACCESS:          0  HIT:          0  MISS:          0
cpu0_L1D TRANSLATION ACCESS:     832337  HIT:     831945  MISS:        392
cpu0_L1D PREFETCH  REQUESTED:          0  ISSUED:          0  USEFUL:          0  USELESS:          0
cpu0_L1D AVERAGE MISS LATENCY: 705.586 cycles
cpu0_L2C TOTAL     ACCESS:  172660075  HIT:  114714995  MISS:   57945080
cpu0_L2C LOAD      ACCESS:   14153285  HIT:        284  MISS:   14153001
cpu0_L2C RFO       ACCESS:   79253192  HIT:   35463412  MISS:   43789780
cpu0_L2C PREFETCH  ACCESS:          0  HIT:          0  MISS:          0
cpu0_L2C WRITEBACK ACCESS:   79253206  HIT:   79251299  MISS:       1907
cpu0_L2C TRANSLATION ACCESS:        392  HIT:          0  MISS:        392
cpu0_L2C PREFETCH  REQUESTED:          0  ISSUED:          0  USEFUL:          0  USELESS:          0
cpu0_L2C AVERAGE MISS LATENCY: 1119.58 cycles
LLC TOTAL     ACCESS:  101733693  HIT:     406508  MISS:  101327185
LLC LOAD      ACCESS:   14153001  HIT:          0  MISS:   14153001
LLC RFO       ACCESS:   43788734  HIT:     406508  MISS:   43382226
LLC PREFETCH  ACCESS:          0  HIT:          0  MISS:          0
LLC WRITEBACK ACCESS:   43791566  HIT:          0  MISS:   43791566
LLC TRANSLATION ACCESS:        392  HIT:          0  MISS:        392
LLC PREFETCH  REQUESTED:          0  ISSUED:          0  USEFUL:          0  USELESS:          0
LLC AVERAGE MISS LATENCY: 628.236 cycles
~~~~~~~~~~Reuse Distance Profiler output~~~~~~~~~~
0	0	0
1	0	0
2	0	0
3	0	0
4	0	0
5	0	0
6	0	0
7	0	0
8	0	0
9	0	0
10	0	0
11	0	0
12	0	0
13	0	0
14	0	0
15	0	0
16	0	0
17	0	0
18	0	0
19	0	0
20	0	0
21	0	0
22	0	0
23	0	0
24	0	0
25	0	0
26	0	0
27	0	0
28	0	0
29	0	0
30	0	0
31	0	0
32	0	0
33	0	0
34	0	0
35	0	0
36	0	0
37	0	0
38	0	0
39	0	0
40	0	0
41	0	0
42	0	0
43	0	0
44	0	0
45	0	0
46	0	0
47	0	0
48	0	0
49	0	0
50	0	0
51	0	0
52	0	0
53	0	0
54	0	0
55	0	0
56	0	0
57	0	0
58	0	0
59	0	0
60	0	0
61	0	0
62	0	0
63	0	0
64	0	0
66	0	0
68	0	0
70	0	0
72	0	0
74	0	0
76	0	0
78	0	0
80	0	0
82	0	0
84	0	0
86	0	0
88	0	0
90	0	0
92	0	0
94	0	0
96	0	0
98	0	0
100	0	0
102	0	0
104	0	0
106	0	0
108	0	0
110	0	0
112	0	0
114	0	0
116	0	0
118	0	0
120	0	0
122	0	0
124	0	0
126	0	0
128	0	0
132	0	0
136	0	0
140	0	0
144	0	0
148	0	0
152	0	0
156	0	0
160	0	0
164	0	0
168	0	0
172	0	0
176	0	0
180	0	0
184	0	0
188	0	0
192	0	0
196	0	0
200	0	0
204	0	0
208	0	0
212	0	0
216	0	0
220	0	0
224	0	0
228	0	0
232	0	0
236	0	0
240	0	0
244	0	0
248	0	0
252	0	0
256	0	0
264	0	0
272	0	0
280	0	0
288	0	0
296	0	0
304	0	0
312	0	0
320	0	0
328	0	0
336	0	0
344	0	0
352	0	0
360	0	0
368	0	0
376	0	0
384	0	0
392	0	0
400	0	0
408	0	0
416	0	0
424	0	0
432	0	0
440	0	0
448	0	0
456	0	0
464	0	0
472	0	0
480	0	0
488	0	0
496	0	0
504	0	0
512	0	0
528	0	0
544	0	0
560	0	0
576	0	0
592	0	0
608	0	0
624	0	0
640	0	0
656	0	0
672	0	0
688	0	0
704	0	0
720	0	0
736	0	0
752	0	0
768	0	0
784	0	0
800	0	0
816	0	0
832	0	0
848	0	0
864	0	0
880	0	0
896	0	0
912	0	0
928	0	0
944	0	0
960	0	0
976	0	0
992	0	0
1008	0	0
1024	0	0
1056	0	0
1088	0	0
1120	0	0
1152	0	0
1184	0	0
1216	0	0
1248	0	0
1280	0	0
1312	0	0
1344	0	0
1376	0	0
1408	0	0
1440	0	0
1472	0	0
1504	0	0
1536	0	0
1568	0	0
1600	0	0
1632	0	0
1664	0	0
1696	0	0
1728	0	0
1760	0	0
1792	0	0
1824	0	0
1856	0	0
1888	0	0
1920	0	0
1952	0	0
1984	0	0
2016	0	0
2048	0	0
2112	0	0
2176	0	0
2240	0	0
2304	0	0
2368	0	0
2432	0	0
2496	0	0
2560	0	0
2624	0	0
2688	0	0
2752	0	0
2816	0	0
2880	0	0
2944	0	0
3008	0	0
3072	0	0
3136	0	0
3200	0	0
3264	0	0
3328	0	0
3392	0	0
3456	0	0
3520	0	0
3584	0	0
3648	0	0
3712	0	0
3776	0	0
3840	0	0
3904	0	0
3968	0	0
4032	0	0
4096	0	0
4224	0	0
4352	0	0
4480	0	0
4608	0	0
4736	0	0
4864	0	0
4992	0	0
5120	0	0
5248	0	0
5376	0	0
5504	0	0
5632	0	0
5760	0	0
5888	0	0
6016	0	0
6144	0	0
6272	0	0
6400	0	0
6528	0	0
6656	0	0
6784	0	0
6912	0	0
7040	0	0
7168	0	0
7296	0	0
7424	0	0
7552	0	0
7680	0	0
7808	0	0
7936	0	0
8064	0	0
8192	0	0
8448	0	0
8704	0	0
8960	0	0
9216	0	0
9472	0	0
9728	0	0
9984	0	0
10240	0	0
10496	0	0
10752	0	0
11008	0	0
11264	0	0
11520	0	0
11776	0	0
12032	0	0
12288	0	0
12544	0	0
12800	0	0
13056	0	0
13312	0	0
13568	0	0
13824	0	0
14080	0	0
14336	0	0
14592	0	0
14848	0	0
15104	0	0
15360	0	0
15616	0	0
15872	0	0
16128	0	0
16384	0	0
16896	0	0
17408	0	0
17920	0	0
18432	0	0
18944	0	0
19456	0	0
19968	0	0
20480	0	0
20992	0	0
21504	0	0
22016	0	0
22528	0	0
23040	0	0
23552	0	0
24064	0	0
24576	0	0
25088	0	0
25600	0	0
26112	0	0
26624	0	0
27136	0	0
27648	0	0
28160	0	0
28672	0	0
29184	0	0
29696	0	0
30208	0	0
30720	0	0
31232	0	0
31744	0	0
32256	0	0
32768	0	0
33792	0	0
34816	0	0
35840	0	0
36864	0	0
37888	0	0
38912	0	0
39936	0	0
40960	0	0
41984	0	0
43008	0	0
44032	0	0
45056	0	0
46080	0	0
47104	0	0
48128	0	0
49152	0	0
50176	0	0
51200	0	0
52224	0	0
53248	0	0
54272	0	0
55296	0	0
56320	0	0
57344	0	0
58368	0	0
59392	0	0
60416	0	0
61440	0	0
62464	0	0
63488	0	0
64512	0	0
65536	0	0
67584	0	0
69632	0	0
71680	0	0
73728	0	0
75776	0	0
77824	0	0
79872	0	0
81920	0	0
83968	0	0
86016	0	0
88064	0	0
90112	0	0
92160	0	0
94208	0	0
96256	0	0
98304	0	0
100352	0	0
102400	0	0
104448	0	0
106496	0	0
108544	0	0
110592	0	0
112640	0	0
114688	0	0
116736	0	0
118784	0	0
120832	0	0
122880	0	0
124928	0	0
126976	0	0
129024	0	0
131072	0	0
135168	0	0
139264	0	0
143360	0	0
147456	0	0
151552	0	0
155648	0	0
159744	0	0
163840	0	0
167936	0	0
172032	0	0
176128	0	0
180224	0	0
184320	0	0
188416	0	0
192512	0	0
196608	0	0
200704	0	0
204800	0	0
208896	0	0
212992	0	0
217088	0	0
221184	0	0
225280	0	0
229376	0	0
233472	0	0
237568	0	0
241664	0	0
245760	0	0
249856	0	0
253952	0	0
258048	0	0
262144	0	0
270336	0	0
278528	0	0
286720	0	0
294912	0	0
303104	0	0
311296	0	0
319488	0	0
327680	0	0
335872	0	0
344064	0	0
352256	0	0
360448	0	0
368640	0	0
376832	0	0
385024	0	0
393216	0	0
401408	0	0
409600	0	0
417792	0	0
425984	0	0
434176	0	0
442368	0	0
450560	0	0
458752	0	0
466944	0	0
475136	0	0
483328	0	0
491520	0	0
499712	0	0
507904	0	0
516096	0	0
524288	0	0
540672	0	0
557056	0	0
573440	0	0
589824	0	0
606208	0	0
622592	0	0
638976	0	0
655360	0	0
671744	0	0
688128	0	0
704512	0	0
720896	0	0
737280	0	0
753664	0	0
770048	0	0
786432	0	0
802816	0	0
819200	0	0
835584	0	0
851968	0	0
868352	0	0
884736	0	0
901120	0	0
917504	0	0
933888	0	0
950272	0	0
966656	0	0
983040	0	0
999424	0	0
1015808	0	0
1032192	0	0
1048576	0	0
1081344	0	0
1114112	0	0
1146880	0	0
1179648	0	0
1212416	0	0
1245184	0	0
1277952	0	0
1310720	0	0
1343488	0	0
1376256	0	0
1409024	0	0
1441792	0	0
1474560	0	0
1507328	0	0
1540096	0	0
1572864	0	0
1605632	0	0
1638400	0	0
1671168	0	0
1703936	0	0
1736704	0	0
1769472	0	0
1802240	0	0
1835008	0	0
1867776	0	0
1900544	0	0
1933312	0	0
1966080	0	0
1998848	0	0
2031616	0	0
2064384	0	0
2097152	0	0
2162688	0	0
2228224	0	0
2293760	0	0
2359296	0	0
2424832	0	0
2490368	0	0
2555904	0	0
2621440	0	0
2686976	0	0
2752512	0	0
2818048	0	0
2883584	0	0
2949120	0	0
3014656	0	0
3080192	0	0
3145728	0	0
3211264	0	0
3276800	0	0
3342336	0	0
3407872	0	0
3473408	0	0
3538944	0	0
3604480	0	0
3670016	0	0
3735552	0	0
3801088	0	0
3866624	0	0
3932160	0	0
3997696	0	0
4063232	0	0
4128768	0	0
4194304	0	0
4325376	0	0
4456448	0	0
4587520	0	0
4718592	0	0
4849664	0	0
4980736	0	0
5111808	0	0
5242880	0	0
5373952	0	0
5505024	0	0
5636096	0	0
5767168	0	0
5898240	0	0
6029312	0	0
6160384	0	0
6291456	0	0
6422528	0	0
6553600	0	0
6684672	0	0
6815744	0	0
6946816	0	0
7077888	0	0
7208960	0	0
7340032	0	0
7471104	0	0
7602176	0	0
7733248	0	0
7864320	0	0
7995392	0	0
8126464	0	0
8257536	0	0
8388608	0	0
8650752	0	0
8912896	0	0
9175040	0	0
9437184	0	0
9699328	0	0
9961472	0	0
10223616	0	0
10485760	0	0
10747904	0	0
11010048	0	0
11272192	0	0
11534336	0	0
11796480	0	0
12058624	0	0
12320768	0	0
12582912	0	0
12845056	0	0
13107200	0	0
13369344	0	0
13631488	0	0
13893632	0	0
14155776	0	0
14417920	0	0
14680064	0	0
14942208	0	0
15204352	0	0
15466496	0	0
15728640	0	0
15990784	0	0
16252928	0	0
16515072	0	0
16777216	0	0
17301504	0	0
17825792	0	0
18350080	0	0
18874368	0	0
19398656	0	0
19922944	0	0
20447232	0	0
20971520	0	0
21495808	0	0
22020096	0	0
22544384	0	0
23068672	0	0
23592960	0	0
24117248	0	0
24641536	0	0
25165824	0	0
25690112	0	0
26214400	0	0
26738688	0	0
27262976	0	0
27787264	0	0
28311552	0	0
28835840	0	0
29360128	0	0
29884416	0	0
30408704	0	0
30932992	0	0
31457280	0	0
31981568	0	0
32505856	0	0
33030144	0	0
33554432	0	0
34603008	0	0
35651584	0	0
36700160	0	0
37748736	0	0
38797312	0	0
39845888	0	0
40894464	0	0
41943040	0	0
42991616	0	0
44040192	0	0
45088768	0	0
46137344	0	0
47185920	0	0
48234496	0	0
49283072	0	0
50331648	0	0
51380224	0	0
52428800	0	0
53477376	0	0
54525952	0	0
55574528	0	0
56623104	0	0
57671680	0	0
58720256	0	0
59768832	0	0
60817408	0	0
61865984	0	0
62914560	0	0
63963136	0	0
65011712	0	0
66060288	0	0
67108864	0	0
69206016	0	0
71303168	0	0
73400320	0	0
75497472	0	0
77594624	0	0
79691776	0	0
81788928	0	0
83886080	0	0
85983232	0	0
88080384	0	0
90177536	0	0
92274688	0	0
94371840	0	0
96468992	0	0
98566144	0	0
100663296	0	0
102760448	0	0
104857600	0	0
106954752	0	0
109051904	0	0
111149056	0	0
113246208	0	0
115343360	0	0
117440512	0	0
119537664	0	0
121634816	0	0
123731968	0	0
125829120	0	0
127926272	0	0
130023424	0	0
132120576	0	0
134217728	0	0
138412032	0	0
142606336	0	0
146800640	0	0
150994944	0	0
155189248	0	0
159383552	0	0
163577856	0	0
167772160	0	0
171966464	0	0
176160768	0	0
180355072	0	0
184549376	0	0
188743680	0	0
192937984	0	0
197132288	0	0
201326592	0	0
205520896	0	0
209715200	0	0
213909504	0	0
218103808	0	0
222298112	0	0
226492416	0	0
230686720	0	0
234881024	0	0
239075328	0	0
243269632	0	0
247463936	0	0
251658240	0	0
255852544	0	0
260046848	0	0
264241152	0	0
268435456	0	0
276824064	0	0
285212672	0	0
293601280	0	0
301989888	0	0
310378496	0	0
318767104	0	0
327155712	0	0
335544320	0	0
343932928	0	0
352321536	0	0
360710144	0	0
369098752	0	0
377487360	0	0
385875968	0	0
394264576	0	0
402653184	0	0
411041792	0	0
419430400	0	0
427819008	0	0
436207616	0	0
444596224	0	0
452984832	0	0
461373440	0	0
469762048	0	0
478150656	0	0
486539264	0	0
494927872	0	0
503316480	0	0
511705088	0	0
520093696	0	0
528482304	0	0
536870912	0	0
553648128	0	0
570425344	0	0
587202560	0	0
603979776	0	0
620756992	0	0
637534208	0	0
654311424	0	0
671088640	0	0
687865856	0	0
704643072	0	0
721420288	0	0
738197504	0	0
754974720	0	0
771751936	0	0
788529152	0	0
805306368	0	0
822083584	0	0
838860800	0	0
855638016	0	0
872415232	0	0
889192448	0	0
905969664	0	0
922746880	0	0
939524096	0	0
956301312	0	0
973078528	0	0
989855744	0	0
1006632960	0	0
1023410176	0	0
1040187392	0	0
1056964608	0	0
1073741824	0	0
1107296256	0	0
1140850688	0	0
1174405120	0	0
1207959552	0	0
1241513984	0	0
1275068416	0	0
1308622848	0	0
1342177280	0	0
1375731712	0	0
1409286144	0	0
1442840576	0	0
1476395008	0	0
1509949440	0	0
1543503872	0	0
1577058304	0	0
1610612736	0	0
1644167168	0	0
1677721600	0	0
1711276032	0	0
1744830464	0	0
1778384896	0	0
1811939328	0	0
1845493760	0	0
1879048192	0	0
1912602624	0	0
1946157056	0	0
1979711488	0	0
2013265920	0	0
2046820352	0	0
2080374784	0	0
2113929216	0	0
2147483648	0	0
2214592512	0	0
2281701376	0	0
2348810240	0	0
2415919104	0	0
2483027968	0	0
2550136832	0	0
2617245696	0	0
2684354560	0	0
2751463424	0	0
2818572288	0	0
2885681152	0	0
2952790016	0	0
3019898880	0	0
3087007744	0	0
3154116608	0	0
3221225472	0	0
3288334336	0	0
3355443200	0	0
3422552064	0	0
3489660928	0	0
3556769792	0	0
3623878656	0	0
3690987520	0	0
3758096384	0	0
3825205248	0	0
3892314112	0	0
3959422976	0	0
4026531840	0	0
4093640704	0	0
4160749568	0	0
4227858432	0	0
~~~~~~~~~~Reuse Distance Profiler output end~~~~~~~~~~


DRAM Statistics
 CHANNEL 0
 RQ ROW_BUFFER_HIT:    1380282  ROW_BUFFER_MISS:   56099282
 DBUS AVG_CONGESTED_CYCLE:    3.99991
 WQ ROW_BUFFER_HIT:     801840  ROW_BUFFER_MISS:   42989691  FULL:          0


CPU 0 Branch Prediction Accuracy: 97.068% MPKI: 0.450619 Average ROB Occupancy at Mispredict: 254.205
Branch type MPKI
BRANCH_DIRECT_JUMP: 2e-06
BRANCH_INDIRECT: 0
BRANCH_CONDITIONAL: 0.450615
BRANCH_DIRECT_CALL: 1.33333e-06
BRANCH_INDIRECT_CALL: 0
BRANCH_RETURN: 1.33333e-06

