
*** ChampSim Multicore Out-of-Order Simulator ***

Warmup Instructions: 50000000
Simulation Instructions: 1500000000
Number of CPUs: 1
Off-chip DRAM Size: 4 GiB Channels: 1 Width: 64-bit Data Rate: 3200 MT/s

VirtualMemory physical capacity: 8588881920 num_ppages: 2096895
VirtualMemory page size: 4096 log2_page_size: 12

CPU 0 runs traces/619.lbm_s-2677B.champsimtrace.xz
CPU 0 Bimodal branch predictor
Basic BTB sets: 1024 ways: 8 indirect buffer size: 4096 RAS size: 64
Initializing LRU.
Initializing LRU.
Initializing LRU.
Initializing LRU.
Initializing rdLRU.
Initializing LRU.
Initializing LRU.
Heartbeat CPU 0 instructions: 2000003 cycles: 516926 heartbeat IPC: 3.86903 cumulative IPC: 3.86903 (Simulation time: 0 hr 0 min 47 sec) 
Heartbeat CPU 0 instructions: 4000001 cycles: 1032235 heartbeat IPC: 3.88116 cumulative IPC: 3.87509 (Simulation time: 0 hr 1 min 27 sec) 
Heartbeat CPU 0 instructions: 6000003 cycles: 1550739 heartbeat IPC: 3.85725 cumulative IPC: 3.86912 (Simulation time: 0 hr 2 min 10 sec) 
Heartbeat CPU 0 instructions: 8000003 cycles: 2074124 heartbeat IPC: 3.82128 cumulative IPC: 3.85705 (Simulation time: 0 hr 2 min 54 sec) 
Heartbeat CPU 0 instructions: 10000003 cycles: 2592810 heartbeat IPC: 3.8559 cumulative IPC: 3.85682 (Simulation time: 0 hr 3 min 35 sec) 
Heartbeat CPU 0 instructions: 12000002 cycles: 3106233 heartbeat IPC: 3.89542 cumulative IPC: 3.8632 (Simulation time: 0 hr 4 min 15 sec) 
Heartbeat CPU 0 instructions: 14000000 cycles: 3624397 heartbeat IPC: 3.85978 cumulative IPC: 3.86271 (Simulation time: 0 hr 4 min 56 sec) 
Heartbeat CPU 0 instructions: 16000003 cycles: 4144689 heartbeat IPC: 3.844 cumulative IPC: 3.86036 (Simulation time: 0 hr 5 min 41 sec) 
Heartbeat CPU 0 instructions: 18000003 cycles: 4663562 heartbeat IPC: 3.85451 cumulative IPC: 3.85971 (Simulation time: 0 hr 6 min 22 sec) 
Heartbeat CPU 0 instructions: 20000001 cycles: 5181067 heartbeat IPC: 3.86469 cumulative IPC: 3.86021 (Simulation time: 0 hr 7 min 1 sec) 
Heartbeat CPU 0 instructions: 22000002 cycles: 5697145 heartbeat IPC: 3.87539 cumulative IPC: 3.86158 (Simulation time: 0 hr 7 min 44 sec) 
Heartbeat CPU 0 instructions: 24000003 cycles: 6215585 heartbeat IPC: 3.85773 cumulative IPC: 3.86126 (Simulation time: 0 hr 8 min 26 sec) 
Heartbeat CPU 0 instructions: 26000000 cycles: 6736549 heartbeat IPC: 3.83903 cumulative IPC: 3.85954 (Simulation time: 0 hr 9 min 10 sec) 
Heartbeat CPU 0 instructions: 28000003 cycles: 7253150 heartbeat IPC: 3.87147 cumulative IPC: 3.86039 (Simulation time: 0 hr 9 min 48 sec) 
Heartbeat CPU 0 instructions: 30000002 cycles: 7773138 heartbeat IPC: 3.84624 cumulative IPC: 3.85945 (Simulation time: 0 hr 10 min 30 sec) 
Heartbeat CPU 0 instructions: 32000001 cycles: 8285797 heartbeat IPC: 3.90123 cumulative IPC: 3.86203 (Simulation time: 0 hr 11 min 13 sec) 
Heartbeat CPU 0 instructions: 34000000 cycles: 8805750 heartbeat IPC: 3.8465 cumulative IPC: 3.86111 (Simulation time: 0 hr 12 min 5 sec) 
Heartbeat CPU 0 instructions: 36000001 cycles: 9325895 heartbeat IPC: 3.84508 cumulative IPC: 3.86022 (Simulation time: 0 hr 12 min 55 sec) 
Heartbeat CPU 0 instructions: 38000000 cycles: 9843455 heartbeat IPC: 3.86428 cumulative IPC: 3.86043 (Simulation time: 0 hr 13 min 51 sec) 
Heartbeat CPU 0 instructions: 40000002 cycles: 10359181 heartbeat IPC: 3.87803 cumulative IPC: 3.86131 (Simulation time: 0 hr 14 min 43 sec) 
Heartbeat CPU 0 instructions: 42000001 cycles: 10876649 heartbeat IPC: 3.86497 cumulative IPC: 3.86148 (Simulation time: 0 hr 15 min 38 sec) 
Heartbeat CPU 0 instructions: 44000000 cycles: 11398371 heartbeat IPC: 3.83346 cumulative IPC: 3.8602 (Simulation time: 0 hr 16 min 33 sec) 
Heartbeat CPU 0 instructions: 46000003 cycles: 11915689 heartbeat IPC: 3.8661 cumulative IPC: 3.86046 (Simulation time: 0 hr 17 min 23 sec) 
Heartbeat CPU 0 instructions: 48000000 cycles: 12433762 heartbeat IPC: 3.86045 cumulative IPC: 3.86046 (Simulation time: 0 hr 18 min 14 sec) 
Heartbeat CPU 0 instructions: 50000003 cycles: 12950970 heartbeat IPC: 3.86692 cumulative IPC: 3.86071 (Simulation time: 0 hr 19 min 5 sec) 

Warmup complete CPU 0 instructions: 50000003 cycles: 12950970 (Simulation time: 0 hr 19 min 5 sec) 

Heartbeat CPU 0 instructions: 52000000 cycles: 22739596 heartbeat IPC: 0.204318 cumulative IPC: 0.204318 (Simulation time: 0 hr 25 min 50 sec) 

Region of Interest Statistics
cpu0_DTLB TOTAL     ACCESS:     361881  HIT:     359043  MISS:       2838
cpu0_DTLB LOAD      ACCESS:     159144  HIT:     158759  MISS:        385
cpu0_DTLB RFO       ACCESS:     202737  HIT:     200284  MISS:       2453
cpu0_DTLB PREFETCH  ACCESS:          0  HIT:          0  MISS:          0
cpu0_DTLB WRITEBACK ACCESS:          0  HIT:          0  MISS:          0
cpu0_ITLB TOTAL     ACCESS:      39579  HIT:      39579  MISS:          0
cpu0_ITLB LOAD      ACCESS:      39579  HIT:      39579  MISS:          0
cpu0_ITLB RFO       ACCESS:          0  HIT:          0  MISS:          0
cpu0_ITLB PREFETCH  ACCESS:          0  HIT:          0  MISS:          0
cpu0_ITLB WRITEBACK ACCESS:          0  HIT:          0  MISS:          0
cpu0_L1I TOTAL     ACCESS:      44994  HIT:      44994  MISS:          0
cpu0_L1I LOAD      ACCESS:      44994  HIT:      44994  MISS:          0
cpu0_L1I RFO       ACCESS:          0  HIT:          0  MISS:          0
cpu0_L1I PREFETCH  ACCESS:          0  HIT:          0  MISS:          0
cpu0_L1I WRITEBACK ACCESS:          0  HIT:          0  MISS:          0
cpu0_STLB TOTAL     ACCESS:       2838  HIT:       1299  MISS:       1539
cpu0_STLB LOAD      ACCESS:        385  HIT:          0  MISS:        385
cpu0_STLB RFO       ACCESS:       2453  HIT:       1299  MISS:       1154
cpu0_STLB PREFETCH  ACCESS:          0  HIT:          0  MISS:          0
cpu0_STLB WRITEBACK ACCESS:          0  HIT:          0  MISS:          0
cpu0_L1D TOTAL     ACCESS:     478059  HIT:     315655  MISS:     162404
cpu0_L1D LOAD      ACCESS:     112269  HIT:      87650  MISS:      24619
cpu0_L1D RFO       ACCESS:     364251  HIT:     226466  MISS:     137785
cpu0_L1D PREFETCH  ACCESS:          0  HIT:          0  MISS:          0
cpu0_L1D WRITEBACK ACCESS:          0  HIT:          0  MISS:          0
cpu0_L2C TOTAL     ACCESS:     300197  HIT:     199422  MISS:     100775
cpu0_L2C LOAD      ACCESS:      24619  HIT:          0  MISS:      24619
cpu0_L2C RFO       ACCESS:     137785  HIT:      61632  MISS:      76153
cpu0_L2C PREFETCH  ACCESS:          0  HIT:          0  MISS:          0
cpu0_L2C WRITEBACK ACCESS:     137793  HIT:     137790  MISS:          3
LLC TOTAL     ACCESS:     177091  HIT:      78668  MISS:      98423
LLC LOAD      ACCESS:      24619  HIT:          2  MISS:      24617
LLC RFO       ACCESS:      76143  HIT:       2337  MISS:      73806
LLC PREFETCH  ACCESS:          0  HIT:          0  MISS:          0
LLC WRITEBACK ACCESS:      76329  HIT:      76329  MISS:          0
Heartbeat CPU 0 instructions: 54000003 cycles: 31169182 heartbeat IPC: 0.23726 cumulative IPC: 0.219561 (Simulation time: 0 hr 31 min 38 sec) 

Region of Interest Statistics
cpu0_DTLB TOTAL     ACCESS:     702005  HIT:     696741  MISS:       5264
cpu0_DTLB LOAD      ACCESS:     314992  HIT:     314277  MISS:        715
cpu0_DTLB RFO       ACCESS:     387013  HIT:     382464  MISS:       4549
cpu0_DTLB PREFETCH  ACCESS:          0  HIT:          0  MISS:          0
cpu0_DTLB WRITEBACK ACCESS:          0  HIT:          0  MISS:          0
cpu0_ITLB TOTAL     ACCESS:      71037  HIT:      71037  MISS:          0
cpu0_ITLB LOAD      ACCESS:      71037  HIT:      71037  MISS:          0
cpu0_ITLB RFO       ACCESS:          0  HIT:          0  MISS:          0
cpu0_ITLB PREFETCH  ACCESS:          0  HIT:          0  MISS:          0
cpu0_ITLB WRITEBACK ACCESS:          0  HIT:          0  MISS:          0
cpu0_L1I TOTAL     ACCESS:      88638  HIT:      88638  MISS:          0
cpu0_L1I LOAD      ACCESS:      88638  HIT:      88638  MISS:          0
cpu0_L1I RFO       ACCESS:          0  HIT:          0  MISS:          0
cpu0_L1I PREFETCH  ACCESS:          0  HIT:          0  MISS:          0
cpu0_L1I WRITEBACK ACCESS:          0  HIT:          0  MISS:          0
cpu0_STLB TOTAL     ACCESS:       5264  HIT:       2407  MISS:       2857
cpu0_STLB LOAD      ACCESS:        715  HIT:          0  MISS:        715
cpu0_STLB RFO       ACCESS:       4549  HIT:       2407  MISS:       2142
cpu0_STLB PREFETCH  ACCESS:          0  HIT:          0  MISS:          0
cpu0_STLB WRITEBACK ACCESS:          0  HIT:          0  MISS:          0
cpu0_L1D TOTAL     ACCESS:     939682  HIT:     638227  MISS:     301455
cpu0_L1D LOAD      ACCESS:     225193  HIT:     179504  MISS:      45689
cpu0_L1D RFO       ACCESS:     711632  HIT:     455868  MISS:     255764
cpu0_L1D PREFETCH  ACCESS:          0  HIT:          0  MISS:          0
cpu0_L1D WRITEBACK ACCESS:          0  HIT:          0  MISS:          0
cpu0_L2C TOTAL     ACCESS:     557227  HIT:     370408  MISS:     186819
cpu0_L2C LOAD      ACCESS:      45689  HIT:          0  MISS:      45689
cpu0_L2C RFO       ACCESS:     255764  HIT:     114651  MISS:     141113
cpu0_L2C PREFETCH  ACCESS:          0  HIT:          0  MISS:          0
cpu0_L2C WRITEBACK ACCESS:     255772  HIT:     255757  MISS:         15
LLC TOTAL     ACCESS:     328126  HIT:     145433  MISS:     182693
LLC LOAD      ACCESS:      45689  HIT:          5  MISS:      45684
LLC RFO       ACCESS:     141103  HIT:       4102  MISS:     137001
LLC PREFETCH  ACCESS:          0  HIT:          0  MISS:          0
LLC WRITEBACK ACCESS:     141332  HIT:     141326  MISS:          6
Heartbeat CPU 0 instructions: 56000000 cycles: 41507600 heartbeat IPC: 0.193453 cumulative IPC: 0.210109 (Simulation time: 0 hr 38 min 52 sec) 

Region of Interest Statistics
cpu0_DTLB TOTAL     ACCESS:    1073477  HIT:    1065183  MISS:       8294
cpu0_DTLB LOAD      ACCESS:     475269  HIT:     474144  MISS:       1125
cpu0_DTLB RFO       ACCESS:     598208  HIT:     591039  MISS:       7169
cpu0_DTLB PREFETCH  ACCESS:          0  HIT:          0  MISS:          0
cpu0_DTLB WRITEBACK ACCESS:          0  HIT:          0  MISS:          0
cpu0_ITLB TOTAL     ACCESS:     115055  HIT:     115055  MISS:          0
cpu0_ITLB LOAD      ACCESS:     115055  HIT:     115055  MISS:          0
cpu0_ITLB RFO       ACCESS:          0  HIT:          0  MISS:          0
cpu0_ITLB PREFETCH  ACCESS:          0  HIT:          0  MISS:          0
cpu0_ITLB WRITEBACK ACCESS:          0  HIT:          0  MISS:          0
cpu0_L1I TOTAL     ACCESS:     133774  HIT:     133774  MISS:          0
cpu0_L1I LOAD      ACCESS:     133774  HIT:     133774  MISS:          0
cpu0_L1I RFO       ACCESS:          0  HIT:          0  MISS:          0
cpu0_L1I PREFETCH  ACCESS:          0  HIT:          0  MISS:          0
cpu0_L1I WRITEBACK ACCESS:          0  HIT:          0  MISS:          0
cpu0_STLB TOTAL     ACCESS:       8294  HIT:       3794  MISS:       4500
cpu0_STLB LOAD      ACCESS:       1125  HIT:          0  MISS:       1125
cpu0_STLB RFO       ACCESS:       7169  HIT:       3794  MISS:       3375
cpu0_STLB PREFETCH  ACCESS:          0  HIT:          0  MISS:          0
cpu0_STLB WRITEBACK ACCESS:          0  HIT:          0  MISS:          0
cpu0_L1D TOTAL     ACCESS:    1424827  HIT:     949824  MISS:     475003
cpu0_L1D LOAD      ACCESS:     336777  HIT:     264800  MISS:      71977
cpu0_L1D RFO       ACCESS:    1083550  HIT:     680526  MISS:     403024
cpu0_L1D PREFETCH  ACCESS:          0  HIT:          0  MISS:          0
cpu0_L1D WRITEBACK ACCESS:          0  HIT:          0  MISS:          0
cpu0_L2C TOTAL     ACCESS:     878029  HIT:     584094  MISS:     293935
cpu0_L2C LOAD      ACCESS:      71977  HIT:          0  MISS:      71977
cpu0_L2C RFO       ACCESS:     403024  HIT:     181087  MISS:     221937
cpu0_L2C PREFETCH  ACCESS:          0  HIT:          0  MISS:          0
cpu0_L2C WRITEBACK ACCESS:     403026  HIT:     403007  MISS:         19
LLC TOTAL     ACCESS:     516126  HIT:     228259  MISS:     287867
LLC LOAD      ACCESS:      71977  HIT:          6  MISS:      71971
LLC RFO       ACCESS:     221924  HIT:       6037  MISS:     215887
LLC PREFETCH  ACCESS:          0  HIT:          0  MISS:          0
LLC WRITEBACK ACCESS:     222223  HIT:     222216  MISS:          7
Heartbeat CPU 0 instructions: 58000001 cycles: 50825472 heartbeat IPC: 0.214641 cumulative IPC: 0.211224 (Simulation time: 0 hr 45 min 11 sec) 

Region of Interest Statistics
cpu0_DTLB TOTAL     ACCESS:    1428001  HIT:    1417011  MISS:      10990
cpu0_DTLB LOAD      ACCESS:     633466  HIT:     631975  MISS:       1491
cpu0_DTLB RFO       ACCESS:     794535  HIT:     785036  MISS:       9499
cpu0_DTLB PREFETCH  ACCESS:          0  HIT:          0  MISS:          0
cpu0_DTLB WRITEBACK ACCESS:          0  HIT:          0  MISS:          0
cpu0_ITLB TOTAL     ACCESS:     152155  HIT:     152155  MISS:          0
cpu0_ITLB LOAD      ACCESS:     152155  HIT:     152155  MISS:          0
cpu0_ITLB RFO       ACCESS:          0  HIT:          0  MISS:          0
cpu0_ITLB PREFETCH  ACCESS:          0  HIT:          0  MISS:          0
cpu0_ITLB WRITEBACK ACCESS:          0  HIT:          0  MISS:          0
cpu0_L1I TOTAL     ACCESS:     177713  HIT:     177713  MISS:          0
cpu0_L1I LOAD      ACCESS:     177713  HIT:     177713  MISS:          0
cpu0_L1I RFO       ACCESS:          0  HIT:          0  MISS:          0
cpu0_L1I PREFETCH  ACCESS:          0  HIT:          0  MISS:          0
cpu0_L1I WRITEBACK ACCESS:          0  HIT:          0  MISS:          0
cpu0_STLB TOTAL     ACCESS:      10990  HIT:       5028  MISS:       5962
cpu0_STLB LOAD      ACCESS:       1491  HIT:          0  MISS:       1491
cpu0_STLB RFO       ACCESS:       9499  HIT:       5028  MISS:       4471
cpu0_STLB PREFETCH  ACCESS:          0  HIT:          0  MISS:          0
cpu0_STLB WRITEBACK ACCESS:          0  HIT:          0  MISS:          0
cpu0_L1D TOTAL     ACCESS:    1897527  HIT:    1268028  MISS:     629499
cpu0_L1D LOAD      ACCESS:     449314  HIT:     353929  MISS:      95385
cpu0_L1D RFO       ACCESS:    1442251  HIT:     908139  MISS:     534112
cpu0_L1D PREFETCH  ACCESS:          0  HIT:          0  MISS:          0
cpu0_L1D WRITEBACK ACCESS:          0  HIT:          0  MISS:          0
cpu0_L2C TOTAL     ACCESS:    1163610  HIT:     774077  MISS:     389533
cpu0_L2C LOAD      ACCESS:      95385  HIT:          0  MISS:      95385
cpu0_L2C RFO       ACCESS:     534112  HIT:     239993  MISS:     294119
cpu0_L2C PREFETCH  ACCESS:          0  HIT:          0  MISS:          0
cpu0_L2C WRITEBACK ACCESS:     534111  HIT:     534084  MISS:         27
LLC TOTAL     ACCESS:     683803  HIT:     302297  MISS:     381506
LLC LOAD      ACCESS:      95385  HIT:          9  MISS:      95376
LLC RFO       ACCESS:     294106  HIT:       7990  MISS:     286116
LLC PREFETCH  ACCESS:          0  HIT:          0  MISS:          0
LLC WRITEBACK ACCESS:     294310  HIT:     294298  MISS:         12
Heartbeat CPU 0 instructions: 60000001 cycles: 60467964 heartbeat IPC: 0.207415 cumulative IPC: 0.210451 (Simulation time: 0 hr 51 min 43 sec) 

Region of Interest Statistics
cpu0_DTLB TOTAL     ACCESS:    1786134  HIT:    1772387  MISS:      13747
cpu0_DTLB LOAD      ACCESS:     792465  HIT:     790600  MISS:       1865
cpu0_DTLB RFO       ACCESS:     993669  HIT:     981787  MISS:      11882
cpu0_DTLB PREFETCH  ACCESS:          0  HIT:          0  MISS:          0
cpu0_DTLB WRITEBACK ACCESS:          0  HIT:          0  MISS:          0
cpu0_ITLB TOTAL     ACCESS:     191150  HIT:     191150  MISS:          0
cpu0_ITLB LOAD      ACCESS:     191150  HIT:     191150  MISS:          0
cpu0_ITLB RFO       ACCESS:          0  HIT:          0  MISS:          0
cpu0_ITLB PREFETCH  ACCESS:          0  HIT:          0  MISS:          0
cpu0_ITLB WRITEBACK ACCESS:          0  HIT:          0  MISS:          0
cpu0_L1I TOTAL     ACCESS:     221589  HIT:     221589  MISS:          0
cpu0_L1I LOAD      ACCESS:     221589  HIT:     221589  MISS:          0
cpu0_L1I RFO       ACCESS:          0  HIT:          0  MISS:          0
cpu0_L1I PREFETCH  ACCESS:          0  HIT:          0  MISS:          0
cpu0_L1I WRITEBACK ACCESS:          0  HIT:          0  MISS:          0
cpu0_STLB TOTAL     ACCESS:      13747  HIT:       6289  MISS:       7458
cpu0_STLB LOAD      ACCESS:       1865  HIT:          0  MISS:       1865
cpu0_STLB RFO       ACCESS:      11882  HIT:       6289  MISS:       5593
cpu0_STLB PREFETCH  ACCESS:          0  HIT:          0  MISS:          0
cpu0_STLB WRITEBACK ACCESS:          0  HIT:          0  MISS:          0
cpu0_L1D TOTAL     ACCESS:    2372386  HIT:    1584976  MISS:     787410
cpu0_L1D LOAD      ACCESS:     561773  HIT:     442462  MISS:     119311
cpu0_L1D RFO       ACCESS:    1803155  HIT:    1135058  MISS:     668097
cpu0_L1D PREFETCH  ACCESS:          0  HIT:          0  MISS:          0
cpu0_L1D WRITEBACK ACCESS:          0  HIT:          0  MISS:          0
cpu0_L2C TOTAL     ACCESS:    1455505  HIT:     968072  MISS:     487433
cpu0_L2C LOAD      ACCESS:     119312  HIT:          0  MISS:     119312
cpu0_L2C RFO       ACCESS:     668097  HIT:     300009  MISS:     368088
cpu0_L2C PREFETCH  ACCESS:          0  HIT:          0  MISS:          0
cpu0_L2C WRITEBACK ACCESS:     668094  HIT:     668063  MISS:         31
LLC TOTAL     ACCESS:     855770  HIT:     378563  MISS:     477207
LLC LOAD      ACCESS:     119312  HIT:         11  MISS:     119301
LLC RFO       ACCESS:     368069  HIT:      10179  MISS:     357890
LLC PREFETCH  ACCESS:          0  HIT:          0  MISS:          0
LLC WRITEBACK ACCESS:     368387  HIT:     368373  MISS:         14
Heartbeat CPU 0 instructions: 62000004 cycles: 69526215 heartbeat IPC: 0.220794 cumulative IPC: 0.212107 (Simulation time: 0 hr 57 min 54 sec) 

Region of Interest Statistics
cpu0_DTLB TOTAL     ACCESS:    2137773  HIT:    2121387  MISS:      16386
cpu0_DTLB LOAD      ACCESS:     950241  HIT:     948018  MISS:       2223
cpu0_DTLB RFO       ACCESS:    1187532  HIT:    1173369  MISS:      14163
cpu0_DTLB PREFETCH  ACCESS:          0  HIT:          0  MISS:          0
cpu0_DTLB WRITEBACK ACCESS:          0  HIT:          0  MISS:          0
cpu0_ITLB TOTAL     ACCESS:     228099  HIT:     228099  MISS:          0
cpu0_ITLB LOAD      ACCESS:     228099  HIT:     228099  MISS:          0
cpu0_ITLB RFO       ACCESS:          0  HIT:          0  MISS:          0
cpu0_ITLB PREFETCH  ACCESS:          0  HIT:          0  MISS:          0
cpu0_ITLB WRITEBACK ACCESS:          0  HIT:          0  MISS:          0
cpu0_L1I TOTAL     ACCESS:     264010  HIT:     264010  MISS:          0
cpu0_L1I LOAD      ACCESS:     264010  HIT:     264010  MISS:          0
cpu0_L1I RFO       ACCESS:          0  HIT:          0  MISS:          0
cpu0_L1I PREFETCH  ACCESS:          0  HIT:          0  MISS:          0
cpu0_L1I WRITEBACK ACCESS:          0  HIT:          0  MISS:          0
cpu0_STLB TOTAL     ACCESS:      16386  HIT:       7496  MISS:       8890
cpu0_STLB LOAD      ACCESS:       2223  HIT:          0  MISS:       2223
cpu0_STLB RFO       ACCESS:      14163  HIT:       7496  MISS:       6667
cpu0_STLB PREFETCH  ACCESS:          0  HIT:          0  MISS:          0
cpu0_STLB WRITEBACK ACCESS:          0  HIT:          0  MISS:          0
cpu0_L1D TOTAL     ACCESS:    2842633  HIT:    1904096  MISS:     938537
cpu0_L1D LOAD      ACCESS:     674497  HIT:     532285  MISS:     142212
cpu0_L1D RFO       ACCESS:    2159246  HIT:    1362923  MISS:     796323
cpu0_L1D PREFETCH  ACCESS:          0  HIT:          0  MISS:          0
cpu0_L1D WRITEBACK ACCESS:          0  HIT:          0  MISS:          0
cpu0_L2C TOTAL     ACCESS:    1734857  HIT:    1153892  MISS:     580965
cpu0_L2C LOAD      ACCESS:     142212  HIT:          1  MISS:     142211
cpu0_L2C RFO       ACCESS:     796323  HIT:     357606  MISS:     438717
cpu0_L2C PREFETCH  ACCESS:          0  HIT:          0  MISS:          0
cpu0_L2C WRITEBACK ACCESS:     796320  HIT:     796285  MISS:         35
LLC TOTAL     ACCESS:    1019985  HIT:     451186  MISS:     568799
LLC LOAD      ACCESS:     142211  HIT:         11  MISS:     142200
LLC RFO       ACCESS:     438698  HIT:      12118  MISS:     426580
LLC PREFETCH  ACCESS:          0  HIT:          0  MISS:          0
LLC WRITEBACK ACCESS:     439074  HIT:     439057  MISS:         17
Heartbeat CPU 0 instructions: 64000003 cycles: 79375478 heartbeat IPC: 0.203061 cumulative IPC: 0.210766 (Simulation time: 1 hr 4 min 39 sec) 

Region of Interest Statistics
cpu0_DTLB TOTAL     ACCESS:    2501899  HIT:    2482642  MISS:      19257
cpu0_DTLB LOAD      ACCESS:    1110104  HIT:    1107491  MISS:       2613
cpu0_DTLB RFO       ACCESS:    1391795  HIT:    1375151  MISS:      16644
cpu0_DTLB PREFETCH  ACCESS:          0  HIT:          0  MISS:          0
cpu0_DTLB WRITEBACK ACCESS:          0  HIT:          0  MISS:          0
cpu0_ITLB TOTAL     ACCESS:     268306  HIT:     268306  MISS:          0
cpu0_ITLB LOAD      ACCESS:     268306  HIT:     268306  MISS:          0
cpu0_ITLB RFO       ACCESS:          0  HIT:          0  MISS:          0
cpu0_ITLB PREFETCH  ACCESS:          0  HIT:          0  MISS:          0
cpu0_ITLB WRITEBACK ACCESS:          0  HIT:          0  MISS:          0
cpu0_L1I TOTAL     ACCESS:     309493  HIT:     309493  MISS:          0
cpu0_L1I LOAD      ACCESS:     309493  HIT:     309493  MISS:          0
cpu0_L1I RFO       ACCESS:          0  HIT:          0  MISS:          0
cpu0_L1I PREFETCH  ACCESS:          0  HIT:          0  MISS:          0
cpu0_L1I WRITEBACK ACCESS:          0  HIT:          0  MISS:          0
cpu0_STLB TOTAL     ACCESS:      19257  HIT:       8807  MISS:      10450
cpu0_STLB LOAD      ACCESS:       2613  HIT:          0  MISS:       2613
cpu0_STLB RFO       ACCESS:      16644  HIT:       8807  MISS:       7837
cpu0_STLB PREFETCH  ACCESS:          0  HIT:          0  MISS:          0
cpu0_STLB WRITEBACK ACCESS:          0  HIT:          0  MISS:          0
cpu0_L1D TOTAL     ACCESS:    3321912  HIT:    2218791  MISS:    1103121
cpu0_L1D LOAD      ACCESS:     786704  HIT:     619554  MISS:     167150
cpu0_L1D RFO       ACCESS:    2525067  HIT:    1589100  MISS:     935967
cpu0_L1D PREFETCH  ACCESS:          0  HIT:          0  MISS:          0
cpu0_L1D WRITEBACK ACCESS:          0  HIT:          0  MISS:          0
cpu0_L2C TOTAL     ACCESS:    2039083  HIT:    1356671  MISS:     682412
cpu0_L2C LOAD      ACCESS:     167150  HIT:          1  MISS:     167149
cpu0_L2C RFO       ACCESS:     935967  HIT:     420749  MISS:     515218
cpu0_L2C PREFETCH  ACCESS:          0  HIT:          0  MISS:          0
cpu0_L2C WRITEBACK ACCESS:     935962  HIT:     935921  MISS:         41
LLC TOTAL     ACCESS:    1197855  HIT:     529309  MISS:     668546
LLC LOAD      ACCESS:     167149  HIT:         13  MISS:     167136
LLC RFO       ACCESS:     515196  HIT:      13809  MISS:     501387
LLC PREFETCH  ACCESS:          0  HIT:          0  MISS:          0
LLC WRITEBACK ACCESS:     515506  HIT:     515487  MISS:         19
Heartbeat CPU 0 instructions: 66000000 cycles: 88761819 heartbeat IPC: 0.213075 cumulative IPC: 0.211052 (Simulation time: 1 hr 10 min 45 sec) 

Region of Interest Statistics
cpu0_DTLB TOTAL     ACCESS:    2856842  HIT:    2834884  MISS:      21958
cpu0_DTLB LOAD      ACCESS:    1268411  HIT:    1265431  MISS:       2980
cpu0_DTLB RFO       ACCESS:    1588431  HIT:    1569453  MISS:      18978
cpu0_DTLB PREFETCH  ACCESS:          0  HIT:          0  MISS:          0
cpu0_DTLB WRITEBACK ACCESS:          0  HIT:          0  MISS:          0
cpu0_ITLB TOTAL     ACCESS:     305053  HIT:     305053  MISS:          0
cpu0_ITLB LOAD      ACCESS:     305053  HIT:     305053  MISS:          0
cpu0_ITLB RFO       ACCESS:          0  HIT:          0  MISS:          0
cpu0_ITLB PREFETCH  ACCESS:          0  HIT:          0  MISS:          0
cpu0_ITLB WRITEBACK ACCESS:          0  HIT:          0  MISS:          0
cpu0_L1I TOTAL     ACCESS:     353994  HIT:     353994  MISS:          0
cpu0_L1I LOAD      ACCESS:     353994  HIT:     353994  MISS:          0
cpu0_L1I RFO       ACCESS:          0  HIT:          0  MISS:          0
cpu0_L1I PREFETCH  ACCESS:          0  HIT:          0  MISS:          0
cpu0_L1I WRITEBACK ACCESS:          0  HIT:          0  MISS:          0
cpu0_STLB TOTAL     ACCESS:      21958  HIT:      10042  MISS:      11916
cpu0_STLB LOAD      ACCESS:       2980  HIT:          0  MISS:       2980
cpu0_STLB RFO       ACCESS:      18978  HIT:      10042  MISS:       8936
cpu0_STLB PREFETCH  ACCESS:          0  HIT:          0  MISS:          0
cpu0_STLB WRITEBACK ACCESS:          0  HIT:          0  MISS:          0
cpu0_L1D TOTAL     ACCESS:    3794532  HIT:    2536603  MISS:    1257929
cpu0_L1D LOAD      ACCESS:     899210  HIT:     708605  MISS:     190605
cpu0_L1D RFO       ACCESS:    2884076  HIT:    1816756  MISS:    1067320
cpu0_L1D PREFETCH  ACCESS:          0  HIT:          0  MISS:          0
cpu0_L1D WRITEBACK ACCESS:          0  HIT:          0  MISS:          0
cpu0_L2C TOTAL     ACCESS:    2325245  HIT:    1546632  MISS:     778613
cpu0_L2C LOAD      ACCESS:     190605  HIT:          1  MISS:     190604
cpu0_L2C RFO       ACCESS:    1067320  HIT:     479359  MISS:     587961
cpu0_L2C PREFETCH  ACCESS:          0  HIT:          0  MISS:          0
cpu0_L2C WRITEBACK ACCESS:    1067316  HIT:    1067272  MISS:         44
LLC TOTAL     ACCESS:    1366761  HIT:     604391  MISS:     762370
LLC LOAD      ACCESS:     190604  HIT:         13  MISS:     190591
LLC RFO       ACCESS:     587937  HIT:      16183  MISS:     571754
LLC PREFETCH  ACCESS:          0  HIT:          0  MISS:          0
LLC WRITEBACK ACCESS:     588216  HIT:     588195  MISS:         21
Heartbeat CPU 0 instructions: 68000003 cycles: 97878043 heartbeat IPC: 0.219389 cumulative IPC: 0.211947 (Simulation time: 1 hr 16 min 50 sec) 

Region of Interest Statistics
cpu0_DTLB TOTAL     ACCESS:    3207581  HIT:    3182994  MISS:      24587
cpu0_DTLB LOAD      ACCESS:    1425914  HIT:    1422578  MISS:       3336
cpu0_DTLB RFO       ACCESS:    1781667  HIT:    1760416  MISS:      21251
cpu0_DTLB PREFETCH  ACCESS:          0  HIT:          0  MISS:          0
cpu0_DTLB WRITEBACK ACCESS:          0  HIT:          0  MISS:          0
cpu0_ITLB TOTAL     ACCESS:     341019  HIT:     341019  MISS:          0
cpu0_ITLB LOAD      ACCESS:     341019  HIT:     341019  MISS:          0
cpu0_ITLB RFO       ACCESS:          0  HIT:          0  MISS:          0
cpu0_ITLB PREFETCH  ACCESS:          0  HIT:          0  MISS:          0
cpu0_ITLB WRITEBACK ACCESS:          0  HIT:          0  MISS:          0
cpu0_L1I TOTAL     ACCESS:     397381  HIT:     397381  MISS:          0
cpu0_L1I LOAD      ACCESS:     397381  HIT:     397381  MISS:          0
cpu0_L1I RFO       ACCESS:          0  HIT:          0  MISS:          0
cpu0_L1I PREFETCH  ACCESS:          0  HIT:          0  MISS:          0
cpu0_L1I WRITEBACK ACCESS:          0  HIT:          0  MISS:          0
cpu0_STLB TOTAL     ACCESS:      24587  HIT:      11247  MISS:      13340
cpu0_STLB LOAD      ACCESS:       3336  HIT:          0  MISS:       3336
cpu0_STLB RFO       ACCESS:      21251  HIT:      11247  MISS:      10004
cpu0_STLB PREFETCH  ACCESS:          0  HIT:          0  MISS:          0
cpu0_STLB WRITEBACK ACCESS:          0  HIT:          0  MISS:          0
cpu0_L1D TOTAL     ACCESS:    4264119  HIT:    2855705  MISS:    1408414
cpu0_L1D LOAD      ACCESS:    1011856  HIT:     798451  MISS:     213405
cpu0_L1D RFO       ACCESS:    3239883  HIT:    2044879  MISS:    1195004
cpu0_L1D PREFETCH  ACCESS:          0  HIT:          0  MISS:          0
cpu0_L1D WRITEBACK ACCESS:          0  HIT:          0  MISS:          0
cpu0_L2C TOTAL     ACCESS:    2603414  HIT:    1731648  MISS:     871766
cpu0_L2C LOAD      ACCESS:     213405  HIT:          1  MISS:     213404
cpu0_L2C RFO       ACCESS:    1195004  HIT:     536696  MISS:     658308
cpu0_L2C PREFETCH  ACCESS:          0  HIT:          0  MISS:          0
cpu0_L2C WRITEBACK ACCESS:    1195000  HIT:    1194951  MISS:         49
LLC TOTAL     ACCESS:    1530286  HIT:     676716  MISS:     853570
LLC LOAD      ACCESS:     213404  HIT:         13  MISS:     213391
LLC RFO       ACCESS:     658284  HIT:      18132  MISS:     640152
LLC PREFETCH  ACCESS:          0  HIT:          0  MISS:          0
LLC WRITEBACK ACCESS:     658593  HIT:     658571  MISS:         22
Heartbeat CPU 0 instructions: 70000000 cycles: 107203150 heartbeat IPC: 0.214474 cumulative IPC: 0.212197 (Simulation time: 1 hr 23 min 7 sec) 

Region of Interest Statistics
cpu0_DTLB TOTAL     ACCESS:    3562620  HIT:    3535324  MISS:      27296
cpu0_DTLB LOAD      ACCESS:    1584067  HIT:    1580364  MISS:       3703
cpu0_DTLB RFO       ACCESS:    1978553  HIT:    1954960  MISS:      23593
cpu0_DTLB PREFETCH  ACCESS:          0  HIT:          0  MISS:          0
cpu0_DTLB WRITEBACK ACCESS:          0  HIT:          0  MISS:          0
cpu0_ITLB TOTAL     ACCESS:     379687  HIT:     379687  MISS:          0
cpu0_ITLB LOAD      ACCESS:     379687  HIT:     379687  MISS:          0
cpu0_ITLB RFO       ACCESS:          0  HIT:          0  MISS:          0
cpu0_ITLB PREFETCH  ACCESS:          0  HIT:          0  MISS:          0
cpu0_ITLB WRITEBACK ACCESS:          0  HIT:          0  MISS:          0
cpu0_L1I TOTAL     ACCESS:     439796  HIT:     439796  MISS:          0
cpu0_L1I LOAD      ACCESS:     439796  HIT:     439796  MISS:          0
cpu0_L1I RFO       ACCESS:          0  HIT:          0  MISS:          0
cpu0_L1I PREFETCH  ACCESS:          0  HIT:          0  MISS:          0
cpu0_L1I WRITEBACK ACCESS:          0  HIT:          0  MISS:          0
cpu0_STLB TOTAL     ACCESS:      27296  HIT:      12486  MISS:      14810
cpu0_STLB LOAD      ACCESS:       3703  HIT:          0  MISS:       3703
cpu0_STLB RFO       ACCESS:      23593  HIT:      12486  MISS:      11107
cpu0_STLB PREFETCH  ACCESS:          0  HIT:          0  MISS:          0
cpu0_STLB WRITEBACK ACCESS:          0  HIT:          0  MISS:          0
cpu0_L1D TOTAL     ACCESS:    4736859  HIT:    3173288  MISS:    1563571
cpu0_L1D LOAD      ACCESS:    1124402  HIT:     887489  MISS:     236913
cpu0_L1D RFO       ACCESS:    3598607  HIT:    2271955  MISS:    1326652
cpu0_L1D PREFETCH  ACCESS:          0  HIT:          0  MISS:          0
cpu0_L1D WRITEBACK ACCESS:          0  HIT:          0  MISS:          0
cpu0_L2C TOTAL     ACCESS:    2890219  HIT:    1921775  MISS:     968444
cpu0_L2C LOAD      ACCESS:     236913  HIT:          1  MISS:     236912
cpu0_L2C RFO       ACCESS:    1326652  HIT:     595175  MISS:     731477
cpu0_L2C PREFETCH  ACCESS:          0  HIT:          0  MISS:          0
cpu0_L2C WRITEBACK ACCESS:    1326648  HIT:    1326599  MISS:         49
LLC TOTAL     ACCESS:    1699999  HIT:     752392  MISS:     947607
LLC LOAD      ACCESS:     236912  HIT:         13  MISS:     236899
LLC RFO       ACCESS:     731449  HIT:      20773  MISS:     710676
LLC PREFETCH  ACCESS:          0  HIT:          0  MISS:          0
LLC WRITEBACK ACCESS:     731632  HIT:     731606  MISS:         26
Heartbeat CPU 0 instructions: 72000003 cycles: 116630269 heartbeat IPC: 0.212154 cumulative IPC: 0.212193 (Simulation time: 1 hr 29 min 33 sec) 

Region of Interest Statistics
cpu0_DTLB TOTAL     ACCESS:    3920029  HIT:    3889987  MISS:      30042
cpu0_DTLB LOAD      ACCESS:    1742866  HIT:    1738789  MISS:       4077
cpu0_DTLB RFO       ACCESS:    2177163  HIT:    2151198  MISS:      25965
cpu0_DTLB PREFETCH  ACCESS:          0  HIT:          0  MISS:          0
cpu0_DTLB WRITEBACK ACCESS:          0  HIT:          0  MISS:          0
cpu0_ITLB TOTAL     ACCESS:     417220  HIT:     417220  MISS:          0
cpu0_ITLB LOAD      ACCESS:     417220  HIT:     417220  MISS:          0
cpu0_ITLB RFO       ACCESS:          0  HIT:          0  MISS:          0
cpu0_ITLB PREFETCH  ACCESS:          0  HIT:          0  MISS:          0
cpu0_ITLB WRITEBACK ACCESS:          0  HIT:          0  MISS:          0
cpu0_L1I TOTAL     ACCESS:     485562  HIT:     485562  MISS:          0
cpu0_L1I LOAD      ACCESS:     485562  HIT:     485562  MISS:          0
cpu0_L1I RFO       ACCESS:          0  HIT:          0  MISS:          0
cpu0_L1I PREFETCH  ACCESS:          0  HIT:          0  MISS:          0
cpu0_L1I WRITEBACK ACCESS:          0  HIT:          0  MISS:          0
cpu0_STLB TOTAL     ACCESS:      30042  HIT:      13740  MISS:      16302
cpu0_STLB LOAD      ACCESS:       4077  HIT:          0  MISS:       4077
cpu0_STLB RFO       ACCESS:      25965  HIT:      13740  MISS:      12225
cpu0_STLB PREFETCH  ACCESS:          0  HIT:          0  MISS:          0
cpu0_STLB WRITEBACK ACCESS:          0  HIT:          0  MISS:          0
cpu0_L1D TOTAL     ACCESS:    5210995  HIT:    3489995  MISS:    1721000
cpu0_L1D LOAD      ACCESS:    1236621  HIT:     975851  MISS:     260770
cpu0_L1D RFO       ACCESS:    3959032  HIT:    2498810  MISS:    1460222
cpu0_L1D PREFETCH  ACCESS:          0  HIT:          0  MISS:          0
cpu0_L1D WRITEBACK ACCESS:          0  HIT:          0  MISS:          0
cpu0_L2C TOTAL     ACCESS:    3181222  HIT:    2114934  MISS:    1066288
cpu0_L2C LOAD      ACCESS:     260770  HIT:          2  MISS:     260768
cpu0_L2C RFO       ACCESS:    1460222  HIT:     654770  MISS:     805452
cpu0_L2C PREFETCH  ACCESS:          0  HIT:          0  MISS:          0
cpu0_L2C WRITEBACK ACCESS:    1460222  HIT:    1460162  MISS:         60
LLC TOTAL     ACCESS:    1871959  HIT:     828941  MISS:    1043018
LLC LOAD      ACCESS:     260768  HIT:         16  MISS:     260752
LLC RFO       ACCESS:     805423  HIT:      23197  MISS:     782226
LLC PREFETCH  ACCESS:          0  HIT:          0  MISS:          0
LLC WRITEBACK ACCESS:     805760  HIT:     805728  MISS:         32
Heartbeat CPU 0 instructions: 74000000 cycles: 126593428 heartbeat IPC: 0.200739 cumulative IPC: 0.211189 (Simulation time: 1 hr 36 min 29 sec) 

Region of Interest Statistics
cpu0_DTLB TOTAL     ACCESS:    4284457  HIT:    4251532  MISS:      32925
cpu0_DTLB LOAD      ACCESS:    1902733  HIT:    1898265  MISS:       4468
cpu0_DTLB RFO       ACCESS:    2381724  HIT:    2353267  MISS:      28457
cpu0_DTLB PREFETCH  ACCESS:          0  HIT:          0  MISS:          0
cpu0_DTLB WRITEBACK ACCESS:          0  HIT:          0  MISS:          0
cpu0_ITLB TOTAL     ACCESS:     457381  HIT:     457381  MISS:          0
cpu0_ITLB LOAD      ACCESS:     457381  HIT:     457381  MISS:          0
cpu0_ITLB RFO       ACCESS:          0  HIT:          0  MISS:          0
cpu0_ITLB PREFETCH  ACCESS:          0  HIT:          0  MISS:          0
cpu0_ITLB WRITEBACK ACCESS:          0  HIT:          0  MISS:          0
cpu0_L1I TOTAL     ACCESS:     530901  HIT:     530901  MISS:          0
cpu0_L1I LOAD      ACCESS:     530901  HIT:     530901  MISS:          0
cpu0_L1I RFO       ACCESS:          0  HIT:          0  MISS:          0
cpu0_L1I PREFETCH  ACCESS:          0  HIT:          0  MISS:          0
cpu0_L1I WRITEBACK ACCESS:          0  HIT:          0  MISS:          0
cpu0_STLB TOTAL     ACCESS:      32925  HIT:      15059  MISS:      17866
cpu0_STLB LOAD      ACCESS:       4468  HIT:          0  MISS:       4468
cpu0_STLB RFO       ACCESS:      28457  HIT:      15059  MISS:      13398
cpu0_STLB PREFETCH  ACCESS:          0  HIT:          0  MISS:          0
cpu0_STLB WRITEBACK ACCESS:          0  HIT:          0  MISS:          0
cpu0_L1D TOTAL     ACCESS:    5691408  HIT:    3805271  MISS:    1886137
cpu0_L1D LOAD      ACCESS:    1348884  HIT:    1063087  MISS:     285797
cpu0_L1D RFO       ACCESS:    4325618  HIT:    2725286  MISS:    1600332
cpu0_L1D PREFETCH  ACCESS:          0  HIT:          0  MISS:          0
cpu0_L1D WRITEBACK ACCESS:          0  HIT:          0  MISS:          0
cpu0_L2C TOTAL     ACCESS:    3486470  HIT:    2318287  MISS:    1168183
cpu0_L2C LOAD      ACCESS:     285797  HIT:          2  MISS:     285795
cpu0_L2C RFO       ACCESS:    1600332  HIT:     718012  MISS:     882320
cpu0_L2C PREFETCH  ACCESS:          0  HIT:          0  MISS:          0
cpu0_L2C WRITEBACK ACCESS:    1600333  HIT:    1600273  MISS:         60
LLC TOTAL     ACCESS:    2050522  HIT:     907424  MISS:    1143098
LLC LOAD      ACCESS:     285795  HIT:         16  MISS:     285779
LLC RFO       ACCESS:     882291  HIT:      25012  MISS:     857279
LLC PREFETCH  ACCESS:          0  HIT:          0  MISS:          0
LLC WRITEBACK ACCESS:     882428  HIT:     882396  MISS:         32
Heartbeat CPU 0 instructions: 76000003 cycles: 135554166 heartbeat IPC: 0.223196 cumulative IPC: 0.212066 (Simulation time: 1 hr 42 min 37 sec) 

Region of Interest Statistics
cpu0_DTLB TOTAL     ACCESS:    4634087  HIT:    4598559  MISS:      35528
cpu0_DTLB LOAD      ACCESS:    2060237  HIT:    2055416  MISS:       4821
cpu0_DTLB RFO       ACCESS:    2573850  HIT:    2543143  MISS:      30707
cpu0_DTLB PREFETCH  ACCESS:          0  HIT:          0  MISS:          0
cpu0_DTLB WRITEBACK ACCESS:          0  HIT:          0  MISS:          0
cpu0_ITLB TOTAL     ACCESS:     493108  HIT:     493108  MISS:          0
cpu0_ITLB LOAD      ACCESS:     493108  HIT:     493108  MISS:          0
cpu0_ITLB RFO       ACCESS:          0  HIT:          0  MISS:          0
cpu0_ITLB PREFETCH  ACCESS:          0  HIT:          0  MISS:          0
cpu0_ITLB WRITEBACK ACCESS:          0  HIT:          0  MISS:          0
cpu0_L1I TOTAL     ACCESS:     573977  HIT:     573977  MISS:          0
cpu0_L1I LOAD      ACCESS:     573977  HIT:     573977  MISS:          0
cpu0_L1I RFO       ACCESS:          0  HIT:          0  MISS:          0
cpu0_L1I PREFETCH  ACCESS:          0  HIT:          0  MISS:          0
cpu0_L1I WRITEBACK ACCESS:          0  HIT:          0  MISS:          0
cpu0_STLB TOTAL     ACCESS:      35528  HIT:      16250  MISS:      19278
cpu0_STLB LOAD      ACCESS:       4821  HIT:          0  MISS:       4821
cpu0_STLB RFO       ACCESS:      30707  HIT:      16250  MISS:      14457
cpu0_STLB PREFETCH  ACCESS:          0  HIT:          0  MISS:          0
cpu0_STLB WRITEBACK ACCESS:          0  HIT:          0  MISS:          0
cpu0_L1D TOTAL     ACCESS:    6159725  HIT:    4124464  MISS:    2035261
cpu0_L1D LOAD      ACCESS:    1461415  HIT:    1153030  MISS:     308385
cpu0_L1D RFO       ACCESS:    4679992  HIT:    2953124  MISS:    1726868
cpu0_L1D PREFETCH  ACCESS:          0  HIT:          0  MISS:          0
cpu0_L1D WRITEBACK ACCESS:          0  HIT:          0  MISS:          0
cpu0_L2C TOTAL     ACCESS:    3762128  HIT:    2501464  MISS:    1260664
cpu0_L2C LOAD      ACCESS:     308385  HIT:          2  MISS:     308383
cpu0_L2C RFO       ACCESS:    1726868  HIT:     774655  MISS:     952213
cpu0_L2C PREFETCH  ACCESS:          0  HIT:          0  MISS:          0
cpu0_L2C WRITEBACK ACCESS:    1726867  HIT:    1726807  MISS:         60
LLC TOTAL     ACCESS:    2212950  HIT:     979472  MISS:    1233478
LLC LOAD      ACCESS:     308383  HIT:         16  MISS:     308367
LLC RFO       ACCESS:     952183  HIT:      27112  MISS:     925071
LLC PREFETCH  ACCESS:          0  HIT:          0  MISS:          0
LLC WRITEBACK ACCESS:     952376  HIT:     952344  MISS:         32
Heartbeat CPU 0 instructions: 78000001 cycles: 144939656 heartbeat IPC: 0.213095 cumulative IPC: 0.212139 (Simulation time: 1 hr 48 min 57 sec) 

Region of Interest Statistics
cpu0_DTLB TOTAL     ACCESS:    4990324  HIT:    4952061  MISS:      38263
cpu0_DTLB LOAD      ACCESS:    2218483  HIT:    2213291  MISS:       5192
cpu0_DTLB RFO       ACCESS:    2771841  HIT:    2738770  MISS:      33071
cpu0_DTLB PREFETCH  ACCESS:          0  HIT:          0  MISS:          0
cpu0_DTLB WRITEBACK ACCESS:          0  HIT:          0  MISS:          0
cpu0_ITLB TOTAL     ACCESS:     531299  HIT:     531299  MISS:          0
cpu0_ITLB LOAD      ACCESS:     531299  HIT:     531299  MISS:          0
cpu0_ITLB RFO       ACCESS:          0  HIT:          0  MISS:          0
cpu0_ITLB PREFETCH  ACCESS:          0  HIT:          0  MISS:          0
cpu0_ITLB WRITEBACK ACCESS:          0  HIT:          0  MISS:          0
cpu0_L1I TOTAL     ACCESS:     617808  HIT:     617808  MISS:          0
cpu0_L1I LOAD      ACCESS:     617808  HIT:     617808  MISS:          0
cpu0_L1I RFO       ACCESS:          0  HIT:          0  MISS:          0
cpu0_L1I PREFETCH  ACCESS:          0  HIT:          0  MISS:          0
cpu0_L1I WRITEBACK ACCESS:          0  HIT:          0  MISS:          0
cpu0_STLB TOTAL     ACCESS:      38263  HIT:      17501  MISS:      20762
cpu0_STLB LOAD      ACCESS:       5192  HIT:          0  MISS:       5192
cpu0_STLB RFO       ACCESS:      33071  HIT:      17501  MISS:      15570
cpu0_STLB PREFETCH  ACCESS:          0  HIT:          0  MISS:          0
cpu0_STLB WRITEBACK ACCESS:          0  HIT:          0  MISS:          0
cpu0_L1D TOTAL     ACCESS:    6633238  HIT:    4441355  MISS:    2191883
cpu0_L1D LOAD      ACCESS:    1573656  HIT:    1241539  MISS:     332117
cpu0_L1D RFO       ACCESS:    5039780  HIT:    3180022  MISS:    1859758
cpu0_L1D PREFETCH  ACCESS:          0  HIT:          0  MISS:          0
cpu0_L1D WRITEBACK ACCESS:          0  HIT:          0  MISS:          0
cpu0_L2C TOTAL     ACCESS:    4051639  HIT:    2693670  MISS:    1357969
cpu0_L2C LOAD      ACCESS:     332117  HIT:          2  MISS:     332115
cpu0_L2C RFO       ACCESS:    1859758  HIT:     833976  MISS:    1025782
cpu0_L2C PREFETCH  ACCESS:          0  HIT:          0  MISS:          0
cpu0_L2C WRITEBACK ACCESS:    1859756  HIT:    1859692  MISS:         64
LLC TOTAL     ACCESS:    2383883  HIT:    1055479  MISS:    1328404
LLC LOAD      ACCESS:     332115  HIT:         16  MISS:     332099
LLC RFO       ACCESS:    1025750  HIT:      29489  MISS:     996261
LLC PREFETCH  ACCESS:          0  HIT:          0  MISS:          0
LLC WRITEBACK ACCESS:    1026010  HIT:    1025974  MISS:         36
Heartbeat CPU 0 instructions: 80000000 cycles: 154144893 heartbeat IPC: 0.217268 cumulative IPC: 0.212474 (Simulation time: 1 hr 55 min 14 sec) 

Region of Interest Statistics
cpu0_DTLB TOTAL     ACCESS:    5342569  HIT:    5301665  MISS:      40904
cpu0_DTLB LOAD      ACCESS:    2376807  HIT:    2371256  MISS:       5551
cpu0_DTLB RFO       ACCESS:    2965762  HIT:    2930409  MISS:      35353
cpu0_DTLB PREFETCH  ACCESS:          0  HIT:          0  MISS:          0
cpu0_DTLB WRITEBACK ACCESS:          0  HIT:          0  MISS:          0
cpu0_ITLB TOTAL     ACCESS:     566162  HIT:     566162  MISS:          0
cpu0_ITLB LOAD      ACCESS:     566162  HIT:     566162  MISS:          0
cpu0_ITLB RFO       ACCESS:          0  HIT:          0  MISS:          0
cpu0_ITLB PREFETCH  ACCESS:          0  HIT:          0  MISS:          0
cpu0_ITLB WRITEBACK ACCESS:          0  HIT:          0  MISS:          0
cpu0_L1I TOTAL     ACCESS:     663670  HIT:     663670  MISS:          0
cpu0_L1I LOAD      ACCESS:     663670  HIT:     663670  MISS:          0
cpu0_L1I RFO       ACCESS:          0  HIT:          0  MISS:          0
cpu0_L1I PREFETCH  ACCESS:          0  HIT:          0  MISS:          0
cpu0_L1I WRITEBACK ACCESS:          0  HIT:          0  MISS:          0
cpu0_STLB TOTAL     ACCESS:      40904  HIT:      18708  MISS:      22196
cpu0_STLB LOAD      ACCESS:       5551  HIT:          0  MISS:       5551
cpu0_STLB RFO       ACCESS:      35353  HIT:      18708  MISS:      16645
cpu0_STLB PREFETCH  ACCESS:          0  HIT:          0  MISS:          0
cpu0_STLB WRITEBACK ACCESS:          0  HIT:          0  MISS:          0
cpu0_L1D TOTAL     ACCESS:    7103494  HIT:    4760222  MISS:    2343272
cpu0_L1D LOAD      ACCESS:    1686144  HIT:    1331086  MISS:     355058
cpu0_L1D RFO       ACCESS:    5396114  HIT:    3407910  MISS:    1988204
cpu0_L1D PREFETCH  ACCESS:          0  HIT:          0  MISS:          0
cpu0_L1D WRITEBACK ACCESS:          0  HIT:          0  MISS:          0
cpu0_L2C TOTAL     ACCESS:    4331475  HIT:    2879533  MISS:    1451942
cpu0_L2C LOAD      ACCESS:     355058  HIT:          2  MISS:     355056
cpu0_L2C RFO       ACCESS:    1988204  HIT:     891404  MISS:    1096800
cpu0_L2C PREFETCH  ACCESS:          0  HIT:          0  MISS:          0
cpu0_L2C WRITEBACK ACCESS:    1988203  HIT:    1988127  MISS:         76
LLC TOTAL     ACCESS:    2548995  HIT:    1128848  MISS:    1420147
LLC LOAD      ACCESS:     355056  HIT:         21  MISS:     355035
LLC RFO       ACCESS:    1096761  HIT:      31697  MISS:    1065064
LLC PREFETCH  ACCESS:          0  HIT:          0  MISS:          0
LLC WRITEBACK ACCESS:    1097168  HIT:    1097130  MISS:         38
Heartbeat CPU 0 instructions: 82000001 cycles: 164176694 heartbeat IPC: 0.199366 cumulative IPC: 0.211604 (Simulation time: 2 hr 2 min 2 sec) 

Region of Interest Statistics
cpu0_DTLB TOTAL     ACCESS:    5709738  HIT:    5665907  MISS:      43831
cpu0_DTLB LOAD      ACCESS:    2537263  HIT:    2531315  MISS:       5948
cpu0_DTLB RFO       ACCESS:    3172475  HIT:    3134592  MISS:      37883
cpu0_DTLB PREFETCH  ACCESS:          0  HIT:          0  MISS:          0
cpu0_DTLB WRITEBACK ACCESS:          0  HIT:          0  MISS:          0
cpu0_ITLB TOTAL     ACCESS:     606928  HIT:     606928  MISS:          0
cpu0_ITLB LOAD      ACCESS:     606928  HIT:     606928  MISS:          0
cpu0_ITLB RFO       ACCESS:          0  HIT:          0  MISS:          0
cpu0_ITLB PREFETCH  ACCESS:          0  HIT:          0  MISS:          0
cpu0_ITLB WRITEBACK ACCESS:          0  HIT:          0  MISS:          0
cpu0_L1I TOTAL     ACCESS:     709660  HIT:     709660  MISS:          0
cpu0_L1I LOAD      ACCESS:     709660  HIT:     709660  MISS:          0
cpu0_L1I RFO       ACCESS:          0  HIT:          0  MISS:          0
cpu0_L1I PREFETCH  ACCESS:          0  HIT:          0  MISS:          0
cpu0_L1I WRITEBACK ACCESS:          0  HIT:          0  MISS:          0
cpu0_STLB TOTAL     ACCESS:      43831  HIT:      20047  MISS:      23784
cpu0_STLB LOAD      ACCESS:       5948  HIT:          0  MISS:       5948
cpu0_STLB RFO       ACCESS:      37883  HIT:      20047  MISS:      17836
cpu0_STLB PREFETCH  ACCESS:          0  HIT:          0  MISS:          0
cpu0_STLB WRITEBACK ACCESS:          0  HIT:          0  MISS:          0
cpu0_L1D TOTAL     ACCESS:    7584950  HIT:    5074078  MISS:    2510872
cpu0_L1D LOAD      ACCESS:    1798303  HIT:    1417850  MISS:     380453
cpu0_L1D RFO       ACCESS:    5763823  HIT:    3633414  MISS:    2130409
cpu0_L1D PREFETCH  ACCESS:          0  HIT:          0  MISS:          0
cpu0_L1D WRITEBACK ACCESS:          0  HIT:          0  MISS:          0
cpu0_L2C TOTAL     ACCESS:    4641276  HIT:    3085081  MISS:    1556195
cpu0_L2C LOAD      ACCESS:     380453  HIT:          2  MISS:     380451
cpu0_L2C RFO       ACCESS:    2130409  HIT:     954755  MISS:    1175654
cpu0_L2C PREFETCH  ACCESS:          0  HIT:          0  MISS:          0
cpu0_L2C WRITEBACK ACCESS:    2130404  HIT:    2130324  MISS:         80
LLC TOTAL     ACCESS:    2732077  HIT:    1210360  MISS:    1521717
LLC LOAD      ACCESS:     380451  HIT:         24  MISS:     380427
LLC RFO       ACCESS:    1175614  HIT:      34372  MISS:    1141242
LLC PREFETCH  ACCESS:          0  HIT:          0  MISS:          0
LLC WRITEBACK ACCESS:    1176002  HIT:    1175964  MISS:         38
Heartbeat CPU 0 instructions: 84000001 cycles: 173466442 heartbeat IPC: 0.215291 cumulative IPC: 0.211818 (Simulation time: 2 hr 8 min 21 sec) 

Region of Interest Statistics
cpu0_DTLB TOTAL     ACCESS:    6064618  HIT:    6018081  MISS:      46537
cpu0_DTLB LOAD      ACCESS:    2695530  HIT:    2689215  MISS:       6315
cpu0_DTLB RFO       ACCESS:    3369088  HIT:    3328866  MISS:      40222
cpu0_DTLB PREFETCH  ACCESS:          0  HIT:          0  MISS:          0
cpu0_DTLB WRITEBACK ACCESS:          0  HIT:          0  MISS:          0
cpu0_ITLB TOTAL     ACCESS:     644287  HIT:     644287  MISS:          0
cpu0_ITLB LOAD      ACCESS:     644287  HIT:     644287  MISS:          0
cpu0_ITLB RFO       ACCESS:          0  HIT:          0  MISS:          0
cpu0_ITLB PREFETCH  ACCESS:          0  HIT:          0  MISS:          0
cpu0_ITLB WRITEBACK ACCESS:          0  HIT:          0  MISS:          0
cpu0_L1I TOTAL     ACCESS:     753239  HIT:     753239  MISS:          0
cpu0_L1I LOAD      ACCESS:     753239  HIT:     753239  MISS:          0
cpu0_L1I RFO       ACCESS:          0  HIT:          0  MISS:          0
cpu0_L1I PREFETCH  ACCESS:          0  HIT:          0  MISS:          0
cpu0_L1I WRITEBACK ACCESS:          0  HIT:          0  MISS:          0
cpu0_STLB TOTAL     ACCESS:      46537  HIT:      21285  MISS:      25252
cpu0_STLB LOAD      ACCESS:       6315  HIT:          0  MISS:       6315
cpu0_STLB RFO       ACCESS:      40222  HIT:      21285  MISS:      18937
cpu0_STLB PREFETCH  ACCESS:          0  HIT:          0  MISS:          0
cpu0_STLB WRITEBACK ACCESS:          0  HIT:          0  MISS:          0
cpu0_L1D TOTAL     ACCESS:    8057691  HIT:    5391852  MISS:    2665839
cpu0_L1D LOAD      ACCESS:    1910898  HIT:    1506965  MISS:     403933
cpu0_L1D RFO       ACCESS:    6122501  HIT:    3860605  MISS:    2261896
cpu0_L1D PREFETCH  ACCESS:          0  HIT:          0  MISS:          0
cpu0_L1D WRITEBACK ACCESS:          0  HIT:          0  MISS:          0
cpu0_L2C TOTAL     ACCESS:    4927730  HIT:    3275271  MISS:    1652459
cpu0_L2C LOAD      ACCESS:     403933  HIT:          2  MISS:     403931
cpu0_L2C RFO       ACCESS:    2261896  HIT:    1013460  MISS:    1248436
cpu0_L2C PREFETCH  ACCESS:          0  HIT:          0  MISS:          0
cpu0_L2C WRITEBACK ACCESS:    2261891  HIT:    2261809  MISS:         82
LLC TOTAL     ACCESS:    2900978  HIT:    1285341  MISS:    1615637
LLC LOAD      ACCESS:     403931  HIT:         24  MISS:     403907
LLC RFO       ACCESS:    1248395  HIT:      36713  MISS:    1211682
LLC PREFETCH  ACCESS:          0  HIT:          0  MISS:          0
LLC WRITEBACK ACCESS:    1248642  HIT:    1248604  MISS:         38
Heartbeat CPU 0 instructions: 86000003 cycles: 182801217 heartbeat IPC: 0.214253 cumulative IPC: 0.211951 (Simulation time: 2 hr 14 min 41 sec) 

Region of Interest Statistics
cpu0_DTLB TOTAL     ACCESS:    6420452  HIT:    6371199  MISS:      49253
cpu0_DTLB LOAD      ACCESS:    2854067  HIT:    2847384  MISS:       6683
cpu0_DTLB RFO       ACCESS:    3566385  HIT:    3523815  MISS:      42570
cpu0_DTLB PREFETCH  ACCESS:          0  HIT:          0  MISS:          0
cpu0_DTLB WRITEBACK ACCESS:          0  HIT:          0  MISS:          0
cpu0_ITLB TOTAL     ACCESS:     682103  HIT:     682103  MISS:          0
cpu0_ITLB LOAD      ACCESS:     682103  HIT:     682103  MISS:          0
cpu0_ITLB RFO       ACCESS:          0  HIT:          0  MISS:          0
cpu0_ITLB PREFETCH  ACCESS:          0  HIT:          0  MISS:          0
cpu0_ITLB WRITEBACK ACCESS:          0  HIT:          0  MISS:          0
cpu0_L1I TOTAL     ACCESS:     797002  HIT:     797002  MISS:          0
cpu0_L1I LOAD      ACCESS:     797002  HIT:     797002  MISS:          0
cpu0_L1I RFO       ACCESS:          0  HIT:          0  MISS:          0
cpu0_L1I PREFETCH  ACCESS:          0  HIT:          0  MISS:          0
cpu0_L1I WRITEBACK ACCESS:          0  HIT:          0  MISS:          0
cpu0_STLB TOTAL     ACCESS:      49253  HIT:      22529  MISS:      26724
cpu0_STLB LOAD      ACCESS:       6683  HIT:          0  MISS:       6683
cpu0_STLB RFO       ACCESS:      42570  HIT:      22529  MISS:      20041
cpu0_STLB PREFETCH  ACCESS:          0  HIT:          0  MISS:          0
cpu0_STLB WRITEBACK ACCESS:          0  HIT:          0  MISS:          0
cpu0_L1D TOTAL     ACCESS:    8530798  HIT:    5709368  MISS:    2821430
cpu0_L1D LOAD      ACCESS:    2023531  HIT:    1596020  MISS:     427511
cpu0_L1D RFO       ACCESS:    6481781  HIT:    4087872  MISS:    2393909
cpu0_L1D PREFETCH  ACCESS:          0  HIT:          0  MISS:          0
cpu0_L1D WRITEBACK ACCESS:          0  HIT:          0  MISS:          0
cpu0_L2C TOTAL     ACCESS:    5215338  HIT:    3466155  MISS:    1749183
cpu0_L2C LOAD      ACCESS:     427511  HIT:          2  MISS:     427509
cpu0_L2C RFO       ACCESS:    2393909  HIT:    1072331  MISS:    1321578
cpu0_L2C PREFETCH  ACCESS:          0  HIT:          0  MISS:          0
cpu0_L2C WRITEBACK ACCESS:    2393908  HIT:    2393822  MISS:         86
LLC TOTAL     ACCESS:    3071122  HIT:    1361189  MISS:    1709933
LLC LOAD      ACCESS:     427509  HIT:         26  MISS:     427483
LLC RFO       ACCESS:    1321525  HIT:      39124  MISS:    1282401
LLC PREFETCH  ACCESS:          0  HIT:          0  MISS:          0
LLC WRITEBACK ACCESS:    1322078  HIT:    1322039  MISS:         39
Heartbeat CPU 0 instructions: 88000003 cycles: 191576280 heartbeat IPC: 0.227919 cumulative IPC: 0.212736 (Simulation time: 2 hr 20 min 47 sec) 

Region of Interest Statistics
cpu0_DTLB TOTAL     ACCESS:    6765528  HIT:    6713773  MISS:      51755
cpu0_DTLB LOAD      ACCESS:    3011357  HIT:    3004333  MISS:       7024
cpu0_DTLB RFO       ACCESS:    3754171  HIT:    3709440  MISS:      44731
cpu0_DTLB PREFETCH  ACCESS:          0  HIT:          0  MISS:          0
cpu0_DTLB WRITEBACK ACCESS:          0  HIT:          0  MISS:          0
cpu0_ITLB TOTAL     ACCESS:     715169  HIT:     715169  MISS:          0
cpu0_ITLB LOAD      ACCESS:     715169  HIT:     715169  MISS:          0
cpu0_ITLB RFO       ACCESS:          0  HIT:          0  MISS:          0
cpu0_ITLB PREFETCH  ACCESS:          0  HIT:          0  MISS:          0
cpu0_ITLB WRITEBACK ACCESS:          0  HIT:          0  MISS:          0
cpu0_L1I TOTAL     ACCESS:     841225  HIT:     841225  MISS:          0
cpu0_L1I LOAD      ACCESS:     841225  HIT:     841225  MISS:          0
cpu0_L1I RFO       ACCESS:          0  HIT:          0  MISS:          0
cpu0_L1I PREFETCH  ACCESS:          0  HIT:          0  MISS:          0
cpu0_L1I WRITEBACK ACCESS:          0  HIT:          0  MISS:          0
cpu0_STLB TOTAL     ACCESS:      51755  HIT:      23669  MISS:      28086
cpu0_STLB LOAD      ACCESS:       7024  HIT:          0  MISS:       7024
cpu0_STLB RFO       ACCESS:      44731  HIT:      23669  MISS:      21062
cpu0_STLB PREFETCH  ACCESS:          0  HIT:          0  MISS:          0
cpu0_STLB WRITEBACK ACCESS:          0  HIT:          0  MISS:          0
cpu0_L1D TOTAL     ACCESS:    8994904  HIT:    6029889  MISS:    2965015
cpu0_L1D LOAD      ACCESS:    2136272  HIT:    1687005  MISS:     449267
cpu0_L1D RFO       ACCESS:    6832118  HIT:    4316382  MISS:    2515736
cpu0_L1D PREFETCH  ACCESS:          0  HIT:          0  MISS:          0
cpu0_L1D WRITEBACK ACCESS:          0  HIT:          0  MISS:          0
cpu0_L2C TOTAL     ACCESS:    5480748  HIT:    3642118  MISS:    1838630
cpu0_L2C LOAD      ACCESS:     449267  HIT:          3  MISS:     449264
cpu0_L2C RFO       ACCESS:    2515736  HIT:    1126477  MISS:    1389259
cpu0_L2C PREFETCH  ACCESS:          0  HIT:          0  MISS:          0
cpu0_L2C WRITEBACK ACCESS:    2515733  HIT:    2515638  MISS:         95
LLC TOTAL     ACCESS:    3227886  HIT:    1430934  MISS:    1796952
LLC LOAD      ACCESS:     449264  HIT:         29  MISS:     449235
LLC RFO       ACCESS:    1389205  HIT:      41546  MISS:    1347659
LLC PREFETCH  ACCESS:          0  HIT:          0  MISS:          0
LLC WRITEBACK ACCESS:    1389405  HIT:    1389359  MISS:         46
Heartbeat CPU 0 instructions: 90000000 cycles: 202083328 heartbeat IPC: 0.190348 cumulative IPC: 0.211492 (Simulation time: 2 hr 27 min 52 sec) 

Region of Interest Statistics
cpu0_DTLB TOTAL     ACCESS:    7139681  HIT:    7084858  MISS:      54823
cpu0_DTLB LOAD      ACCESS:    3172722  HIT:    3165282  MISS:       7440
cpu0_DTLB RFO       ACCESS:    3966959  HIT:    3919576  MISS:      47383
cpu0_DTLB PREFETCH  ACCESS:          0  HIT:          0  MISS:          0
cpu0_DTLB WRITEBACK ACCESS:          0  HIT:          0  MISS:          0
cpu0_ITLB TOTAL     ACCESS:     759066  HIT:     759066  MISS:          0
cpu0_ITLB LOAD      ACCESS:     759066  HIT:     759066  MISS:          0
cpu0_ITLB RFO       ACCESS:          0  HIT:          0  MISS:          0
cpu0_ITLB PREFETCH  ACCESS:          0  HIT:          0  MISS:          0
cpu0_ITLB WRITEBACK ACCESS:          0  HIT:          0  MISS:          0
cpu0_L1I TOTAL     ACCESS:     887800  HIT:     887800  MISS:          0
cpu0_L1I LOAD      ACCESS:     887800  HIT:     887800  MISS:          0
cpu0_L1I RFO       ACCESS:          0  HIT:          0  MISS:          0
cpu0_L1I PREFETCH  ACCESS:          0  HIT:          0  MISS:          0
cpu0_L1I WRITEBACK ACCESS:          0  HIT:          0  MISS:          0
cpu0_STLB TOTAL     ACCESS:      54823  HIT:      25073  MISS:      29750
cpu0_STLB LOAD      ACCESS:       7440  HIT:          0  MISS:       7440
cpu0_STLB RFO       ACCESS:      47383  HIT:      25073  MISS:      22310
cpu0_STLB PREFETCH  ACCESS:          0  HIT:          0  MISS:          0
cpu0_STLB WRITEBACK ACCESS:          0  HIT:          0  MISS:          0
cpu0_L1D TOTAL     ACCESS:    9482417  HIT:    6341786  MISS:    3140631
cpu0_L1D LOAD      ACCESS:    2248276  HIT:    1772392  MISS:     475884
cpu0_L1D RFO       ACCESS:    7206305  HIT:    4541571  MISS:    2664734
cpu0_L1D PREFETCH  ACCESS:          0  HIT:          0  MISS:          0
cpu0_L1D WRITEBACK ACCESS:          0  HIT:          0  MISS:          0
cpu0_L2C TOTAL     ACCESS:    5805366  HIT:    3858219  MISS:    1947147
cpu0_L2C LOAD      ACCESS:     475884  HIT:          3  MISS:     475881
cpu0_L2C RFO       ACCESS:    2664734  HIT:    1193582  MISS:    1471152
cpu0_L2C PREFETCH  ACCESS:          0  HIT:          0  MISS:          0
cpu0_L2C WRITEBACK ACCESS:    2664735  HIT:    2664634  MISS:        101
LLC TOTAL     ACCESS:    3418398  HIT:    1515012  MISS:    1903386
LLC LOAD      ACCESS:     475881  HIT:         32  MISS:     475849
LLC RFO       ACCESS:    1471098  HIT:      43624  MISS:    1427474
LLC PREFETCH  ACCESS:          0  HIT:          0  MISS:          0
LLC WRITEBACK ACCESS:    1471406  HIT:    1471356  MISS:         50
Heartbeat CPU 0 instructions: 92000001 cycles: 211539891 heartbeat IPC: 0.211493 cumulative IPC: 0.211492 (Simulation time: 2 hr 34 min 27 sec) 

Region of Interest Statistics
cpu0_DTLB TOTAL     ACCESS:    7497280  HIT:    7439700  MISS:      57580
cpu0_DTLB LOAD      ACCESS:    3331362  HIT:    3323548  MISS:       7814
cpu0_DTLB RFO       ACCESS:    4165918  HIT:    4116152  MISS:      49766
cpu0_DTLB PREFETCH  ACCESS:          0  HIT:          0  MISS:          0
cpu0_DTLB WRITEBACK ACCESS:          0  HIT:          0  MISS:          0
cpu0_ITLB TOTAL     ACCESS:     797469  HIT:     797469  MISS:          0
cpu0_ITLB LOAD      ACCESS:     797469  HIT:     797469  MISS:          0
cpu0_ITLB RFO       ACCESS:          0  HIT:          0  MISS:          0
cpu0_ITLB PREFETCH  ACCESS:          0  HIT:          0  MISS:          0
cpu0_ITLB WRITEBACK ACCESS:          0  HIT:          0  MISS:          0
cpu0_L1I TOTAL     ACCESS:     931582  HIT:     931582  MISS:          0
cpu0_L1I LOAD      ACCESS:     931582  HIT:     931582  MISS:          0
cpu0_L1I RFO       ACCESS:          0  HIT:          0  MISS:          0
cpu0_L1I PREFETCH  ACCESS:          0  HIT:          0  MISS:          0
cpu0_L1I WRITEBACK ACCESS:          0  HIT:          0  MISS:          0
cpu0_STLB TOTAL     ACCESS:      57580  HIT:      26335  MISS:      31245
cpu0_STLB LOAD      ACCESS:       7814  HIT:          0  MISS:       7814
cpu0_STLB RFO       ACCESS:      49766  HIT:      26335  MISS:      23431
cpu0_STLB PREFETCH  ACCESS:          0  HIT:          0  MISS:          0
cpu0_STLB WRITEBACK ACCESS:          0  HIT:          0  MISS:          0
cpu0_L1D TOTAL     ACCESS:    9957537  HIT:    6658924  MISS:    3298613
cpu0_L1D LOAD      ACCESS:    2360718  HIT:    1860903  MISS:     499815
cpu0_L1D RFO       ACCESS:    7567488  HIT:    4768704  MISS:    2798784
cpu0_L1D PREFETCH  ACCESS:          0  HIT:          0  MISS:          0
cpu0_L1D WRITEBACK ACCESS:          0  HIT:          0  MISS:          0
cpu0_L2C TOTAL     ACCESS:    6097394  HIT:    4052305  MISS:    2045089
cpu0_L2C LOAD      ACCESS:     499815  HIT:          3  MISS:     499812
cpu0_L2C RFO       ACCESS:    2798784  HIT:    1253627  MISS:    1545157
cpu0_L2C PREFETCH  ACCESS:          0  HIT:          0  MISS:          0
cpu0_L2C WRITEBACK ACCESS:    2798781  HIT:    2798675  MISS:        106
LLC TOTAL     ACCESS:    3590234  HIT:    1591099  MISS:    1999135
LLC LOAD      ACCESS:     499812  HIT:         32  MISS:     499780
LLC RFO       ACCESS:    1545100  HIT:      45814  MISS:    1499286
LLC PREFETCH  ACCESS:          0  HIT:          0  MISS:          0
LLC WRITEBACK ACCESS:    1545308  HIT:    1545253  MISS:         55
Heartbeat CPU 0 instructions: 94000000 cycles: 221307457 heartbeat IPC: 0.204759 cumulative IPC: 0.211177 (Simulation time: 2 hr 41 min 5 sec) 

Region of Interest Statistics
cpu0_DTLB TOTAL     ACCESS:    7859679  HIT:    7799271  MISS:      60408
cpu0_DTLB LOAD      ACCESS:    3491369  HIT:    3483172  MISS:       8197
cpu0_DTLB RFO       ACCESS:    4368310  HIT:    4316099  MISS:      52211
cpu0_DTLB PREFETCH  ACCESS:          0  HIT:          0  MISS:          0
cpu0_DTLB WRITEBACK ACCESS:          0  HIT:          0  MISS:          0
cpu0_ITLB TOTAL     ACCESS:     836938  HIT:     836938  MISS:          0
cpu0_ITLB LOAD      ACCESS:     836938  HIT:     836938  MISS:          0
cpu0_ITLB RFO       ACCESS:          0  HIT:          0  MISS:          0
cpu0_ITLB PREFETCH  ACCESS:          0  HIT:          0  MISS:          0
cpu0_ITLB WRITEBACK ACCESS:          0  HIT:          0  MISS:          0
cpu0_L1I TOTAL     ACCESS:     976342  HIT:     976342  MISS:          0
cpu0_L1I LOAD      ACCESS:     976342  HIT:     976342  MISS:          0
cpu0_L1I RFO       ACCESS:          0  HIT:          0  MISS:          0
cpu0_L1I PREFETCH  ACCESS:          0  HIT:          0  MISS:          0
cpu0_L1I WRITEBACK ACCESS:          0  HIT:          0  MISS:          0
cpu0_STLB TOTAL     ACCESS:      60408  HIT:      27630  MISS:      32778
cpu0_STLB LOAD      ACCESS:       8197  HIT:          0  MISS:       8197
cpu0_STLB RFO       ACCESS:      52211  HIT:      27630  MISS:      24581
cpu0_STLB PREFETCH  ACCESS:          0  HIT:          0  MISS:          0
cpu0_STLB WRITEBACK ACCESS:          0  HIT:          0  MISS:          0
cpu0_L1D TOTAL     ACCESS:   10435783  HIT:    6975172  MISS:    3460611
cpu0_L1D LOAD      ACCESS:    2473369  HIT:    1949009  MISS:     524360
cpu0_L1D RFO       ACCESS:    7931550  HIT:    4995313  MISS:    2936237
cpu0_L1D PREFETCH  ACCESS:          0  HIT:          0  MISS:          0
cpu0_L1D WRITEBACK ACCESS:          0  HIT:          0  MISS:          0
cpu0_L2C TOTAL     ACCESS:    6396848  HIT:    4250912  MISS:    2145936
cpu0_L2C LOAD      ACCESS:     524360  HIT:          3  MISS:     524357
cpu0_L2C RFO       ACCESS:    2936237  HIT:    1314779  MISS:    1621458
cpu0_L2C PREFETCH  ACCESS:          0  HIT:          0  MISS:          0
cpu0_L2C WRITEBACK ACCESS:    2936237  HIT:    2936130  MISS:        107
LLC TOTAL     ACCESS:    3767688  HIT:    1670373  MISS:    2097315
LLC LOAD      ACCESS:     524357  HIT:         32  MISS:     524325
LLC RFO       ACCESS:    1621400  HIT:      48479  MISS:    1572921
LLC PREFETCH  ACCESS:          0  HIT:          0  MISS:          0
LLC WRITEBACK ACCESS:    1621917  HIT:    1621862  MISS:         55
Heartbeat CPU 0 instructions: 96000002 cycles: 229722125 heartbeat IPC: 0.23768 cumulative IPC: 0.212205 (Simulation time: 2 hr 46 min 41 sec) 

Region of Interest Statistics
cpu0_DTLB TOTAL     ACCESS:    8198558  HIT:    8135748  MISS:      62810
cpu0_DTLB LOAD      ACCESS:    3647229  HIT:    3638705  MISS:       8524
cpu0_DTLB RFO       ACCESS:    4551329  HIT:    4497043  MISS:      54286
cpu0_DTLB PREFETCH  ACCESS:          0  HIT:          0  MISS:          0
cpu0_DTLB WRITEBACK ACCESS:          0  HIT:          0  MISS:          0
cpu0_ITLB TOTAL     ACCESS:     867981  HIT:     867981  MISS:          0
cpu0_ITLB LOAD      ACCESS:     867981  HIT:     867981  MISS:          0
cpu0_ITLB RFO       ACCESS:          0  HIT:          0  MISS:          0
cpu0_ITLB PREFETCH  ACCESS:          0  HIT:          0  MISS:          0
cpu0_ITLB WRITEBACK ACCESS:          0  HIT:          0  MISS:          0
cpu0_L1I TOTAL     ACCESS:    1019865  HIT:    1019865  MISS:          0
cpu0_L1I LOAD      ACCESS:    1019865  HIT:    1019865  MISS:          0
cpu0_L1I RFO       ACCESS:          0  HIT:          0  MISS:          0
cpu0_L1I PREFETCH  ACCESS:          0  HIT:          0  MISS:          0
cpu0_L1I WRITEBACK ACCESS:          0  HIT:          0  MISS:          0
cpu0_STLB TOTAL     ACCESS:      62810  HIT:      28726  MISS:      34084
cpu0_STLB LOAD      ACCESS:       8524  HIT:          0  MISS:       8524
cpu0_STLB RFO       ACCESS:      54286  HIT:      28726  MISS:      25560
cpu0_STLB PREFETCH  ACCESS:          0  HIT:          0  MISS:          0
cpu0_STLB WRITEBACK ACCESS:          0  HIT:          0  MISS:          0
cpu0_L1D TOTAL     ACCESS:   10896176  HIT:    7298054  MISS:    3598122
cpu0_L1D LOAD      ACCESS:    2586313  HIT:    2041117  MISS:     545196
cpu0_L1D RFO       ACCESS:    8277693  HIT:    5224783  MISS:    3052910
cpu0_L1D PREFETCH  ACCESS:          0  HIT:          0  MISS:          0
cpu0_L1D WRITEBACK ACCESS:          0  HIT:          0  MISS:          0
cpu0_L2C TOTAL     ACCESS:    6651027  HIT:    4419868  MISS:    2231159
cpu0_L2C LOAD      ACCESS:     545196  HIT:          3  MISS:     545193
cpu0_L2C RFO       ACCESS:    3052910  HIT:    1367078  MISS:    1685832
cpu0_L2C PREFETCH  ACCESS:          0  HIT:          0  MISS:          0
cpu0_L2C WRITEBACK ACCESS:    3052905  HIT:    3052787  MISS:        118
LLC TOTAL     ACCESS:    3916837  HIT:    1736184  MISS:    2180653
LLC LOAD      ACCESS:     545193  HIT:         33  MISS:     545160
LLC RFO       ACCESS:    1685770  HIT:      50353  MISS:    1635417
LLC PREFETCH  ACCESS:          0  HIT:          0  MISS:          0
LLC WRITEBACK ACCESS:    1685858  HIT:    1685798  MISS:         60
Heartbeat CPU 0 instructions: 98000004 cycles: 239751592 heartbeat IPC: 0.199413 cumulative IPC: 0.21164 (Simulation time: 2 hr 53 min 23 sec) 

Region of Interest Statistics
cpu0_DTLB TOTAL     ACCESS:    8567188  HIT:    8501419  MISS:      65769
cpu0_DTLB LOAD      ACCESS:    3807679  HIT:    3798754  MISS:       8925
cpu0_DTLB RFO       ACCESS:    4759509  HIT:    4702665  MISS:      56844
cpu0_DTLB PREFETCH  ACCESS:          0  HIT:          0  MISS:          0
cpu0_DTLB WRITEBACK ACCESS:          0  HIT:          0  MISS:          0
cpu0_ITLB TOTAL     ACCESS:     910279  HIT:     910279  MISS:          0
cpu0_ITLB LOAD      ACCESS:     910279  HIT:     910279  MISS:          0
cpu0_ITLB RFO       ACCESS:          0  HIT:          0  MISS:          0
cpu0_ITLB PREFETCH  ACCESS:          0  HIT:          0  MISS:          0
cpu0_ITLB WRITEBACK ACCESS:          0  HIT:          0  MISS:          0
cpu0_L1I TOTAL     ACCESS:    1065647  HIT:    1065647  MISS:          0
cpu0_L1I LOAD      ACCESS:    1065647  HIT:    1065647  MISS:          0
cpu0_L1I RFO       ACCESS:          0  HIT:          0  MISS:          0
cpu0_L1I PREFETCH  ACCESS:          0  HIT:          0  MISS:          0
cpu0_L1I WRITEBACK ACCESS:          0  HIT:          0  MISS:          0
cpu0_STLB TOTAL     ACCESS:      65769  HIT:      30081  MISS:      35688
cpu0_STLB LOAD      ACCESS:       8925  HIT:          0  MISS:       8925
cpu0_STLB RFO       ACCESS:      56844  HIT:      30081  MISS:      26763
cpu0_STLB PREFETCH  ACCESS:          0  HIT:          0  MISS:          0
cpu0_STLB WRITEBACK ACCESS:          0  HIT:          0  MISS:          0
cpu0_L1D TOTAL     ACCESS:   11379067  HIT:    7611396  MISS:    3767671
cpu0_L1D LOAD      ACCESS:    2698303  HIT:    2127415  MISS:     570888
cpu0_L1D RFO       ACCESS:    8646990  HIT:    5450223  MISS:    3196767
cpu0_L1D PREFETCH  ACCESS:          0  HIT:          0  MISS:          0
cpu0_L1D WRITEBACK ACCESS:          0  HIT:          0  MISS:          0
cpu0_L2C TOTAL     ACCESS:    6964436  HIT:    4627471  MISS:    2336965
cpu0_L2C LOAD      ACCESS:     570888  HIT:          4  MISS:     570884
cpu0_L2C RFO       ACCESS:    3196767  HIT:    1430828  MISS:    1765939
cpu0_L2C PREFETCH  ACCESS:          0  HIT:          0  MISS:          0
cpu0_L2C WRITEBACK ACCESS:    3196765  HIT:    3196639  MISS:        126
LLC TOTAL     ACCESS:    4102860  HIT:    1819460  MISS:    2283400
LLC LOAD      ACCESS:     570884  HIT:         36  MISS:     570848
LLC RFO       ACCESS:    1765875  HIT:      53401  MISS:    1712474
LLC PREFETCH  ACCESS:          0  HIT:          0  MISS:          0
LLC WRITEBACK ACCESS:    1766085  HIT:    1766023  MISS:         62
Heartbeat CPU 0 instructions: 100000002 cycles: 249731880 heartbeat IPC: 0.200395 cumulative IPC: 0.211166 (Simulation time: 3 hr 0 min 15 sec) 

Region of Interest Statistics
cpu0_DTLB TOTAL     ACCESS:    8931964  HIT:    8863307  MISS:      68657
cpu0_DTLB LOAD      ACCESS:    3967590  HIT:    3958273  MISS:       9317
cpu0_DTLB RFO       ACCESS:    4964374  HIT:    4905034  MISS:      59340
cpu0_DTLB PREFETCH  ACCESS:          0  HIT:          0  MISS:          0
cpu0_DTLB WRITEBACK ACCESS:          0  HIT:          0  MISS:          0
cpu0_ITLB TOTAL     ACCESS:     950718  HIT:     950718  MISS:          0
cpu0_ITLB LOAD      ACCESS:     950718  HIT:     950718  MISS:          0
cpu0_ITLB RFO       ACCESS:          0  HIT:          0  MISS:          0
cpu0_ITLB PREFETCH  ACCESS:          0  HIT:          0  MISS:          0
cpu0_ITLB WRITEBACK ACCESS:          0  HIT:          0  MISS:          0
cpu0_L1I TOTAL     ACCESS:    1110733  HIT:    1110733  MISS:          0
cpu0_L1I LOAD      ACCESS:    1110733  HIT:    1110733  MISS:          0
cpu0_L1I RFO       ACCESS:          0  HIT:          0  MISS:          0
cpu0_L1I PREFETCH  ACCESS:          0  HIT:          0  MISS:          0
cpu0_L1I WRITEBACK ACCESS:          0  HIT:          0  MISS:          0
cpu0_STLB TOTAL     ACCESS:      68657  HIT:      31401  MISS:      37256
cpu0_STLB LOAD      ACCESS:       9317  HIT:          0  MISS:       9317
cpu0_STLB RFO       ACCESS:      59340  HIT:      31401  MISS:      27939
cpu0_STLB PREFETCH  ACCESS:          0  HIT:          0  MISS:          0
cpu0_STLB WRITEBACK ACCESS:          0  HIT:          0  MISS:          0
cpu0_L1D TOTAL     ACCESS:   11859959  HIT:    7926836  MISS:    3933123
cpu0_L1D LOAD      ACCESS:    2810734  HIT:    2214777  MISS:     595957
cpu0_L1D RFO       ACCESS:    9013883  HIT:    5676733  MISS:    3337150
cpu0_L1D PREFETCH  ACCESS:          0  HIT:          0  MISS:          0
cpu0_L1D WRITEBACK ACCESS:          0  HIT:          0  MISS:          0
cpu0_L2C TOTAL     ACCESS:    7270267  HIT:    4830849  MISS:    2439418
cpu0_L2C LOAD      ACCESS:     595957  HIT:          4  MISS:     595953
cpu0_L2C RFO       ACCESS:    3337150  HIT:    1493830  MISS:    1843320
cpu0_L2C PREFETCH  ACCESS:          0  HIT:          0  MISS:          0
cpu0_L2C WRITEBACK ACCESS:    3337144  HIT:    3337015  MISS:        129
LLC TOTAL     ACCESS:    4282853  HIT:    1899175  MISS:    2383678
LLC LOAD      ACCESS:     595953  HIT:         38  MISS:     595915
LLC RFO       ACCESS:    1843256  HIT:      55574  MISS:    1787682
LLC PREFETCH  ACCESS:          0  HIT:          0  MISS:          0
LLC WRITEBACK ACCESS:    1843628  HIT:    1843563  MISS:         65
Heartbeat CPU 0 instructions: 102000003 cycles: 259691972 heartbeat IPC: 0.200801 cumulative IPC: 0.210747 (Simulation time: 3 hr 7 min 16 sec) 

Region of Interest Statistics
cpu0_DTLB TOTAL     ACCESS:    9296107  HIT:    9224571  MISS:      71536
cpu0_DTLB LOAD      ACCESS:    4127453  HIT:    4117746  MISS:       9707
cpu0_DTLB RFO       ACCESS:    5168654  HIT:    5106825  MISS:      61829
cpu0_DTLB PREFETCH  ACCESS:          0  HIT:          0  MISS:          0
cpu0_DTLB WRITEBACK ACCESS:          0  HIT:          0  MISS:          0
cpu0_ITLB TOTAL     ACCESS:     991099  HIT:     991099  MISS:          0
cpu0_ITLB LOAD      ACCESS:     991099  HIT:     991099  MISS:          0
cpu0_ITLB RFO       ACCESS:          0  HIT:          0  MISS:          0
cpu0_ITLB PREFETCH  ACCESS:          0  HIT:          0  MISS:          0
cpu0_ITLB WRITEBACK ACCESS:          0  HIT:          0  MISS:          0
cpu0_L1I TOTAL     ACCESS:    1155668  HIT:    1155668  MISS:          0
cpu0_L1I LOAD      ACCESS:    1155668  HIT:    1155668  MISS:          0
cpu0_L1I RFO       ACCESS:          0  HIT:          0  MISS:          0
cpu0_L1I PREFETCH  ACCESS:          0  HIT:          0  MISS:          0
cpu0_L1I WRITEBACK ACCESS:          0  HIT:          0  MISS:          0
cpu0_STLB TOTAL     ACCESS:      71536  HIT:      32720  MISS:      38816
cpu0_STLB LOAD      ACCESS:       9707  HIT:          0  MISS:       9707
cpu0_STLB RFO       ACCESS:      61829  HIT:      32720  MISS:      29109
cpu0_STLB PREFETCH  ACCESS:          0  HIT:          0  MISS:          0
cpu0_STLB WRITEBACK ACCESS:          0  HIT:          0  MISS:          0
cpu0_L1D TOTAL     ACCESS:   12340102  HIT:    8242132  MISS:    4097970
cpu0_L1D LOAD      ACCESS:    2923010  HIT:    2302076  MISS:     620934
cpu0_L1D RFO       ACCESS:    9380190  HIT:    5903170  MISS:    3477020
cpu0_L1D PREFETCH  ACCESS:          0  HIT:          0  MISS:          0
cpu0_L1D WRITEBACK ACCESS:          0  HIT:          0  MISS:          0
cpu0_L2C TOTAL     ACCESS:    7574988  HIT:    5033382  MISS:    2541606
cpu0_L2C LOAD      ACCESS:     620934  HIT:          4  MISS:     620930
cpu0_L2C RFO       ACCESS:    3477020  HIT:    1556489  MISS:    1920531
cpu0_L2C PREFETCH  ACCESS:          0  HIT:          0  MISS:          0
cpu0_L2C WRITEBACK ACCESS:    3477018  HIT:    3476889  MISS:        129
LLC TOTAL     ACCESS:    4462114  HIT:    1978532  MISS:    2483582
LLC LOAD      ACCESS:     620930  HIT:         38  MISS:     620892
LLC RFO       ACCESS:    1920451  HIT:      57842  MISS:    1862609
LLC PREFETCH  ACCESS:          0  HIT:          0  MISS:          0
LLC WRITEBACK ACCESS:    1920717  HIT:    1920652  MISS:         65
Heartbeat CPU 0 instructions: 104000000 cycles: 268269862 heartbeat IPC: 0.233157 cumulative IPC: 0.2115 (Simulation time: 3 hr 13 min 13 sec) 

Region of Interest Statistics
cpu0_DTLB TOTAL     ACCESS:    9639644  HIT:    9565624  MISS:      74020
cpu0_DTLB LOAD      ACCESS:    4284192  HIT:    4274148  MISS:      10044
cpu0_DTLB RFO       ACCESS:    5355452  HIT:    5291476  MISS:      63976
cpu0_DTLB PREFETCH  ACCESS:          0  HIT:          0  MISS:          0
cpu0_DTLB WRITEBACK ACCESS:          0  HIT:          0  MISS:          0
cpu0_ITLB TOTAL     ACCESS:    1024571  HIT:    1024571  MISS:          0
cpu0_ITLB LOAD      ACCESS:    1024571  HIT:    1024571  MISS:          0
cpu0_ITLB RFO       ACCESS:          0  HIT:          0  MISS:          0
cpu0_ITLB PREFETCH  ACCESS:          0  HIT:          0  MISS:          0
cpu0_ITLB WRITEBACK ACCESS:          0  HIT:          0  MISS:          0
cpu0_L1I TOTAL     ACCESS:    1198079  HIT:    1198079  MISS:          0
cpu0_L1I LOAD      ACCESS:    1198079  HIT:    1198079  MISS:          0
cpu0_L1I RFO       ACCESS:          0  HIT:          0  MISS:          0
cpu0_L1I PREFETCH  ACCESS:          0  HIT:          0  MISS:          0
cpu0_L1I WRITEBACK ACCESS:          0  HIT:          0  MISS:          0
cpu0_STLB TOTAL     ACCESS:      74020  HIT:      33856  MISS:      40164
cpu0_STLB LOAD      ACCESS:      10044  HIT:          0  MISS:      10044
cpu0_STLB RFO       ACCESS:      63976  HIT:      33856  MISS:      30120
cpu0_STLB PREFETCH  ACCESS:          0  HIT:          0  MISS:          0
cpu0_STLB WRITEBACK ACCESS:          0  HIT:          0  MISS:          0
cpu0_L1D TOTAL     ACCESS:   12803938  HIT:    8563725  MISS:    4240213
cpu0_L1D LOAD      ACCESS:    3036033  HIT:    2393548  MISS:     642485
cpu0_L1D RFO       ACCESS:    9729655  HIT:    6131943  MISS:    3597712
cpu0_L1D PREFETCH  ACCESS:          0  HIT:          0  MISS:          0
cpu0_L1D WRITEBACK ACCESS:          0  HIT:          0  MISS:          0
cpu0_L2C TOTAL     ACCESS:    7837924  HIT:    5208079  MISS:    2629845
cpu0_L2C LOAD      ACCESS:     642485  HIT:          4  MISS:     642481
cpu0_L2C RFO       ACCESS:    3597712  HIT:    1610497  MISS:    1987215
cpu0_L2C PREFETCH  ACCESS:          0  HIT:          0  MISS:          0
cpu0_L2C WRITEBACK ACCESS:    3597711  HIT:    3597578  MISS:        133
LLC TOTAL     ACCESS:    4617251  HIT:    2047457  MISS:    2569794
LLC LOAD      ACCESS:     642481  HIT:         38  MISS:     642443
LLC RFO       ACCESS:    1987130  HIT:      59864  MISS:    1927266
LLC PREFETCH  ACCESS:          0  HIT:          0  MISS:          0
LLC WRITEBACK ACCESS:    1987624  HIT:    1987555  MISS:         69
Heartbeat CPU 0 instructions: 106000000 cycles: 278124335 heartbeat IPC: 0.202954 cumulative IPC: 0.211183 (Simulation time: 3 hr 19 min 59 sec) 

Region of Interest Statistics
cpu0_DTLB TOTAL     ACCESS:   10004756  HIT:    9927857  MISS:      76899
cpu0_DTLB LOAD      ACCESS:    4444696  HIT:    4434261  MISS:      10435
cpu0_DTLB RFO       ACCESS:    5560060  HIT:    5493596  MISS:      66464
cpu0_DTLB PREFETCH  ACCESS:          0  HIT:          0  MISS:          0
cpu0_DTLB WRITEBACK ACCESS:          0  HIT:          0  MISS:          0
cpu0_ITLB TOTAL     ACCESS:    1063703  HIT:    1063703  MISS:          0
cpu0_ITLB LOAD      ACCESS:    1063703  HIT:    1063703  MISS:          0
cpu0_ITLB RFO       ACCESS:          0  HIT:          0  MISS:          0
cpu0_ITLB PREFETCH  ACCESS:          0  HIT:          0  MISS:          0
cpu0_ITLB WRITEBACK ACCESS:          0  HIT:          0  MISS:          0
cpu0_L1I TOTAL     ACCESS:    1245731  HIT:    1245731  MISS:          0
cpu0_L1I LOAD      ACCESS:    1245731  HIT:    1245731  MISS:          0
cpu0_L1I RFO       ACCESS:          0  HIT:          0  MISS:          0
cpu0_L1I PREFETCH  ACCESS:          0  HIT:          0  MISS:          0
cpu0_L1I WRITEBACK ACCESS:          0  HIT:          0  MISS:          0
cpu0_STLB TOTAL     ACCESS:      76899  HIT:      35171  MISS:      41728
cpu0_STLB LOAD      ACCESS:      10435  HIT:          0  MISS:      10435
cpu0_STLB RFO       ACCESS:      66464  HIT:      35171  MISS:      31293
cpu0_STLB PREFETCH  ACCESS:          0  HIT:          0  MISS:          0
cpu0_STLB WRITEBACK ACCESS:          0  HIT:          0  MISS:          0
cpu0_L1D TOTAL     ACCESS:   13283916  HIT:    8878672  MISS:    4405244
cpu0_L1D LOAD      ACCESS:    3148353  HIT:    2480860  MISS:     667493
cpu0_L1D RFO       ACCESS:   10095749  HIT:    6358016  MISS:    3737733
cpu0_L1D PREFETCH  ACCESS:          0  HIT:          0  MISS:          0
cpu0_L1D WRITEBACK ACCESS:          0  HIT:          0  MISS:          0
cpu0_L2C TOTAL     ACCESS:    8142975  HIT:    5410903  MISS:    2732072
cpu0_L2C LOAD      ACCESS:     667493  HIT:          5  MISS:     667488
cpu0_L2C RFO       ACCESS:    3737733  HIT:    1673314  MISS:    2064419
cpu0_L2C PREFETCH  ACCESS:          0  HIT:          0  MISS:          0
[...]
cpu0_DTLB TOTAL     ACCESS:  266804163  HIT:  264763123  MISS:    2041040
cpu0_DTLB LOAD      ACCESS:  118778301  HIT:  118501339  MISS:     276962
cpu0_DTLB RFO       ACCESS:  148025862  HIT:  146261784  MISS:    1764078
cpu0_DTLB PREFETCH  ACCESS:          0  HIT:          0  MISS:          0
cpu0_DTLB WRITEBACK ACCESS:          0  HIT:          0  MISS:          0
cpu0_ITLB TOTAL     ACCESS:   28067885  HIT:   28067885  MISS:          0
cpu0_ITLB LOAD      ACCESS:   28067885  HIT:   28067885  MISS:          0
cpu0_ITLB RFO       ACCESS:          0  HIT:          0  MISS:          0
cpu0_ITLB PREFETCH  ACCESS:          0  HIT:          0  MISS:          0
cpu0_ITLB WRITEBACK ACCESS:          0  HIT:          0  MISS:          0
cpu0_L1I TOTAL     ACCESS:   33376141  HIT:   33376141  MISS:          0
cpu0_L1I LOAD      ACCESS:   33376141  HIT:   33376141  MISS:          0
cpu0_L1I RFO       ACCESS:          0  HIT:          0  MISS:          0
cpu0_L1I PREFETCH  ACCESS:          0  HIT:          0  MISS:          0
cpu0_L1I WRITEBACK ACCESS:          0  HIT:          0  MISS:          0
cpu0_STLB TOTAL     ACCESS:    2041040  HIT:     933551  MISS:    1107489
cpu0_STLB LOAD      ACCESS:     276962  HIT:          1  MISS:     276961
cpu0_STLB RFO       ACCESS:    1764078  HIT:     933550  MISS:     830528
cpu0_STLB PREFETCH  ACCESS:          0  HIT:          0  MISS:          0
cpu0_STLB WRITEBACK ACCESS:          0  HIT:          0  MISS:          0
cpu0_L1D TOTAL     ACCESS:  354696261  HIT:  237775904  MISS:  116920357
cpu0_L1D LOAD      ACCESS:   84249386  HIT:   66533296  MISS:   17716090
cpu0_L1D RFO       ACCESS:  269403416  HIT:  170199720  MISS:   99203696
cpu0_L1D PREFETCH  ACCESS:          0  HIT:          0  MISS:          0
cpu0_L1D WRITEBACK ACCESS:          0  HIT:          0  MISS:          0
cpu0_L2C TOTAL     ACCESS:  216124043  HIT:  143622721  MISS:   72501322
cpu0_L2C LOAD      ACCESS:   17716090  HIT:        470  MISS:   17715620
cpu0_L2C RFO       ACCESS:   99203689  HIT:   44421842  MISS:   54781847
cpu0_L2C PREFETCH  ACCESS:          0  HIT:          0  MISS:          0
cpu0_L2C WRITEBACK ACCESS:   99203693  HIT:   99200397  MISS:       3296
LLC TOTAL     ACCESS:  127280952  HIT:   56421498  MISS:   70859454
LLC LOAD      ACCESS:   17715620  HIT:        804  MISS:   17714816
LLC RFO       ACCESS:   54779597  HIT:    1637144  MISS:   53142453
LLC PREFETCH  ACCESS:          0  HIT:          0  MISS:          0
LLC WRITEBACK ACCESS:   54785176  HIT:   54783487  MISS:       1689
Heartbeat CPU 0 instructions: 1550000003 cycles: 7065354104 heartbeat IPC: 0.239784 cumulative IPC: 0.212693 (Simulation time: 22 hr 43 min 28 sec) 

Region of Interest Statistics
cpu0_DTLB TOTAL     ACCESS:  267143185  HIT:  265099749  MISS:    2043436
cpu0_DTLB LOAD      ACCESS:  118934432  HIT:  118657146  MISS:     277286
cpu0_DTLB RFO       ACCESS:  148208753  HIT:  146442603  MISS:    1766150
cpu0_DTLB PREFETCH  ACCESS:          0  HIT:          0  MISS:          0
cpu0_DTLB WRITEBACK ACCESS:          0  HIT:          0  MISS:          0
cpu0_ITLB TOTAL     ACCESS:   28098746  HIT:   28098746  MISS:          0
cpu0_ITLB LOAD      ACCESS:   28098746  HIT:   28098746  MISS:          0
cpu0_ITLB RFO       ACCESS:          0  HIT:          0  MISS:          0
cpu0_ITLB PREFETCH  ACCESS:          0  HIT:          0  MISS:          0
cpu0_ITLB WRITEBACK ACCESS:          0  HIT:          0  MISS:          0
cpu0_L1I TOTAL     ACCESS:   33419143  HIT:   33419143  MISS:          0
cpu0_L1I LOAD      ACCESS:   33419143  HIT:   33419143  MISS:          0
cpu0_L1I RFO       ACCESS:          0  HIT:          0  MISS:          0
cpu0_L1I PREFETCH  ACCESS:          0  HIT:          0  MISS:          0
cpu0_L1I WRITEBACK ACCESS:          0  HIT:          0  MISS:          0
cpu0_STLB TOTAL     ACCESS:    2043436  HIT:     934648  MISS:    1108788
cpu0_STLB LOAD      ACCESS:     277286  HIT:          1  MISS:     277285
cpu0_STLB RFO       ACCESS:    1766150  HIT:     934647  MISS:     831503
cpu0_STLB PREFETCH  ACCESS:          0  HIT:          0  MISS:          0
cpu0_STLB WRITEBACK ACCESS:          0  HIT:          0  MISS:          0
cpu0_L1D TOTAL     ACCESS:  355156567  HIT:  238098961  MISS:  117057606
cpu0_L1D LOAD      ACCESS:   84362416  HIT:   66625530  MISS:   17736886
cpu0_L1D RFO       ACCESS:  269749714  HIT:  170429565  MISS:   99320149
cpu0_L1D PREFETCH  ACCESS:          0  HIT:          0  MISS:          0
cpu0_L1D WRITEBACK ACCESS:          0  HIT:          0  MISS:          0
cpu0_L2C TOTAL     ACCESS:  216377742  HIT:  143791382  MISS:   72586360
cpu0_L2C LOAD      ACCESS:   17736886  HIT:        470  MISS:   17736416
cpu0_L2C RFO       ACCESS:   99320142  HIT:   44474054  MISS:   54846088
cpu0_L2C PREFETCH  ACCESS:          0  HIT:          0  MISS:          0
cpu0_L2C WRITEBACK ACCESS:   99320143  HIT:   99316846  MISS:       3297
LLC TOTAL     ACCESS:  127430203  HIT:   56487567  MISS:   70942636
LLC LOAD      ACCESS:   17736416  HIT:        804  MISS:   17735612
LLC RFO       ACCESS:   54843837  HIT:    1638999  MISS:   53204838
LLC PREFETCH  ACCESS:          0  HIT:          0  MISS:          0
LLC WRITEBACK ACCESS:   54849391  HIT:   54847701  MISS:       1690
Finished CPU 0 instructions: 1500000000 cycles: 7052403134 cumulative IPC: 0.212693 (Simulation time: 22 hr 43 min 28 sec) 

ChampSim completed all CPUs

Region of Interest Statistics

CPU 0 cumulative IPC: 0.212693 instructions: 1500000000 cycles: 7052403134
cpu0_DTLB TOTAL     ACCESS:  267143185  HIT:  265099749  MISS:    2043436
cpu0_DTLB LOAD      ACCESS:  118934432  HIT:  118657146  MISS:     277286
cpu0_DTLB RFO       ACCESS:  148208753  HIT:  146442603  MISS:    1766150
cpu0_DTLB PREFETCH  ACCESS:          0  HIT:          0  MISS:          0
cpu0_DTLB WRITEBACK ACCESS:          0  HIT:          0  MISS:          0
cpu0_DTLB TRANSLATION ACCESS:          0  HIT:          0  MISS:          0
cpu0_DTLB PREFETCH  REQUESTED:          0  ISSUED:          0  USEFUL:          0  USELESS:          0
cpu0_DTLB AVERAGE MISS LATENCY: 511.148 cycles
cpu0_ITLB TOTAL     ACCESS:   28098746  HIT:   28098746  MISS:          0
cpu0_ITLB LOAD      ACCESS:   28098746  HIT:   28098746  MISS:          0
cpu0_ITLB RFO       ACCESS:          0  HIT:          0  MISS:          0
cpu0_ITLB PREFETCH  ACCESS:          0  HIT:          0  MISS:          0
cpu0_ITLB WRITEBACK ACCESS:          0  HIT:          0  MISS:          0
cpu0_ITLB TRANSLATION ACCESS:          0  HIT:          0  MISS:          0
cpu0_ITLB PREFETCH  REQUESTED:          0  ISSUED:          0  USEFUL:          0  USELESS:          0
cpu0_ITLB AVERAGE MISS LATENCY: -nan cycles
cpu0_L1I TOTAL     ACCESS:   33419143  HIT:   33419143  MISS:          0
cpu0_L1I LOAD      ACCESS:   33419143  HIT:   33419143  MISS:          0
cpu0_L1I RFO       ACCESS:          0  HIT:          0  MISS:          0
cpu0_L1I PREFETCH  ACCESS:          0  HIT:          0  MISS:          0
cpu0_L1I WRITEBACK ACCESS:          0  HIT:          0  MISS:          0
cpu0_L1I TRANSLATION ACCESS:          0  HIT:          0  MISS:          0
cpu0_L1I PREFETCH  REQUESTED:          0  ISSUED:          0  USEFUL:          0  USELESS:          0
cpu0_L1I AVERAGE MISS LATENCY: -nan cycles
cpu0_STLB TOTAL     ACCESS:    2043436  HIT:     934648  MISS:    1108788
cpu0_STLB LOAD      ACCESS:     277286  HIT:          1  MISS:     277285
cpu0_STLB RFO       ACCESS:    1766150  HIT:     934647  MISS:     831503
cpu0_STLB PREFETCH  ACCESS:          0  HIT:          0  MISS:          0
cpu0_STLB WRITEBACK ACCESS:          0  HIT:          0  MISS:          0
cpu0_STLB TRANSLATION ACCESS:          0  HIT:          0  MISS:          0
cpu0_STLB PREFETCH  REQUESTED:          0  ISSUED:          0  USEFUL:          0  USELESS:          0
cpu0_STLB AVERAGE MISS LATENCY: 925.289 cycles
cpu0_L1D TOTAL     ACCESS:  355156567  HIT:  238098961  MISS:  117057606
cpu0_L1D LOAD      ACCESS:   84362416  HIT:   66625530  MISS:   17736886
cpu0_L1D RFO       ACCESS:  269749714  HIT:  170429565  MISS:   99320149
cpu0_L1D PREFETCH  ACCESS:          0  HIT:          0  MISS:          0
cpu0_L1D WRITEBACK ACCESS:          0  HIT:          0  MISS:          0
cpu0_L1D TRANSLATION ACCESS:    1044437  HIT:    1043866  MISS:        571
cpu0_L1D PREFETCH  REQUESTED:          0  ISSUED:          0  USEFUL:          0  USELESS:          0
cpu0_L1D AVERAGE MISS LATENCY: 752.311 cycles
cpu0_L2C TOTAL     ACCESS:  216377742  HIT:  143791382  MISS:   72586360
cpu0_L2C LOAD      ACCESS:   17736886  HIT:        470  MISS:   17736416
cpu0_L2C RFO       ACCESS:   99320142  HIT:   44474054  MISS:   54846088
cpu0_L2C PREFETCH  ACCESS:          0  HIT:          0  MISS:          0
cpu0_L2C WRITEBACK ACCESS:   99320143  HIT:   99316846  MISS:       3297
cpu0_L2C TRANSLATION ACCESS:        571  HIT:         12  MISS:        559
cpu0_L2C PREFETCH  REQUESTED:          0  ISSUED:          0  USEFUL:          0  USELESS:          0
cpu0_L2C AVERAGE MISS LATENCY: 1195.4 cycles
LLC TOTAL     ACCESS:  127430203  HIT:   56487567  MISS:   70942636
LLC LOAD      ACCESS:   17736416  HIT:        804  MISS:   17735612
LLC RFO       ACCESS:   54843837  HIT:    1638999  MISS:   53204838
LLC PREFETCH  ACCESS:          0  HIT:          0  MISS:          0
LLC WRITEBACK ACCESS:   54849391  HIT:   54847701  MISS:       1690
LLC TRANSLATION ACCESS:        559  HIT:         63  MISS:        496
LLC PREFETCH  REQUESTED:          0  ISSUED:          0  USEFUL:          0  USELESS:          0
LLC AVERAGE MISS LATENCY: 1201.61 cycles
~~~~~~~~~~Reuse Distance Profiler output~~~~~~~~~~
0	0	0
1	0	0
2	0	0
3	0	0
4	0	0
5	0	0
6	0	0
7	0	0
8	0	0
9	0	0
10	0	0
11	0	0
12	0	0
13	0	0
14	0	0
15	0	0
16	0	0
17	0	0
18	0	0
19	0	0
20	0	0
21	0	0
22	0	0
23	0	0
24	0	0
25	0	0
26	0	0
27	0	0
28	0	0
29	0	0
30	0	0
31	0	0
32	0	0
33	0	0
34	0	0
35	0	0
36	0	0
37	0	0
38	0	0
39	0	0
40	0	0
41	0	0
42	0	0
43	0	0
44	0	0
45	0	0
46	0	0
47	0	0
48	0	0
49	0	0
50	0	0
51	0	0
52	0	0
53	0	0
54	0	0
55	0	0
56	0	0
57	0	0
58	0	0
59	0	0
60	0	0
61	0	0
62	0	0
63	0	0
64	0	0
66	0	0
68	0	0
70	0	0
72	0	0
74	0	0
76	0	0
78	0	0
80	0	0
82	0	0
84	0	0
86	0	0
88	0	0
90	0	0
92	0	0
94	0	0
96	0	0
98	0	0
100	0	0
102	0	0
104	0	0
106	0	0
108	0	0
110	0	0
112	0	0
114	0	0
116	0	0
118	0	0
120	0	0
122	0	0
124	0	0
126	0	0
128	0	0
132	0	0
136	0	0
140	0	0
144	0	0
148	0	0
152	0	0
156	0	0
160	0	0
164	0	0
168	0	0
172	0	0
176	0	0
180	0	0
184	0	0
188	0	0
192	0	0
196	0	0
200	0	0
204	0	0
208	0	0
212	0	0
216	0	0
220	0	0
224	0	0
228	0	0
232	0	0
236	0	0
240	0	0
244	0	0
248	0	0
252	0	0
256	0	0
264	0	0
272	0	0
280	0	0
288	0	0
296	0	0
304	0	0
312	0	0
320	0	0
328	0	0
336	0	0
344	0	0
352	0	0
360	0	0
368	0	0
376	0	0
384	0	0
392	0	0
400	0	0
408	0	0
416	0	0
424	0	0
432	0	0
440	0	0
448	0	0
456	0	0
464	0	0
472	0	0
480	0	0
488	0	0
496	0	0
504	0	0
512	0	0
528	0	0
544	0	0
560	0	0
576	0	0
592	0	0
608	0	0
624	0	0
640	0	0
656	0	0
672	0	0
688	0	0
704	0	0
720	0	0
736	0	0
752	0	0
768	0	0
784	0	0
800	0	0
816	0	0
832	0	0
848	0	0
864	0	0
880	0	0
896	0	0
912	0	0
928	0	0
944	0	0
960	0	0
976	0	0
992	0	0
1008	0	0
1024	0	0
1056	0	0
1088	0	0
1120	0	0
1152	0	0
1184	0	0
1216	0	0
1248	0	0
1280	0	0
1312	0	0
1344	0	0
1376	0	0
1408	0	0
1440	0	0
1472	0	0
1504	0	0
1536	0	0
1568	0	0
1600	0	0
1632	0	0
1664	0	0
1696	0	0
1728	0	0
1760	0	0
1792	0	0
1824	0	0
1856	0	0
1888	0	0
1920	0	0
1952	0	0
1984	0	0
2016	0	0
2048	0	0
2112	0	0
2176	0	0
2240	0	0
2304	0	0
2368	0	0
2432	0	0
2496	0	0
2560	0	0
2624	0	0
2688	0	0
2752	0	0
2816	0	0
2880	0	0
2944	0	0
3008	0	0
3072	0	0
3136	0	0
3200	0	0
3264	0	0
3328	0	0
3392	0	0
3456	0	0
3520	0	0
3584	0	0
3648	0	0
3712	0	0
3776	0	0
3840	0	0
3904	0	0
3968	0	0
4032	0	0
4096	0	0
4224	0	0
4352	0	0
4480	0	0
4608	0	0
4736	0	0
4864	0	0
4992	0	0
5120	0	0
5248	0	0
5376	0	0
5504	0	0
5632	0	0
5760	0	0
5888	0	0
6016	0	0
6144	0	0
6272	0	0
6400	0	0
6528	0	0
6656	0	0
6784	0	0
6912	0	0
7040	0	0
7168	0	0
7296	0	0
7424	0	0
7552	0	0
7680	0	0
7808	0	0
7936	0	0
8064	0	0
8192	0	0
8448	0	0
8704	0	0
8960	0	0
9216	0	0
9472	0	0
9728	0	0
9984	0	0
10240	0	0
10496	0	0
10752	0	0
11008	0	0
11264	0	0
11520	0	0
11776	0	0
12032	0	0
12288	0	0
12544	0	0
12800	0	0
13056	0	0
13312	0	0
13568	0	0
13824	0	0
14080	0	0
14336	0	0
14592	0	0
14848	0	0
15104	0	0
15360	0	0
15616	0	0
15872	0	0
16128	0	0
16384	0	0
16896	0	0
17408	0	0
17920	0	0
18432	0	0
18944	0	0
19456	0	0
19968	0	0
20480	0	0
20992	0	0
21504	0	0
22016	0	0
22528	0	0
23040	0	0
23552	0	0
24064	0	0
24576	0	0
25088	0	0
25600	0	0
26112	0	0
26624	0	0
27136	0	0
27648	0	0
28160	0	0
28672	0	0
29184	0	0
29696	0	0
30208	0	0
30720	0	0
31232	0	0
31744	0	0
32256	0	0
32768	0	0
33792	0	0
34816	0	0
35840	0	0
36864	0	0
37888	0	0
38912	0	0
39936	0	0
40960	0	0
41984	0	0
43008	0	0
44032	0	0
45056	0	0
46080	0	0
47104	0	0
48128	0	0
49152	0	0
50176	0	0
51200	0	0
52224	0	0
53248	0	0
54272	0	0
55296	0	0
56320	0	0
57344	0	0
58368	0	0
59392	0	0
60416	0	0
61440	0	0
62464	0	0
63488	0	0
64512	0	0
65536	0	0
67584	0	0
69632	0	0
71680	0	0
73728	0	0
75776	0	0
77824	0	0
79872	0	0
81920	0	0
83968	0	0
86016	0	0
88064	0	0
90112	0	0
92160	0	0
94208	0	0
96256	0	0
98304	0	0
100352	0	0
102400	0	0
104448	0	0
106496	0	0
108544	0	0
110592	0	0
112640	0	0
114688	0	0
116736	0	0
118784	0	0
120832	0	0
122880	0	0
124928	0	0
126976	0	0
129024	0	0
131072	0	0
135168	0	0
139264	0	0
143360	0	0
147456	0	0
151552	0	0
155648	0	0
159744	0	0
163840	0	0
167936	0	0
172032	0	0
176128	0	0
180224	0	0
184320	0	0
188416	0	0
192512	0	0
196608	0	0
200704	0	0
204800	0	0
208896	0	0
212992	0	0
217088	0	0
221184	0	0
225280	0	0
229376	0	0
233472	0	0
237568	0	0
241664	0	0
245760	0	0
249856	0	0
253952	0	0
258048	0	0
262144	0	0
270336	0	0
278528	0	0
286720	0	0
294912	0	0
303104	0	0
311296	0	0
319488	0	0
327680	0	0
335872	0	0
344064	0	0
352256	0	0
360448	0	0
368640	0	0
376832	0	0
385024	0	0
393216	0	0
401408	0	0
409600	0	0
417792	0	0
425984	0	0
434176	0	0
442368	0	0
450560	0	0
458752	0	0
466944	0	0
475136	0	0
483328	0	0
491520	0	0
499712	0	0
507904	0	0
516096	0	0
524288	0	0
540672	0	0
557056	0	0
573440	0	0
589824	0	0
606208	0	0
622592	0	0
638976	0	0
655360	0	0
671744	0	0
688128	0	0
704512	0	0
720896	0	0
737280	0	0
753664	0	0
770048	0	0
786432	0	0
802816	0	0
819200	0	0
835584	0	0
851968	0	0
868352	0	0
884736	0	0
901120	0	0
917504	0	0
933888	0	0
950272	0	0
966656	0	0
983040	0	0
999424	0	0
1015808	0	0
1032192	0	0
1048576	0	0
1081344	0	0
1114112	0	0
1146880	0	0
1179648	0	0
1212416	0	0
1245184	0	0
1277952	0	0
1310720	0	0
1343488	0	0
1376256	0	0
1409024	0	0
1441792	0	0
1474560	0	0
1507328	0	0
1540096	0	0
1572864	0	0
1605632	0	0
1638400	0	0
1671168	0	0
1703936	0	0
1736704	0	0
1769472	0	0
1802240	0	0
1835008	0	0
1867776	0	0
1900544	0	0
1933312	0	0
1966080	0	0
1998848	0	0
2031616	0	0
2064384	0	0
2097152	0	0
2162688	0	0
2228224	0	0
2293760	0	0
2359296	0	0
2424832	0	0
2490368	0	0
2555904	0	0
2621440	0	0
2686976	0	0
2752512	0	0
2818048	0	0
2883584	0	0
2949120	0	0
3014656	0	0
3080192	0	0
3145728	0	0
3211264	0	0
3276800	0	0
3342336	0	0
3407872	0	0
3473408	0	0
3538944	0	0
3604480	0	0
3670016	0	0
3735552	0	0
3801088	0	0
3866624	0	0
3932160	0	0
3997696	0	0
4063232	0	0
4128768	0	0
4194304	0	0
4325376	0	0
4456448	0	0
4587520	0	0
4718592	0	0
4849664	0	0
4980736	0	0
5111808	0	0
5242880	0	0
5373952	0	0
5505024	0	0
5636096	0	0
5767168	0	0
5898240	0	0
6029312	0	0
6160384	0	0
6291456	0	0
6422528	0	0
6553600	0	0
6684672	0	0
6815744	0	0
6946816	0	0
7077888	0	0
7208960	0	0
7340032	0	0
7471104	0	0
7602176	0	0
7733248	0	0
7864320	0	0
7995392	0	0
8126464	0	0
8257536	0	0
8388608	0	0
8650752	0	0
8912896	0	0
9175040	0	0
9437184	0	0
9699328	0	0
9961472	0	0
10223616	0	0
10485760	0	0
10747904	0	0
11010048	0	0
11272192	0	0
11534336	0	0
11796480	0	0
12058624	0	0
12320768	0	0
12582912	0	0
12845056	0	0
13107200	0	0
13369344	0	0
13631488	0	0
13893632	0	0
14155776	0	0
14417920	0	0
14680064	0	0
14942208	0	0
15204352	0	0
15466496	0	0
15728640	0	0
15990784	0	0
16252928	0	0
16515072	0	0
16777216	0	0
17301504	0	0
17825792	0	0
18350080	0	0
18874368	0	0
19398656	0	0
19922944	0	0
20447232	0	0
20971520	0	0
21495808	0	0
22020096	0	0
22544384	0	0
23068672	0	0
23592960	0	0
24117248	0	0
24641536	0	0
25165824	0	0
25690112	0	0
26214400	0	0
26738688	0	0
27262976	0	0
27787264	0	0
28311552	0	0
28835840	0	0
29360128	0	0
29884416	0	0
30408704	0	0
30932992	0	0
31457280	0	0
31981568	0	0
32505856	0	0
33030144	0	0
33554432	0	0
34603008	0	0
35651584	0	0
36700160	0	0
37748736	0	0
38797312	0	0
39845888	0	0
40894464	0	0
41943040	0	0
42991616	0	0
44040192	0	0
45088768	0	0
46137344	0	0
47185920	0	0
48234496	0	0
49283072	0	0
50331648	0	0
51380224	0	0
52428800	0	0
53477376	0	0
54525952	0	0
55574528	0	0
56623104	0	0
57671680	0	0
58720256	0	0
59768832	0	0
60817408	0	0
61865984	0	0
62914560	0	0
63963136	0	0
65011712	0	0
66060288	0	0
67108864	0	0
69206016	0	0
71303168	0	0
73400320	0	0
75497472	0	0
77594624	0	0
79691776	0	0
81788928	0	0
83886080	0	0
85983232	0	0
88080384	0	0
90177536	0	0
92274688	0	0
94371840	0	0
96468992	0	0
98566144	0	0
100663296	0	0
102760448	0	0
104857600	0	0
106954752	0	0
109051904	0	0
111149056	0	0
113246208	0	0
115343360	0	0
117440512	0	0
119537664	0	0
121634816	0	0
123731968	0	0
125829120	0	0
127926272	0	0
130023424	0	0
132120576	0	0
134217728	0	0
138412032	0	0
142606336	0	0
146800640	0	0
150994944	0	0
155189248	0	0
159383552	0	0
163577856	0	0
167772160	0	0
171966464	0	0
176160768	0	0
180355072	0	0
184549376	0	0
188743680	0	0
192937984	0	0
197132288	0	0
201326592	0	0
205520896	0	0
209715200	0	0
213909504	0	0
218103808	0	0
222298112	0	0
226492416	0	0
230686720	0	0
234881024	0	0
239075328	0	0
243269632	0	0
247463936	0	0
251658240	0	0
255852544	0	0
260046848	0	0
264241152	0	0
268435456	0	0
276824064	0	0
285212672	0	0
293601280	0	0
301989888	0	0
310378496	0	0
318767104	0	0
327155712	0	0
335544320	0	0
343932928	0	0
352321536	0	0
360710144	0	0
369098752	0	0
377487360	0	0
385875968	0	0
394264576	0	0
402653184	0	0
411041792	0	0
419430400	0	0
427819008	0	0
436207616	0	0
444596224	0	0
452984832	0	0
461373440	0	0
469762048	0	0
478150656	0	0
486539264	0	0
494927872	0	0
503316480	0	0
511705088	0	0
520093696	0	0
528482304	0	0
536870912	0	0
553648128	0	0
570425344	0	0
587202560	0	0
603979776	0	0
620756992	0	0
637534208	0	0
654311424	0	0
671088640	0	0
687865856	0	0
704643072	0	0
721420288	0	0
738197504	0	0
754974720	0	0
771751936	0	0
788529152	0	0
805306368	0	0
822083584	0	0
838860800	0	0
855638016	0	0
872415232	0	0
889192448	0	0
905969664	0	0
922746880	0	0
939524096	0	0
956301312	0	0
973078528	0	0
989855744	0	0
1006632960	0	0
1023410176	0	0
1040187392	0	0
1056964608	0	0
1073741824	0	0
1107296256	0	0
1140850688	0	0
1174405120	0	0
1207959552	0	0
1241513984	0	0
1275068416	0	0
1308622848	0	0
1342177280	0	0
1375731712	0	0
1409286144	0	0
1442840576	0	0
1476395008	0	0
1509949440	0	0
1543503872	0	0
1577058304	0	0
1610612736	0	0
1644167168	0	0
1677721600	0	0
1711276032	0	0
1744830464	0	0
1778384896	0	0
1811939328	0	0
1845493760	0	0
1879048192	0	0
1912602624	0	0
1946157056	0	0
1979711488	0	0
2013265920	0	0
2046820352	0	0
2080374784	0	0
2113929216	0	0
2147483648	0	0
2214592512	0	0
2281701376	0	0
2348810240	0	0
2415919104	0	0
2483027968	0	0
2550136832	0	0
2617245696	0	0
2684354560	0	0
2751463424	0	0
2818572288	0	0
2885681152	0	0
2952790016	0	0
3019898880	0	0
3087007744	0	0
3154116608	0	0
3221225472	0	0
3288334336	0	0
3355443200	0	0
3422552064	0	0
3489660928	0	0
3556769792	0	0
3623878656	0	0
3690987520	0	0
3758096384	0	0
3825205248	0	0
3892314112	0	0
3959422976	0	0
4026531840	0	0
4093640704	0	0
4160749568	0	0
4227858432	0	0
~~~~~~~~~~Reuse Distance Profiler output end~~~~~~~~~~


DRAM Statistics
 CHANNEL 0
 RQ ROW_BUFFER_HIT:    2240742  ROW_BUFFER_MISS:   68700204
 DBUS AVG_CONGESTED_CYCLE:    4.00243
 WQ ROW_BUFFER_HIT:    1709777  ROW_BUFFER_MISS:   51496295  FULL:          0


CPU 0 Branch Prediction Accuracy: 96.0416% MPKI: 0.707559 Average ROB Occupancy at Mispredict: 258.222
Branch type MPKI
BRANCH_DIRECT_JUMP: 0
BRANCH_INDIRECT: 0
BRANCH_CONDITIONAL: 0.707559
BRANCH_DIRECT_CALL: 0
BRANCH_INDIRECT_CALL: 0
BRANCH_RETURN: 0

