
*** ChampSim Multicore Out-of-Order Simulator ***

Warmup Instructions: 50000000
Simulation Instructions: 1500000000
Number of CPUs: 1
Off-chip DRAM Size: 4 GiB Channels: 1 Width: 64-bit Data Rate: 3200 MT/s

VirtualMemory physical capacity: 8588881920 num_ppages: 2096895
VirtualMemory page size: 4096 log2_page_size: 12

CPU 0 runs traces/621.wrf_s-8065B.champsimtrace.xz
CPU 0 Bimodal branch predictor
Basic BTB sets: 1024 ways: 8 indirect buffer size: 4096 RAS size: 64
Initializing LRU.
Initializing LRU.
Initializing LRU.
Initializing LRU.
Initializing rdLRU.
Initializing LRU.
Initializing LRU.
Heartbeat CPU 0 instructions: 2000004 cycles: 637359 heartbeat IPC: 3.13796 cumulative IPC: 3.13796 (Simulation time: 0 hr 1 min 28 sec) 
Heartbeat CPU 0 instructions: 4000003 cycles: 1200391 heartbeat IPC: 3.55219 cumulative IPC: 3.33225 (Simulation time: 0 hr 2 min 43 sec) 
Heartbeat CPU 0 instructions: 6000000 cycles: 1776906 heartbeat IPC: 3.46912 cumulative IPC: 3.37666 (Simulation time: 0 hr 3 min 50 sec) 
Heartbeat CPU 0 instructions: 8000002 cycles: 2483338 heartbeat IPC: 2.83113 cumulative IPC: 3.22147 (Simulation time: 0 hr 5 min 13 sec) 
Heartbeat CPU 0 instructions: 10000004 cycles: 3181959 heartbeat IPC: 2.86279 cumulative IPC: 3.14272 (Simulation time: 0 hr 6 min 31 sec) 
Heartbeat CPU 0 instructions: 12000002 cycles: 3880054 heartbeat IPC: 2.86494 cumulative IPC: 3.09274 (Simulation time: 0 hr 7 min 54 sec) 
Heartbeat CPU 0 instructions: 14000003 cycles: 4578151 heartbeat IPC: 2.86493 cumulative IPC: 3.058 (Simulation time: 0 hr 9 min 20 sec) 
Heartbeat CPU 0 instructions: 16000000 cycles: 5282437 heartbeat IPC: 2.83975 cumulative IPC: 3.0289 (Simulation time: 0 hr 10 min 44 sec) 
Heartbeat CPU 0 instructions: 18000000 cycles: 5986283 heartbeat IPC: 2.84153 cumulative IPC: 3.00687 (Simulation time: 0 hr 12 min 1 sec) 
Heartbeat CPU 0 instructions: 20000000 cycles: 6672357 heartbeat IPC: 2.91514 cumulative IPC: 2.99744 (Simulation time: 0 hr 13 min 21 sec) 
Heartbeat CPU 0 instructions: 22000002 cycles: 7353848 heartbeat IPC: 2.93474 cumulative IPC: 2.99163 (Simulation time: 0 hr 14 min 41 sec) 
Heartbeat CPU 0 instructions: 24000001 cycles: 7987251 heartbeat IPC: 3.15755 cumulative IPC: 3.00479 (Simulation time: 0 hr 15 min 59 sec) 
Heartbeat CPU 0 instructions: 26000000 cycles: 8614447 heartbeat IPC: 3.18879 cumulative IPC: 3.01819 (Simulation time: 0 hr 17 min 19 sec) 
Heartbeat CPU 0 instructions: 28000003 cycles: 9193992 heartbeat IPC: 3.45099 cumulative IPC: 3.04547 (Simulation time: 0 hr 18 min 27 sec) 
Heartbeat CPU 0 instructions: 30000000 cycles: 9865644 heartbeat IPC: 2.97773 cumulative IPC: 3.04086 (Simulation time: 0 hr 19 min 51 sec) 
Heartbeat CPU 0 instructions: 32000002 cycles: 10543177 heartbeat IPC: 2.95189 cumulative IPC: 3.03514 (Simulation time: 0 hr 21 min 7 sec) 
Heartbeat CPU 0 instructions: 34000002 cycles: 11242043 heartbeat IPC: 2.86178 cumulative IPC: 3.02436 (Simulation time: 0 hr 22 min 27 sec) 
Heartbeat CPU 0 instructions: 36000004 cycles: 11937010 heartbeat IPC: 2.87784 cumulative IPC: 3.01583 (Simulation time: 0 hr 23 min 47 sec) 
Heartbeat CPU 0 instructions: 38000002 cycles: 12641153 heartbeat IPC: 2.84033 cumulative IPC: 3.00606 (Simulation time: 0 hr 25 min 5 sec) 
Heartbeat CPU 0 instructions: 40000003 cycles: 13345146 heartbeat IPC: 2.84094 cumulative IPC: 2.99734 (Simulation time: 0 hr 26 min 13 sec) 
Heartbeat CPU 0 instructions: 42000003 cycles: 14041144 heartbeat IPC: 2.87357 cumulative IPC: 2.99121 (Simulation time: 0 hr 27 min 34 sec) 
Heartbeat CPU 0 instructions: 44000002 cycles: 14723501 heartbeat IPC: 2.93102 cumulative IPC: 2.98842 (Simulation time: 0 hr 28 min 55 sec) 
Heartbeat CPU 0 instructions: 46000000 cycles: 15390930 heartbeat IPC: 2.99657 cumulative IPC: 2.98877 (Simulation time: 0 hr 30 min 13 sec) 
Heartbeat CPU 0 instructions: 48000000 cycles: 16018130 heartbeat IPC: 3.18878 cumulative IPC: 2.9966 (Simulation time: 0 hr 31 min 30 sec) 
Heartbeat CPU 0 instructions: 50000003 cycles: 16647684 heartbeat IPC: 3.17686 cumulative IPC: 3.00342 (Simulation time: 0 hr 32 min 47 sec) 

Warmup complete CPU 0 instructions: 50000003 cycles: 16647684 (Simulation time: 0 hr 32 min 47 sec) 

Heartbeat CPU 0 instructions: 52000001 cycles: 22208282 heartbeat IPC: 0.359673 cumulative IPC: 0.359673 (Simulation time: 0 hr 38 min 6 sec) 

Region of Interest Statistics
cpu0_DTLB TOTAL     ACCESS:     497519  HIT:     490097  MISS:       7422
cpu0_DTLB LOAD      ACCESS:     361549  HIT:     356727  MISS:       4822
cpu0_DTLB RFO       ACCESS:     135970  HIT:     133370  MISS:       2600
cpu0_DTLB PREFETCH  ACCESS:          0  HIT:          0  MISS:          0
cpu0_DTLB WRITEBACK ACCESS:          0  HIT:          0  MISS:          0
cpu0_ITLB TOTAL     ACCESS:     122847  HIT:     122846  MISS:          1
cpu0_ITLB LOAD      ACCESS:     122847  HIT:     122846  MISS:          1
cpu0_ITLB RFO       ACCESS:          0  HIT:          0  MISS:          0
cpu0_ITLB PREFETCH  ACCESS:          0  HIT:          0  MISS:          0
cpu0_ITLB WRITEBACK ACCESS:          0  HIT:          0  MISS:          0
cpu0_L1I TOTAL     ACCESS:      15499  HIT:      15251  MISS:        248
cpu0_L1I LOAD      ACCESS:      15499  HIT:      15251  MISS:        248
cpu0_L1I RFO       ACCESS:          0  HIT:          0  MISS:          0
cpu0_L1I PREFETCH  ACCESS:          0  HIT:          0  MISS:          0
cpu0_L1I WRITEBACK ACCESS:          0  HIT:          0  MISS:          0
cpu0_STLB TOTAL     ACCESS:       7423  HIT:       7053  MISS:        370
cpu0_STLB LOAD      ACCESS:       4823  HIT:       4755  MISS:         68
cpu0_STLB RFO       ACCESS:       2600  HIT:       2298  MISS:        302
cpu0_STLB PREFETCH  ACCESS:          0  HIT:          0  MISS:          0
cpu0_STLB WRITEBACK ACCESS:          0  HIT:          0  MISS:          0
cpu0_L1D TOTAL     ACCESS:     408455  HIT:     325794  MISS:      82661
cpu0_L1D LOAD      ACCESS:     259989  HIT:     215529  MISS:      44460
cpu0_L1D RFO       ACCESS:     148099  HIT:     109933  MISS:      38166
cpu0_L1D PREFETCH  ACCESS:          0  HIT:          0  MISS:          0
cpu0_L1D WRITEBACK ACCESS:          0  HIT:          0  MISS:          0
cpu0_L2C TOTAL     ACCESS:     138902  HIT:      63280  MISS:      75622
cpu0_L2C LOAD      ACCESS:      44702  HIT:       6302  MISS:      38400
cpu0_L2C RFO       ACCESS:      38166  HIT:        986  MISS:      37180
cpu0_L2C PREFETCH  ACCESS:          0  HIT:          0  MISS:          0
cpu0_L2C WRITEBACK ACCESS:      55999  HIT:      55971  MISS:         28
LLC TOTAL     ACCESS:     127362  HIT:       1189  MISS:     126173
LLC LOAD      ACCESS:      38400  HIT:        976  MISS:      37424
LLC RFO       ACCESS:      37180  HIT:        186  MISS:      36994
LLC PREFETCH  ACCESS:          0  HIT:          0  MISS:          0
LLC WRITEBACK ACCESS:      51768  HIT:         27  MISS:      51741
Heartbeat CPU 0 instructions: 54000001 cycles: 23333067 heartbeat IPC: 1.77812 cumulative IPC: 0.59832 (Simulation time: 0 hr 39 min 54 sec) 

Region of Interest Statistics
cpu0_DTLB TOTAL     ACCESS:    1106149  HIT:    1098522  MISS:       7627
cpu0_DTLB LOAD      ACCESS:     932955  HIT:     927933  MISS:       5022
cpu0_DTLB RFO       ACCESS:     173194  HIT:     170589  MISS:       2605
cpu0_DTLB PREFETCH  ACCESS:          0  HIT:          0  MISS:          0
cpu0_DTLB WRITEBACK ACCESS:          0  HIT:          0  MISS:          0
cpu0_ITLB TOTAL     ACCESS:     156073  HIT:     156072  MISS:          1
cpu0_ITLB LOAD      ACCESS:     156073  HIT:     156072  MISS:          1
cpu0_ITLB RFO       ACCESS:          0  HIT:          0  MISS:          0
cpu0_ITLB PREFETCH  ACCESS:          0  HIT:          0  MISS:          0
cpu0_ITLB WRITEBACK ACCESS:          0  HIT:          0  MISS:          0
cpu0_L1I TOTAL     ACCESS:      16204  HIT:      15956  MISS:        248
cpu0_L1I LOAD      ACCESS:      16204  HIT:      15956  MISS:        248
cpu0_L1I RFO       ACCESS:          0  HIT:          0  MISS:          0
cpu0_L1I PREFETCH  ACCESS:          0  HIT:          0  MISS:          0
cpu0_L1I WRITEBACK ACCESS:          0  HIT:          0  MISS:          0
cpu0_STLB TOTAL     ACCESS:       7628  HIT:       7182  MISS:        446
cpu0_STLB LOAD      ACCESS:       5023  HIT:       4879  MISS:        144
cpu0_STLB RFO       ACCESS:       2605  HIT:       2303  MISS:        302
cpu0_STLB PREFETCH  ACCESS:          0  HIT:          0  MISS:          0
cpu0_STLB WRITEBACK ACCESS:          0  HIT:          0  MISS:          0
cpu0_L1D TOTAL     ACCESS:     944318  HIT:     831321  MISS:     112997
cpu0_L1D LOAD      ACCESS:     742024  HIT:     668563  MISS:      73461
cpu0_L1D RFO       ACCESS:     201851  HIT:     162388  MISS:      39463
cpu0_L1D PREFETCH  ACCESS:          0  HIT:          0  MISS:          0
cpu0_L1D WRITEBACK ACCESS:          0  HIT:          0  MISS:          0
cpu0_L2C TOTAL     ACCESS:     175082  HIT:      90100  MISS:      84982
cpu0_L2C LOAD      ACCESS:      73688  HIT:      25928  MISS:      47760
cpu0_L2C RFO       ACCESS:      39463  HIT:       2283  MISS:      37180
cpu0_L2C PREFETCH  ACCESS:          0  HIT:          0  MISS:          0
cpu0_L2C WRITEBACK ACCESS:      61858  HIT:      61830  MISS:         28
LLC TOTAL     ACCESS:     142500  HIT:       1393  MISS:     141107
LLC LOAD      ACCESS:      47760  HIT:        976  MISS:      46784
LLC RFO       ACCESS:      37180  HIT:        186  MISS:      36994
LLC PREFETCH  ACCESS:          0  HIT:          0  MISS:          0
LLC WRITEBACK ACCESS:      57546  HIT:        231  MISS:      57315
Heartbeat CPU 0 instructions: 56000003 cycles: 24385316 heartbeat IPC: 1.90069 cumulative IPC: 0.775431 (Simulation time: 0 hr 41 min 34 sec) 

Region of Interest Statistics
cpu0_DTLB TOTAL     ACCESS:    1715582  HIT:    1707784  MISS:       7798
cpu0_DTLB LOAD      ACCESS:    1505144  HIT:    1499956  MISS:       5188
cpu0_DTLB RFO       ACCESS:     210438  HIT:     207828  MISS:       2610
cpu0_DTLB PREFETCH  ACCESS:          0  HIT:          0  MISS:          0
cpu0_DTLB WRITEBACK ACCESS:          0  HIT:          0  MISS:          0
cpu0_ITLB TOTAL     ACCESS:     189044  HIT:     189043  MISS:          1
cpu0_ITLB LOAD      ACCESS:     189044  HIT:     189043  MISS:          1
cpu0_ITLB RFO       ACCESS:          0  HIT:          0  MISS:          0
cpu0_ITLB PREFETCH  ACCESS:          0  HIT:          0  MISS:          0
cpu0_ITLB WRITEBACK ACCESS:          0  HIT:          0  MISS:          0
cpu0_L1I TOTAL     ACCESS:      16876  HIT:      16628  MISS:        248
cpu0_L1I LOAD      ACCESS:      16876  HIT:      16628  MISS:        248
cpu0_L1I RFO       ACCESS:          0  HIT:          0  MISS:          0
cpu0_L1I PREFETCH  ACCESS:          0  HIT:          0  MISS:          0
cpu0_L1I WRITEBACK ACCESS:          0  HIT:          0  MISS:          0
cpu0_STLB TOTAL     ACCESS:       7799  HIT:       7264  MISS:        535
cpu0_STLB LOAD      ACCESS:       5189  HIT:       4956  MISS:        233
cpu0_STLB RFO       ACCESS:       2610  HIT:       2308  MISS:        302
cpu0_STLB PREFETCH  ACCESS:          0  HIT:          0  MISS:          0
cpu0_STLB WRITEBACK ACCESS:          0  HIT:          0  MISS:          0
cpu0_L1D TOTAL     ACCESS:    1480741  HIT:    1337669  MISS:     143072
cpu0_L1D LOAD      ACCESS:    1224955  HIT:    1122751  MISS:     102204
cpu0_L1D RFO       ACCESS:     255254  HIT:     214503  MISS:      40751
cpu0_L1D PREFETCH  ACCESS:          0  HIT:          0  MISS:          0
cpu0_L1D WRITEBACK ACCESS:          0  HIT:          0  MISS:          0
cpu0_L2C TOTAL     ACCESS:     211120  HIT:     116895  MISS:      94225
cpu0_L2C LOAD      ACCESS:     102410  HIT:      45408  MISS:      57002
cpu0_L2C RFO       ACCESS:      40751  HIT:       3571  MISS:      37180
cpu0_L2C PREFETCH  ACCESS:          0  HIT:          0  MISS:          0
cpu0_L2C WRITEBACK ACCESS:      67842  HIT:      67814  MISS:         28
LLC TOTAL     ACCESS:     154856  HIT:       1465  MISS:     153391
LLC LOAD      ACCESS:      57002  HIT:        976  MISS:      56026
LLC RFO       ACCESS:      37180  HIT:        186  MISS:      36994
LLC PREFETCH  ACCESS:          0  HIT:          0  MISS:          0
LLC WRITEBACK ACCESS:      60659  HIT:        303  MISS:      60356
Heartbeat CPU 0 instructions: 58000002 cycles: 25581545 heartbeat IPC: 1.67192 cumulative IPC: 0.895469 (Simulation time: 0 hr 43 min 12 sec) 

Region of Interest Statistics
cpu0_DTLB TOTAL     ACCESS:    2215880  HIT:    2207909  MISS:       7971
cpu0_DTLB LOAD      ACCESS:    1963099  HIT:    1957741  MISS:       5358
cpu0_DTLB RFO       ACCESS:     252781  HIT:     250168  MISS:       2613
cpu0_DTLB PREFETCH  ACCESS:          0  HIT:          0  MISS:          0
cpu0_DTLB WRITEBACK ACCESS:          0  HIT:          0  MISS:          0
cpu0_ITLB TOTAL     ACCESS:     230023  HIT:     230022  MISS:          1
cpu0_ITLB LOAD      ACCESS:     230023  HIT:     230022  MISS:          1
cpu0_ITLB RFO       ACCESS:          0  HIT:          0  MISS:          0
cpu0_ITLB PREFETCH  ACCESS:          0  HIT:          0  MISS:          0
cpu0_ITLB WRITEBACK ACCESS:          0  HIT:          0  MISS:          0
cpu0_L1I TOTAL     ACCESS:      18059  HIT:      17754  MISS:        305
cpu0_L1I LOAD      ACCESS:      18059  HIT:      17754  MISS:        305
cpu0_L1I RFO       ACCESS:          0  HIT:          0  MISS:          0
cpu0_L1I PREFETCH  ACCESS:          0  HIT:          0  MISS:          0
cpu0_L1I WRITEBACK ACCESS:          0  HIT:          0  MISS:          0
cpu0_STLB TOTAL     ACCESS:       7972  HIT:       7409  MISS:        563
cpu0_STLB LOAD      ACCESS:       5359  HIT:       5099  MISS:        260
cpu0_STLB RFO       ACCESS:       2613  HIT:       2310  MISS:        303
cpu0_STLB PREFETCH  ACCESS:          0  HIT:          0  MISS:          0
cpu0_STLB WRITEBACK ACCESS:          0  HIT:          0  MISS:          0
cpu0_L1D TOTAL     ACCESS:    1890705  HIT:    1730493  MISS:     160212
cpu0_L1D LOAD      ACCESS:    1579000  HIT:    1460190  MISS:     118810
cpu0_L1D RFO       ACCESS:     311145  HIT:     269872  MISS:      41273
cpu0_L1D PREFETCH  ACCESS:          0  HIT:          0  MISS:          0
cpu0_L1D WRITEBACK ACCESS:          0  HIT:          0  MISS:          0
cpu0_L2C TOTAL     ACCESS:     232592  HIT:     128473  MISS:     104119
cpu0_L2C LOAD      ACCESS:     119066  HIT:      52303  MISS:      66763
cpu0_L2C RFO       ACCESS:      41273  HIT:       3966  MISS:      37307
cpu0_L2C PREFETCH  ACCESS:          0  HIT:          0  MISS:          0
cpu0_L2C WRITEBACK ACCESS:      72124  HIT:      72091  MISS:         33
LLC TOTAL     ACCESS:     167964  HIT:       1700  MISS:     166264
LLC LOAD      ACCESS:      66763  HIT:        976  MISS:      65787
LLC RFO       ACCESS:      37307  HIT:        186  MISS:      37121
LLC PREFETCH  ACCESS:          0  HIT:          0  MISS:          0
LLC WRITEBACK ACCESS:      63878  HIT:        538  MISS:      63340
Heartbeat CPU 0 instructions: 60000003 cycles: 26823712 heartbeat IPC: 1.61009 cumulative IPC: 0.982702 (Simulation time: 0 hr 44 min 49 sec) 

Region of Interest Statistics
cpu0_DTLB TOTAL     ACCESS:    2662687  HIT:    2654558  MISS:       8129
cpu0_DTLB LOAD      ACCESS:    2364979  HIT:    2359463  MISS:       5516
cpu0_DTLB RFO       ACCESS:     297708  HIT:     295095  MISS:       2613
cpu0_DTLB PREFETCH  ACCESS:          0  HIT:          0  MISS:          0
cpu0_DTLB WRITEBACK ACCESS:          0  HIT:          0  MISS:          0
cpu0_ITLB TOTAL     ACCESS:     273163  HIT:     273162  MISS:          1
cpu0_ITLB LOAD      ACCESS:     273163  HIT:     273162  MISS:          1
cpu0_ITLB RFO       ACCESS:          0  HIT:          0  MISS:          0
cpu0_ITLB PREFETCH  ACCESS:          0  HIT:          0  MISS:          0
cpu0_ITLB WRITEBACK ACCESS:          0  HIT:          0  MISS:          0
cpu0_L1I TOTAL     ACCESS:      19422  HIT:      19117  MISS:        305
cpu0_L1I LOAD      ACCESS:      19422  HIT:      19117  MISS:        305
cpu0_L1I RFO       ACCESS:          0  HIT:          0  MISS:          0
cpu0_L1I PREFETCH  ACCESS:          0  HIT:          0  MISS:          0
cpu0_L1I WRITEBACK ACCESS:          0  HIT:          0  MISS:          0
cpu0_STLB TOTAL     ACCESS:       8130  HIT:       7567  MISS:        563
cpu0_STLB LOAD      ACCESS:       5517  HIT:       5257  MISS:        260
cpu0_STLB RFO       ACCESS:       2613  HIT:       2310  MISS:        303
cpu0_STLB PREFETCH  ACCESS:          0  HIT:          0  MISS:          0
cpu0_STLB WRITEBACK ACCESS:          0  HIT:          0  MISS:          0
cpu0_L1D TOTAL     ACCESS:    2242735  HIT:    2072762  MISS:     169973
cpu0_L1D LOAD      ACCESS:    1874071  HIT:    1745500  MISS:     128571
cpu0_L1D RFO       ACCESS:     368104  HIT:     326831  MISS:      41273
cpu0_L1D PREFETCH  ACCESS:          0  HIT:          0  MISS:          0
cpu0_L1D WRITEBACK ACCESS:          0  HIT:          0  MISS:          0
cpu0_L2C TOTAL     ACCESS:     245548  HIT:     131677  MISS:     113871
cpu0_L2C LOAD      ACCESS:     128827  HIT:      52312  MISS:      76515
cpu0_L2C RFO       ACCESS:      41273  HIT:       3966  MISS:      37307
cpu0_L2C PREFETCH  ACCESS:          0  HIT:          0  MISS:          0
cpu0_L2C WRITEBACK ACCESS:      75319  HIT:      75286  MISS:         33
LLC TOTAL     ACCESS:     180985  HIT:       1720  MISS:     179265
LLC LOAD      ACCESS:      76515  HIT:        996  MISS:      75519
LLC RFO       ACCESS:      37307  HIT:        186  MISS:      37121
LLC PREFETCH  ACCESS:          0  HIT:          0  MISS:          0
LLC WRITEBACK ACCESS:      67147  HIT:        538  MISS:      66609
Heartbeat CPU 0 instructions: 62000002 cycles: 28062942 heartbeat IPC: 1.6139 cumulative IPC: 1.05122 (Simulation time: 0 hr 46 min 23 sec) 

Region of Interest Statistics
cpu0_DTLB TOTAL     ACCESS:    3109528  HIT:    3101241  MISS:       8287
cpu0_DTLB LOAD      ACCESS:    2766904  HIT:    2761230  MISS:       5674
cpu0_DTLB RFO       ACCESS:     342624  HIT:     340011  MISS:       2613
cpu0_DTLB PREFETCH  ACCESS:          0  HIT:          0  MISS:          0
cpu0_DTLB WRITEBACK ACCESS:          0  HIT:          0  MISS:          0
cpu0_ITLB TOTAL     ACCESS:     315507  HIT:     315506  MISS:          1
cpu0_ITLB LOAD      ACCESS:     315507  HIT:     315506  MISS:          1
cpu0_ITLB RFO       ACCESS:          0  HIT:          0  MISS:          0
cpu0_ITLB PREFETCH  ACCESS:          0  HIT:          0  MISS:          0
cpu0_ITLB WRITEBACK ACCESS:          0  HIT:          0  MISS:          0
cpu0_L1I TOTAL     ACCESS:      20742  HIT:      20437  MISS:        305
cpu0_L1I LOAD      ACCESS:      20742  HIT:      20437  MISS:        305
cpu0_L1I RFO       ACCESS:          0  HIT:          0  MISS:          0
cpu0_L1I PREFETCH  ACCESS:          0  HIT:          0  MISS:          0
cpu0_L1I WRITEBACK ACCESS:          0  HIT:          0  MISS:          0
cpu0_STLB TOTAL     ACCESS:       8288  HIT:       7722  MISS:        566
cpu0_STLB LOAD      ACCESS:       5675  HIT:       5412  MISS:        263
cpu0_STLB RFO       ACCESS:       2613  HIT:       2310  MISS:        303
cpu0_STLB PREFETCH  ACCESS:          0  HIT:          0  MISS:          0
cpu0_STLB WRITEBACK ACCESS:          0  HIT:          0  MISS:          0
cpu0_L1D TOTAL     ACCESS:    2594226  HIT:    2414600  MISS:     179626
cpu0_L1D LOAD      ACCESS:    2168999  HIT:    2030776  MISS:     138223
cpu0_L1D RFO       ACCESS:     424664  HIT:     383391  MISS:      41273
cpu0_L1D PREFETCH  ACCESS:          0  HIT:          0  MISS:          0
cpu0_L1D WRITEBACK ACCESS:          0  HIT:          0  MISS:          0
cpu0_L2C TOTAL     ACCESS:     258396  HIT:     134884  MISS:     123512
cpu0_L2C LOAD      ACCESS:     138479  HIT:      52324  MISS:      86155
cpu0_L2C RFO       ACCESS:      41273  HIT:       3966  MISS:      37307
cpu0_L2C PREFETCH  ACCESS:          0  HIT:          0  MISS:          0
cpu0_L2C WRITEBACK ACCESS:      78514  HIT:      78481  MISS:         33
LLC TOTAL     ACCESS:     193689  HIT:       1720  MISS:     191969
LLC LOAD      ACCESS:      86155  HIT:        996  MISS:      85159
LLC RFO       ACCESS:      37307  HIT:        186  MISS:      37121
LLC PREFETCH  ACCESS:          0  HIT:          0  MISS:          0
LLC WRITEBACK ACCESS:      70210  HIT:        538  MISS:      69672
Heartbeat CPU 0 instructions: 64000000 cycles: 29404282 heartbeat IPC: 1.49104 cumulative IPC: 1.09747 (Simulation time: 0 hr 48 min 11 sec) 

Region of Interest Statistics
cpu0_DTLB TOTAL     ACCESS:    3545551  HIT:    3537054  MISS:       8497
cpu0_DTLB LOAD      ACCESS:    3169442  HIT:    3163561  MISS:       5881
cpu0_DTLB RFO       ACCESS:     376109  HIT:     373493  MISS:       2616
cpu0_DTLB PREFETCH  ACCESS:          0  HIT:          0  MISS:          0
cpu0_DTLB WRITEBACK ACCESS:          0  HIT:          0  MISS:          0
cpu0_ITLB TOTAL     ACCESS:     355269  HIT:     355268  MISS:          1
cpu0_ITLB LOAD      ACCESS:     355269  HIT:     355268  MISS:          1
cpu0_ITLB RFO       ACCESS:          0  HIT:          0  MISS:          0
cpu0_ITLB PREFETCH  ACCESS:          0  HIT:          0  MISS:          0
cpu0_ITLB WRITEBACK ACCESS:          0  HIT:          0  MISS:          0
cpu0_L1I TOTAL     ACCESS:      21738  HIT:      21394  MISS:        344
cpu0_L1I LOAD      ACCESS:      21738  HIT:      21394  MISS:        344
cpu0_L1I RFO       ACCESS:          0  HIT:          0  MISS:          0
cpu0_L1I PREFETCH  ACCESS:          0  HIT:          0  MISS:          0
cpu0_L1I WRITEBACK ACCESS:          0  HIT:          0  MISS:          0
cpu0_STLB TOTAL     ACCESS:       8498  HIT:       7871  MISS:        627
cpu0_STLB LOAD      ACCESS:       5882  HIT:       5559  MISS:        323
cpu0_STLB RFO       ACCESS:       2616  HIT:       2312  MISS:        304
cpu0_STLB PREFETCH  ACCESS:          0  HIT:          0  MISS:          0
cpu0_STLB WRITEBACK ACCESS:          0  HIT:          0  MISS:          0
cpu0_L1D TOTAL     ACCESS:    3059490  HIT:    2867618  MISS:     191872
cpu0_L1D LOAD      ACCESS:    2565833  HIT:    2415497  MISS:     150336
cpu0_L1D RFO       ACCESS:     493034  HIT:     451631  MISS:      41403
cpu0_L1D PREFETCH  ACCESS:          0  HIT:          0  MISS:          0
cpu0_L1D WRITEBACK ACCESS:          0  HIT:          0  MISS:          0
cpu0_L2C TOTAL     ACCESS:     274862  HIT:     138949  MISS:     135913
cpu0_L2C LOAD      ACCESS:     150631  HIT:      52337  MISS:      98294
cpu0_L2C RFO       ACCESS:      41403  HIT:       3966  MISS:      37437
cpu0_L2C PREFETCH  ACCESS:          0  HIT:          0  MISS:          0
cpu0_L2C WRITEBACK ACCESS:      82695  HIT:      82532  MISS:        163
LLC TOTAL     ACCESS:     210236  HIT:       1752  MISS:     208484
LLC LOAD      ACCESS:      98294  HIT:        996  MISS:      97298
LLC RFO       ACCESS:      37437  HIT:        186  MISS:      37251
LLC PREFETCH  ACCESS:          0  HIT:          0  MISS:          0
LLC WRITEBACK ACCESS:      74486  HIT:        570  MISS:      73916
Heartbeat CPU 0 instructions: 66000001 cycles: 30744662 heartbeat IPC: 1.49211 cumulative IPC: 1.13499 (Simulation time: 0 hr 50 min 8 sec) 

Region of Interest Statistics
cpu0_DTLB TOTAL     ACCESS:    3981329  HIT:    3972634  MISS:       8695
cpu0_DTLB LOAD      ACCESS:    3571790  HIT:    3565711  MISS:       6079
cpu0_DTLB RFO       ACCESS:     409539  HIT:     406923  MISS:       2616
cpu0_DTLB PREFETCH  ACCESS:          0  HIT:          0  MISS:          0
cpu0_DTLB WRITEBACK ACCESS:          0  HIT:          0  MISS:          0
cpu0_ITLB TOTAL     ACCESS:     394810  HIT:     394809  MISS:          1
cpu0_ITLB LOAD      ACCESS:     394810  HIT:     394809  MISS:          1
cpu0_ITLB RFO       ACCESS:          0  HIT:          0  MISS:          0
cpu0_ITLB PREFETCH  ACCESS:          0  HIT:          0  MISS:          0
cpu0_ITLB WRITEBACK ACCESS:          0  HIT:          0  MISS:          0
cpu0_L1I TOTAL     ACCESS:      22654  HIT:      22310  MISS:        344
cpu0_L1I LOAD      ACCESS:      22654  HIT:      22310  MISS:        344
cpu0_L1I RFO       ACCESS:          0  HIT:          0  MISS:          0
cpu0_L1I PREFETCH  ACCESS:          0  HIT:          0  MISS:          0
cpu0_L1I WRITEBACK ACCESS:          0  HIT:          0  MISS:          0
cpu0_STLB TOTAL     ACCESS:       8696  HIT:       8005  MISS:        691
cpu0_STLB LOAD      ACCESS:       6080  HIT:       5693  MISS:        387
cpu0_STLB RFO       ACCESS:       2616  HIT:       2312  MISS:        304
cpu0_STLB PREFETCH  ACCESS:          0  HIT:          0  MISS:          0
cpu0_STLB WRITEBACK ACCESS:          0  HIT:          0  MISS:          0
cpu0_L1D TOTAL     ACCESS:    3525527  HIT:    3321570  MISS:     203957
cpu0_L1D LOAD      ACCESS:    2962579  HIT:    2800158  MISS:     162421
cpu0_L1D RFO       ACCESS:     562261  HIT:     520858  MISS:      41403
cpu0_L1D PREFETCH  ACCESS:          0  HIT:          0  MISS:          0
cpu0_L1D WRITEBACK ACCESS:          0  HIT:          0  MISS:          0
cpu0_L2C TOTAL     ACCESS:     290992  HIT:     143007  MISS:     147985
cpu0_L2C LOAD      ACCESS:     162716  HIT:      52350  MISS:     110366
cpu0_L2C RFO       ACCESS:      41403  HIT:       3966  MISS:      37437
cpu0_L2C PREFETCH  ACCESS:          0  HIT:          0  MISS:          0
cpu0_L2C WRITEBACK ACCESS:      86740  HIT:      86577  MISS:        163
LLC TOTAL     ACCESS:     226428  HIT:       1753  MISS:     224675
LLC LOAD      ACCESS:     110366  HIT:        996  MISS:     109370
LLC RFO       ACCESS:      37437  HIT:        186  MISS:      37251
LLC PREFETCH  ACCESS:          0  HIT:          0  MISS:          0
LLC WRITEBACK ACCESS:      78606  HIT:        571  MISS:      78035
Heartbeat CPU 0 instructions: 68000003 cycles: 32268761 heartbeat IPC: 1.31225 cumulative IPC: 1.15229 (Simulation time: 0 hr 52 min 18 sec) 

Region of Interest Statistics
cpu0_DTLB TOTAL     ACCESS:    4501712  HIT:    4492756  MISS:       8956
cpu0_DTLB LOAD      ACCESS:    4061527  HIT:    4055189  MISS:       6338
cpu0_DTLB RFO       ACCESS:     440185  HIT:     437567  MISS:       2618
cpu0_DTLB PREFETCH  ACCESS:          0  HIT:          0  MISS:          0
cpu0_DTLB WRITEBACK ACCESS:          0  HIT:          0  MISS:          0
cpu0_ITLB TOTAL     ACCESS:     436913  HIT:     436912  MISS:          1
cpu0_ITLB LOAD      ACCESS:     436913  HIT:     436912  MISS:          1
cpu0_ITLB RFO       ACCESS:          0  HIT:          0  MISS:          0
cpu0_ITLB PREFETCH  ACCESS:          0  HIT:          0  MISS:          0
cpu0_ITLB WRITEBACK ACCESS:          0  HIT:          0  MISS:          0
cpu0_L1I TOTAL     ACCESS:     118977  HIT:     118571  MISS:        406
cpu0_L1I LOAD      ACCESS:     118977  HIT:     118571  MISS:        406
cpu0_L1I RFO       ACCESS:          0  HIT:          0  MISS:          0
cpu0_L1I PREFETCH  ACCESS:          0  HIT:          0  MISS:          0
cpu0_L1I WRITEBACK ACCESS:          0  HIT:          0  MISS:          0
cpu0_STLB TOTAL     ACCESS:       8957  HIT:       8108  MISS:        849
cpu0_STLB LOAD      ACCESS:       6339  HIT:       5794  MISS:        545
cpu0_STLB RFO       ACCESS:       2618  HIT:       2314  MISS:        304
cpu0_STLB PREFETCH  ACCESS:          0  HIT:          0  MISS:          0
cpu0_STLB WRITEBACK ACCESS:          0  HIT:          0  MISS:          0
cpu0_L1D TOTAL     ACCESS:    4015030  HIT:    3781868  MISS:     233162
cpu0_L1D LOAD      ACCESS:    3407429  HIT:    3215832  MISS:     191597
cpu0_L1D RFO       ACCESS:     606760  HIT:     565343  MISS:      41417
cpu0_L1D PREFETCH  ACCESS:          0  HIT:          0  MISS:          0
cpu0_L1D WRITEBACK ACCESS:          0  HIT:          0  MISS:          0
cpu0_L2C TOTAL     ACCESS:     324871  HIT:     162296  MISS:     162575
cpu0_L2C LOAD      ACCESS:     191954  HIT:      67155  MISS:     124799
cpu0_L2C RFO       ACCESS:      41417  HIT:       3966  MISS:      37451
cpu0_L2C PREFETCH  ACCESS:          0  HIT:          0  MISS:          0
cpu0_L2C WRITEBACK ACCESS:      91352  HIT:      91051  MISS:        301
LLC TOTAL     ACCESS:     245629  HIT:       1757  MISS:     243872
LLC LOAD      ACCESS:     124799  HIT:        996  MISS:     123803
LLC RFO       ACCESS:      37451  HIT:        186  MISS:      37265
LLC PREFETCH  ACCESS:          0  HIT:          0  MISS:          0
LLC WRITEBACK ACCESS:      83355  HIT:        575  MISS:      82780
Heartbeat CPU 0 instructions: 70000001 cycles: 33757081 heartbeat IPC: 1.3438 cumulative IPC: 1.16895 (Simulation time: 0 hr 54 min 23 sec) 

Region of Interest Statistics
cpu0_DTLB TOTAL     ACCESS:    5032461  HIT:    5023278  MISS:       9183
cpu0_DTLB LOAD      ACCESS:    4562038  HIT:    4555473  MISS:       6565
cpu0_DTLB RFO       ACCESS:     470423  HIT:     467805  MISS:       2618
cpu0_DTLB PREFETCH  ACCESS:          0  HIT:          0  MISS:          0
cpu0_DTLB WRITEBACK ACCESS:          0  HIT:          0  MISS:          0
cpu0_ITLB TOTAL     ACCESS:     479329  HIT:     479328  MISS:          1
cpu0_ITLB LOAD      ACCESS:     479329  HIT:     479328  MISS:          1
cpu0_ITLB RFO       ACCESS:          0  HIT:          0  MISS:          0
cpu0_ITLB PREFETCH  ACCESS:          0  HIT:          0  MISS:          0
cpu0_ITLB WRITEBACK ACCESS:          0  HIT:          0  MISS:          0
cpu0_L1I TOTAL     ACCESS:     226284  HIT:     225878  MISS:        406
cpu0_L1I LOAD      ACCESS:     226284  HIT:     225878  MISS:        406
cpu0_L1I RFO       ACCESS:          0  HIT:          0  MISS:          0
cpu0_L1I PREFETCH  ACCESS:          0  HIT:          0  MISS:          0
cpu0_L1I WRITEBACK ACCESS:          0  HIT:          0  MISS:          0
cpu0_STLB TOTAL     ACCESS:       9184  HIT:       8191  MISS:        993
cpu0_STLB LOAD      ACCESS:       6566  HIT:       5877  MISS:        689
cpu0_STLB RFO       ACCESS:       2618  HIT:       2314  MISS:        304
cpu0_STLB PREFETCH  ACCESS:          0  HIT:          0  MISS:          0
cpu0_STLB WRITEBACK ACCESS:          0  HIT:          0  MISS:          0
cpu0_L1D TOTAL     ACCESS:    4508537  HIT:    4244212  MISS:     264325
cpu0_L1D LOAD      ACCESS:    3859293  HIT:    3636551  MISS:     222742
cpu0_L1D RFO       ACCESS:     648259  HIT:     606842  MISS:      41417
cpu0_L1D PREFETCH  ACCESS:          0  HIT:          0  MISS:          0
cpu0_L1D WRITEBACK ACCESS:          0  HIT:          0  MISS:          0
cpu0_L2C TOTAL     ACCESS:     360349  HIT:     183821  MISS:     176528
cpu0_L2C LOAD      ACCESS:     223099  HIT:      84348  MISS:     138751
cpu0_L2C RFO       ACCESS:      41417  HIT:       3966  MISS:      37451
cpu0_L2C PREFETCH  ACCESS:          0  HIT:          0  MISS:          0
cpu0_L2C WRITEBACK ACCESS:      95667  HIT:      95366  MISS:        301
LLC TOTAL     ACCESS:     264106  HIT:       1757  MISS:     262349
LLC LOAD      ACCESS:     138751  HIT:        996  MISS:     137755
LLC RFO       ACCESS:      37451  HIT:        186  MISS:      37265
LLC PREFETCH  ACCESS:          0  HIT:          0  MISS:          0
LLC WRITEBACK ACCESS:      87879  HIT:        575  MISS:      87304
Heartbeat CPU 0 instructions: 72000000 cycles: 39520807 heartbeat IPC: 0.346998 cumulative IPC: 0.961827 (Simulation time: 0 hr 59 min 33 sec) 

Region of Interest Statistics
cpu0_DTLB TOTAL     ACCESS:    5469554  HIT:    5452651  MISS:      16903
cpu0_DTLB LOAD      ACCESS:    4858227  HIT:    4846726  MISS:      11501
cpu0_DTLB RFO       ACCESS:     611327  HIT:     605925  MISS:       5402
cpu0_DTLB PREFETCH  ACCESS:          0  HIT:          0  MISS:          0
cpu0_DTLB WRITEBACK ACCESS:          0  HIT:          0  MISS:          0
cpu0_ITLB TOTAL     ACCESS:     640195  HIT:     640194  MISS:          1
cpu0_ITLB LOAD      ACCESS:     640195  HIT:     640194  MISS:          1
cpu0_ITLB RFO       ACCESS:          0  HIT:          0  MISS:          0
cpu0_ITLB PREFETCH  ACCESS:          0  HIT:          0  MISS:          0
cpu0_ITLB WRITEBACK ACCESS:          0  HIT:          0  MISS:          0
cpu0_L1I TOTAL     ACCESS:     241355  HIT:     240744  MISS:        611
cpu0_L1I LOAD      ACCESS:     241355  HIT:     240744  MISS:        611
cpu0_L1I RFO       ACCESS:          0  HIT:          0  MISS:          0
cpu0_L1I PREFETCH  ACCESS:          0  HIT:          0  MISS:          0
cpu0_L1I WRITEBACK ACCESS:          0  HIT:          0  MISS:          0
cpu0_STLB TOTAL     ACCESS:      16904  HIT:      15604  MISS:       1300
cpu0_STLB LOAD      ACCESS:      11502  HIT:      10776  MISS:        726
cpu0_STLB RFO       ACCESS:       5402  HIT:       4828  MISS:        574
cpu0_STLB PREFETCH  ACCESS:          0  HIT:          0  MISS:          0
cpu0_STLB WRITEBACK ACCESS:          0  HIT:          0  MISS:          0
cpu0_L1D TOTAL     ACCESS:    4861407  HIT:    4507920  MISS:     353487
cpu0_L1D LOAD      ACCESS:    4059873  HIT:    3789440  MISS:     270433
cpu0_L1D RFO       ACCESS:     800244  HIT:     717381  MISS:      82863
cpu0_L1D PREFETCH  ACCESS:          0  HIT:          0  MISS:          0
cpu0_L1D WRITEBACK ACCESS:          0  HIT:          0  MISS:          0
cpu0_L2C TOTAL     ACCESS:     508004  HIT:     245587  MISS:     262417
cpu0_L2C LOAD      ACCESS:     270995  HIT:      86092  MISS:     184903
cpu0_L2C RFO       ACCESS:      82863  HIT:       5720  MISS:      77143
cpu0_L2C PREFETCH  ACCESS:          0  HIT:          0  MISS:          0
cpu0_L2C WRITEBACK ACCESS:     153955  HIT:     153618  MISS:        337
LLC TOTAL     ACCESS:     400491  HIT:       4620  MISS:     395871
LLC LOAD      ACCESS:     184903  HIT:       2109  MISS:     182794
LLC RFO       ACCESS:      77143  HIT:       1883  MISS:      75260
LLC PREFETCH  ACCESS:          0  HIT:          0  MISS:          0
LLC WRITEBACK ACCESS:     138411  HIT:        628  MISS:     137783
Heartbeat CPU 0 instructions: 74000004 cycles: 41554791 heartbeat IPC: 0.983294 cumulative IPC: 0.96358 (Simulation time: 1 hr 2 min 4 sec) 

Region of Interest Statistics
cpu0_DTLB TOTAL     ACCESS:    6064983  HIT:    6047658  MISS:      17325
cpu0_DTLB LOAD      ACCESS:    5394979  HIT:    5383246  MISS:      11733
cpu0_DTLB RFO       ACCESS:     670004  HIT:     664412  MISS:       5592
cpu0_DTLB PREFETCH  ACCESS:          0  HIT:          0  MISS:          0
cpu0_DTLB WRITEBACK ACCESS:          0  HIT:          0  MISS:          0
cpu0_ITLB TOTAL     ACCESS:     685083  HIT:     685082  MISS:          1
cpu0_ITLB LOAD      ACCESS:     685083  HIT:     685082  MISS:          1
cpu0_ITLB RFO       ACCESS:          0  HIT:          0  MISS:          0
cpu0_ITLB PREFETCH  ACCESS:          0  HIT:          0  MISS:          0
cpu0_ITLB WRITEBACK ACCESS:          0  HIT:          0  MISS:          0
cpu0_L1I TOTAL     ACCESS:     246827  HIT:     246098  MISS:        729
cpu0_L1I LOAD      ACCESS:     246827  HIT:     246098  MISS:        729
cpu0_L1I RFO       ACCESS:          0  HIT:          0  MISS:          0
cpu0_L1I PREFETCH  ACCESS:          0  HIT:          0  MISS:          0
cpu0_L1I WRITEBACK ACCESS:          0  HIT:          0  MISS:          0
cpu0_STLB TOTAL     ACCESS:      17326  HIT:      15828  MISS:       1498
cpu0_STLB LOAD      ACCESS:      11734  HIT:      10904  MISS:        830
cpu0_STLB RFO       ACCESS:       5592  HIT:       4924  MISS:        668
cpu0_STLB PREFETCH  ACCESS:          0  HIT:          0  MISS:          0
cpu0_STLB WRITEBACK ACCESS:          0  HIT:          0  MISS:          0
cpu0_L1D TOTAL     ACCESS:    5371125  HIT:    4978139  MISS:     392986
cpu0_L1D LOAD      ACCESS:    4507615  HIT:    4210080  MISS:     297535
cpu0_L1D RFO       ACCESS:     862023  HIT:     766808  MISS:      95215
cpu0_L1D PREFETCH  ACCESS:          0  HIT:          0  MISS:          0
cpu0_L1D WRITEBACK ACCESS:          0  HIT:          0  MISS:          0
cpu0_L2C TOTAL     ACCESS:     564742  HIT:     281489  MISS:     283253
cpu0_L2C LOAD      ACCESS:     298197  HIT:     103670  MISS:     194527
cpu0_L2C RFO       ACCESS:      95215  HIT:       6868  MISS:      88347
cpu0_L2C PREFETCH  ACCESS:          0  HIT:          0  MISS:          0
cpu0_L2C WRITEBACK ACCESS:     171094  HIT:     170754  MISS:        340
LLC TOTAL     ACCESS:     440633  HIT:       4622  MISS:     436011
LLC LOAD      ACCESS:     194527  HIT:       2110  MISS:     192417
LLC RFO       ACCESS:      88347  HIT:       1884  MISS:      86463
LLC PREFETCH  ACCESS:          0  HIT:          0  MISS:          0
LLC WRITEBACK ACCESS:     157720  HIT:        628  MISS:     157092
Heartbeat CPU 0 instructions: 76000004 cycles: 42616760 heartbeat IPC: 1.88329 cumulative IPC: 1.00119 (Simulation time: 1 hr 3 min 50 sec) 

Region of Interest Statistics
cpu0_DTLB TOTAL     ACCESS:    6673811  HIT:    6656298  MISS:      17513
cpu0_DTLB LOAD      ACCESS:    5966555  HIT:    5954640  MISS:      11915
cpu0_DTLB RFO       ACCESS:     707256  HIT:     701658  MISS:       5598
cpu0_DTLB PREFETCH  ACCESS:          0  HIT:          0  MISS:          0
cpu0_DTLB WRITEBACK ACCESS:          0  HIT:          0  MISS:          0
cpu0_ITLB TOTAL     ACCESS:     718754  HIT:     718753  MISS:          1
cpu0_ITLB LOAD      ACCESS:     718754  HIT:     718753  MISS:          1
cpu0_ITLB RFO       ACCESS:          0  HIT:          0  MISS:          0
cpu0_ITLB PREFETCH  ACCESS:          0  HIT:          0  MISS:          0
cpu0_ITLB WRITEBACK ACCESS:          0  HIT:          0  MISS:          0
cpu0_L1I TOTAL     ACCESS:     247515  HIT:     246786  MISS:        729
cpu0_L1I LOAD      ACCESS:     247515  HIT:     246786  MISS:        729
cpu0_L1I RFO       ACCESS:          0  HIT:          0  MISS:          0
cpu0_L1I PREFETCH  ACCESS:          0  HIT:          0  MISS:          0
cpu0_L1I WRITEBACK ACCESS:          0  HIT:          0  MISS:          0
cpu0_STLB TOTAL     ACCESS:      17514  HIT:      15922  MISS:       1592
cpu0_STLB LOAD      ACCESS:      11916  HIT:      10992  MISS:        924
cpu0_STLB RFO       ACCESS:       5598  HIT:       4930  MISS:        668
cpu0_STLB PREFETCH  ACCESS:          0  HIT:          0  MISS:          0
cpu0_STLB WRITEBACK ACCESS:          0  HIT:          0  MISS:          0
cpu0_L1D TOTAL     ACCESS:    5906827  HIT:    5483526  MISS:     423301
cpu0_L1D LOAD      ACCESS:    4989596  HIT:    4663109  MISS:     326487
cpu0_L1D RFO       ACCESS:     915650  HIT:     819111  MISS:      96539
cpu0_L1D PREFETCH  ACCESS:          0  HIT:          0  MISS:          0
cpu0_L1D WRITEBACK ACCESS:          0  HIT:          0  MISS:          0
cpu0_L2C TOTAL     ACCESS:     601020  HIT:     308433  MISS:     292587
cpu0_L2C LOAD      ACCESS:     327129  HIT:     123269  MISS:     203860
cpu0_L2C RFO       ACCESS:      96539  HIT:       8192  MISS:      88347
cpu0_L2C PREFETCH  ACCESS:          0  HIT:          0  MISS:          0
cpu0_L2C WRITEBACK ACCESS:     177077  HIT:     176737  MISS:        340
LLC TOTAL     ACCESS:     453423  HIT:       4734  MISS:     448689
LLC LOAD      ACCESS:     203860  HIT:       2110  MISS:     201750
LLC RFO       ACCESS:      88347  HIT:       1884  MISS:      86463
LLC PREFETCH  ACCESS:          0  HIT:          0  MISS:          0
LLC WRITEBACK ACCESS:     161176  HIT:        740  MISS:     160436
Heartbeat CPU 0 instructions: 78000004 cycles: 43743477 heartbeat IPC: 1.77507 cumulative IPC: 1.03337 (Simulation time: 1 hr 5 min 33 sec) 

Region of Interest Statistics
cpu0_DTLB TOTAL     ACCESS:    7232277  HIT:    7214581  MISS:      17696
cpu0_DTLB LOAD      ACCESS:    6485416  HIT:    6473323  MISS:      12093
cpu0_DTLB RFO       ACCESS:     746861  HIT:     741258  MISS:       5603
cpu0_DTLB PREFETCH  ACCESS:          0  HIT:          0  MISS:          0
cpu0_DTLB WRITEBACK ACCESS:          0  HIT:          0  MISS:          0
cpu0_ITLB TOTAL     ACCESS:     755910  HIT:     755909  MISS:          1
cpu0_ITLB LOAD      ACCESS:     755910  HIT:     755909  MISS:          1
cpu0_ITLB RFO       ACCESS:          0  HIT:          0  MISS:          0
cpu0_ITLB PREFETCH  ACCESS:          0  HIT:          0  MISS:          0
cpu0_ITLB WRITEBACK ACCESS:          0  HIT:          0  MISS:          0
cpu0_L1I TOTAL     ACCESS:     248441  HIT:     247655  MISS:        786
cpu0_L1I LOAD      ACCESS:     248441  HIT:     247655  MISS:        786
cpu0_L1I RFO       ACCESS:          0  HIT:          0  MISS:          0
cpu0_L1I PREFETCH  ACCESS:          0  HIT:          0  MISS:          0
cpu0_L1I WRITEBACK ACCESS:          0  HIT:          0  MISS:          0
cpu0_STLB TOTAL     ACCESS:      17697  HIT:      16041  MISS:       1656
cpu0_STLB LOAD      ACCESS:      12094  HIT:      11107  MISS:        987
cpu0_STLB RFO       ACCESS:       5603  HIT:       4934  MISS:        669
cpu0_STLB PREFETCH  ACCESS:          0  HIT:          0  MISS:          0
cpu0_STLB WRITEBACK ACCESS:          0  HIT:          0  MISS:          0
cpu0_L1D TOTAL     ACCESS:    6383421  HIT:    5935768  MISS:     447653
cpu0_L1D LOAD      ACCESS:    5411532  HIT:    5061701  MISS:     349831
cpu0_L1D RFO       ACCESS:     970244  HIT:     872724  MISS:      97520
cpu0_L1D PREFETCH  ACCESS:          0  HIT:          0  MISS:          0
cpu0_L1D WRITEBACK ACCESS:          0  HIT:          0  MISS:          0
cpu0_L2C TOTAL     ACCESS:     630714  HIT:     328427  MISS:     302287
cpu0_L2C LOAD      ACCESS:     350516  HIT:     137089  MISS:     213427
cpu0_L2C RFO       ACCESS:      97520  HIT:       9046  MISS:      88474
cpu0_L2C PREFETCH  ACCESS:          0  HIT:          0  MISS:          0
cpu0_L2C WRITEBACK ACCESS:     182376  HIT:     182032  MISS:        344
LLC TOTAL     ACCESS:     466093  HIT:       4798  MISS:     461295
LLC LOAD      ACCESS:     213427  HIT:       2110  MISS:     211317
LLC RFO       ACCESS:      88474  HIT:       1884  MISS:      86590
LLC PREFETCH  ACCESS:          0  HIT:          0  MISS:          0
LLC WRITEBACK ACCESS:     164150  HIT:        804  MISS:     163346
Heartbeat CPU 0 instructions: 80000003 cycles: 44965320 heartbeat IPC: 1.63687 cumulative IPC: 1.05941 (Simulation time: 1 hr 7 min 0 sec) 

Region of Interest Statistics
cpu0_DTLB TOTAL     ACCESS:    7679319  HIT:    7661464  MISS:      17855
cpu0_DTLB LOAD      ACCESS:    6887717  HIT:    6875465  MISS:      12252
cpu0_DTLB RFO       ACCESS:     791602  HIT:     785999  MISS:       5603
cpu0_DTLB PREFETCH  ACCESS:          0  HIT:          0  MISS:          0
cpu0_DTLB WRITEBACK ACCESS:          0  HIT:          0  MISS:          0
cpu0_ITLB TOTAL     ACCESS:     798863  HIT:     798862  MISS:          1
cpu0_ITLB LOAD      ACCESS:     798863  HIT:     798862  MISS:          1
cpu0_ITLB RFO       ACCESS:          0  HIT:          0  MISS:          0
cpu0_ITLB PREFETCH  ACCESS:          0  HIT:          0  MISS:          0
cpu0_ITLB WRITEBACK ACCESS:          0  HIT:          0  MISS:          0
cpu0_L1I TOTAL     ACCESS:     249821  HIT:     249035  MISS:        786
cpu0_L1I LOAD      ACCESS:     249821  HIT:     249035  MISS:        786
cpu0_L1I RFO       ACCESS:          0  HIT:          0  MISS:          0
cpu0_L1I PREFETCH  ACCESS:          0  HIT:          0  MISS:          0
cpu0_L1I WRITEBACK ACCESS:          0  HIT:          0  MISS:          0
cpu0_STLB TOTAL     ACCESS:      17856  HIT:      16200  MISS:       1656
cpu0_STLB LOAD      ACCESS:      12253  HIT:      11266  MISS:        987
cpu0_STLB RFO       ACCESS:       5603  HIT:       4934  MISS:        669
cpu0_STLB PREFETCH  ACCESS:          0  HIT:          0  MISS:          0
cpu0_STLB WRITEBACK ACCESS:          0  HIT:          0  MISS:          0
cpu0_L1D TOTAL     ACCESS:    6737903  HIT:    6280483  MISS:     457420
cpu0_L1D LOAD      ACCESS:    5709031  HIT:    5349433  MISS:     359598
cpu0_L1D RFO       ACCESS:    1027227  HIT:     929707  MISS:      97520
cpu0_L1D PREFETCH  ACCESS:          0  HIT:          0  MISS:          0
cpu0_L1D WRITEBACK ACCESS:          0  HIT:          0  MISS:          0
cpu0_L2C TOTAL     ACCESS:     643668  HIT:     331626  MISS:     312042
cpu0_L2C LOAD      ACCESS:     360283  HIT:     137101  MISS:     223182
cpu0_L2C RFO       ACCESS:      97520  HIT:       9046  MISS:      88474
cpu0_L2C PREFETCH  ACCESS:          0  HIT:          0  MISS:          0
cpu0_L2C WRITEBACK ACCESS:     185563  HIT:     185219  MISS:        344
LLC TOTAL     ACCESS:     479242  HIT:       4798  MISS:     474444
LLC LOAD      ACCESS:     223182  HIT:       2110  MISS:     221072
LLC RFO       ACCESS:      88474  HIT:       1884  MISS:      86590
LLC PREFETCH  ACCESS:          0  HIT:          0  MISS:          0
LLC WRITEBACK ACCESS:     167544  HIT:        804  MISS:     166740
Heartbeat CPU 0 instructions: 82000001 cycles: 46179609 heartbeat IPC: 1.64705 cumulative IPC: 1.08357 (Simulation time: 1 hr 8 min 32 sec) 

Region of Interest Statistics
cpu0_DTLB TOTAL     ACCESS:    8126154  HIT:    8108144  MISS:      18010
cpu0_DTLB LOAD      ACCESS:    7289844  HIT:    7277437  MISS:      12407
cpu0_DTLB RFO       ACCESS:     836310  HIT:     830707  MISS:       5603
cpu0_DTLB PREFETCH  ACCESS:          0  HIT:          0  MISS:          0
cpu0_DTLB WRITEBACK ACCESS:          0  HIT:          0  MISS:          0
cpu0_ITLB TOTAL     ACCESS:     841117  HIT:     841116  MISS:          1
cpu0_ITLB LOAD      ACCESS:     841117  HIT:     841116  MISS:          1
cpu0_ITLB RFO       ACCESS:          0  HIT:          0  MISS:          0
cpu0_ITLB PREFETCH  ACCESS:          0  HIT:          0  MISS:          0
cpu0_ITLB WRITEBACK ACCESS:          0  HIT:          0  MISS:          0
cpu0_L1I TOTAL     ACCESS:     251141  HIT:     250355  MISS:        786
cpu0_L1I LOAD      ACCESS:     251141  HIT:     250355  MISS:        786
cpu0_L1I RFO       ACCESS:          0  HIT:          0  MISS:          0
cpu0_L1I PREFETCH  ACCESS:          0  HIT:          0  MISS:          0
cpu0_L1I WRITEBACK ACCESS:          0  HIT:          0  MISS:          0
cpu0_STLB TOTAL     ACCESS:      18011  HIT:      16355  MISS:       1656
cpu0_STLB LOAD      ACCESS:      12408  HIT:      11421  MISS:        987
cpu0_STLB RFO       ACCESS:       5603  HIT:       4934  MISS:        669
cpu0_STLB PREFETCH  ACCESS:          0  HIT:          0  MISS:          0
cpu0_STLB WRITEBACK ACCESS:          0  HIT:          0  MISS:          0
cpu0_L1D TOTAL     ACCESS:    7091657  HIT:    6624585  MISS:     467072
cpu0_L1D LOAD      ACCESS:    6006224  HIT:    5636974  MISS:     369250
cpu0_L1D RFO       ACCESS:    1083788  HIT:     986268  MISS:      97520
cpu0_L1D PREFETCH  ACCESS:          0  HIT:          0  MISS:          0
cpu0_L1D WRITEBACK ACCESS:          0  HIT:          0  MISS:          0
cpu0_L2C TOTAL     ACCESS:     656524  HIT:     334840  MISS:     321684
cpu0_L2C LOAD      ACCESS:     369935  HIT:     137112  MISS:     232823
cpu0_L2C RFO       ACCESS:      97520  HIT:       9046  MISS:      88474
cpu0_L2C PREFETCH  ACCESS:          0  HIT:          0  MISS:          0
cpu0_L2C WRITEBACK ACCESS:     188767  HIT:     188422  MISS:        345
LLC TOTAL     ACCESS:     491853  HIT:       4798  MISS:     487055
LLC LOAD      ACCESS:     232823  HIT:       2110  MISS:     230713
LLC RFO       ACCESS:      88474  HIT:       1884  MISS:      86590
LLC PREFETCH  ACCESS:          0  HIT:          0  MISS:          0
LLC WRITEBACK ACCESS:     170514  HIT:        804  MISS:     169710
Heartbeat CPU 0 instructions: 84000002 cycles: 47500620 heartbeat IPC: 1.51399 cumulative IPC: 1.102 (Simulation time: 1 hr 10 min 17 sec) 

Region of Interest Statistics
cpu0_DTLB TOTAL     ACCESS:    8566451  HIT:    8548243  MISS:      18208
cpu0_DTLB LOAD      ACCESS:    7692459  HIT:    7679857  MISS:      12602
cpu0_DTLB RFO       ACCESS:     873992  HIT:     868386  MISS:       5606
cpu0_DTLB PREFETCH  ACCESS:          0  HIT:          0  MISS:          0
cpu0_DTLB WRITEBACK ACCESS:          0  HIT:          0  MISS:          0
cpu0_ITLB TOTAL     ACCESS:     881961  HIT:     881960  MISS:          1
cpu0_ITLB LOAD      ACCESS:     881961  HIT:     881960  MISS:          1
cpu0_ITLB RFO       ACCESS:          0  HIT:          0  MISS:          0
cpu0_ITLB PREFETCH  ACCESS:          0  HIT:          0  MISS:          0
cpu0_ITLB WRITEBACK ACCESS:          0  HIT:          0  MISS:          0
cpu0_L1I TOTAL     ACCESS:     252298  HIT:     251473  MISS:        825
cpu0_L1I LOAD      ACCESS:     252298  HIT:     251473  MISS:        825
cpu0_L1I RFO       ACCESS:          0  HIT:          0  MISS:          0
cpu0_L1I PREFETCH  ACCESS:          0  HIT:          0  MISS:          0
cpu0_L1I WRITEBACK ACCESS:          0  HIT:          0  MISS:          0
cpu0_STLB TOTAL     ACCESS:      18209  HIT:      16512  MISS:       1697
cpu0_STLB LOAD      ACCESS:      12603  HIT:      11576  MISS:       1027
cpu0_STLB RFO       ACCESS:       5606  HIT:       4936  MISS:        670
cpu0_STLB PREFETCH  ACCESS:          0  HIT:          0  MISS:          0
cpu0_STLB WRITEBACK ACCESS:          0  HIT:          0  MISS:          0
cpu0_L1D TOTAL     ACCESS:    7517794  HIT:    7039293  MISS:     478501
cpu0_L1D LOAD      ACCESS:    6368243  HIT:    5987698  MISS:     380545
cpu0_L1D RFO       ACCESS:    1147866  HIT:    1050216  MISS:      97650
cpu0_L1D PREFETCH  ACCESS:          0  HIT:          0  MISS:          0
cpu0_L1D WRITEBACK ACCESS:          0  HIT:          0  MISS:          0
cpu0_L2C TOTAL     ACCESS:     671835  HIT:     338563  MISS:     333272
cpu0_L2C LOAD      ACCESS:     381269  HIT:     137121  MISS:     244148
cpu0_L2C RFO       ACCESS:      97650  HIT:       9046  MISS:      88604
cpu0_L2C PREFETCH  ACCESS:          0  HIT:          0  MISS:          0
cpu0_L2C WRITEBACK ACCESS:     192610  HIT:     192135  MISS:        475
LLC TOTAL     ACCESS:     507383  HIT:       4798  MISS:     502585
LLC LOAD      ACCESS:     244148  HIT:       2110  MISS:     242038
LLC RFO       ACCESS:      88604  HIT:       1884  MISS:      86720
LLC PREFETCH  ACCESS:          0  HIT:          0  MISS:          0
LLC WRITEBACK ACCESS:     174586  HIT:        804  MISS:     173782
Heartbeat CPU 0 instructions: 86000000 cycles: 48857695 heartbeat IPC: 1.47376 cumulative IPC: 1.11766 (Simulation time: 1 hr 12 min 17 sec) 

Region of Interest Statistics
cpu0_DTLB TOTAL     ACCESS:    9003450  HIT:    8985045  MISS:      18405
cpu0_DTLB LOAD      ACCESS:    8095798  HIT:    8082999  MISS:      12799
cpu0_DTLB RFO       ACCESS:     907652  HIT:     902046  MISS:       5606
cpu0_DTLB PREFETCH  ACCESS:          0  HIT:          0  MISS:          0
cpu0_DTLB WRITEBACK ACCESS:          0  HIT:          0  MISS:          0
cpu0_ITLB TOTAL     ACCESS:     920715  HIT:     920714  MISS:          1
cpu0_ITLB LOAD      ACCESS:     920715  HIT:     920714  MISS:          1
cpu0_ITLB RFO       ACCESS:          0  HIT:          0  MISS:          0
cpu0_ITLB PREFETCH  ACCESS:          0  HIT:          0  MISS:          0
cpu0_ITLB WRITEBACK ACCESS:          0  HIT:          0  MISS:          0
cpu0_L1I TOTAL     ACCESS:     253194  HIT:     252369  MISS:        825
cpu0_L1I LOAD      ACCESS:     253194  HIT:     252369  MISS:        825
cpu0_L1I RFO       ACCESS:          0  HIT:          0  MISS:          0
cpu0_L1I PREFETCH  ACCESS:          0  HIT:          0  MISS:          0
cpu0_L1I WRITEBACK ACCESS:          0  HIT:          0  MISS:          0
cpu0_STLB TOTAL     ACCESS:      18406  HIT:      16653  MISS:       1753
cpu0_STLB LOAD      ACCESS:      12800  HIT:      11717  MISS:       1083
cpu0_STLB RFO       ACCESS:       5606  HIT:       4936  MISS:        670
cpu0_STLB PREFETCH  ACCESS:          0  HIT:          0  MISS:          0
cpu0_STLB WRITEBACK ACCESS:          0  HIT:          0  MISS:          0
cpu0_L1D TOTAL     ACCESS:    7985643  HIT:    7495167  MISS:     490476
cpu0_L1D LOAD      ACCESS:    6767168  HIT:    6374650  MISS:     392518
cpu0_L1D RFO       ACCESS:    1216734  HIT:    1119084  MISS:      97650
cpu0_L1D PREFETCH  ACCESS:          0  HIT:          0  MISS:          0
cpu0_L1D WRITEBACK ACCESS:          0  HIT:          0  MISS:          0
cpu0_L2C TOTAL     ACCESS:     687906  HIT:     342668  MISS:     345238
cpu0_L2C LOAD      ACCESS:     393242  HIT:     137129  MISS:     256113
cpu0_L2C RFO       ACCESS:      97650  HIT:       9046  MISS:      88604
cpu0_L2C PREFETCH  ACCESS:          0  HIT:          0  MISS:          0
cpu0_L2C WRITEBACK ACCESS:     196706  HIT:     196231  MISS:        475
LLC TOTAL     ACCESS:     523471  HIT:       4914  MISS:     518557
LLC LOAD      ACCESS:     256113  HIT:       2110  MISS:     254003
LLC RFO       ACCESS:      88604  HIT:       1884  MISS:      86720
LLC PREFETCH  ACCESS:          0  HIT:          0  MISS:          0
LLC WRITEBACK ACCESS:     178708  HIT:        920  MISS:     177788
Heartbeat CPU 0 instructions: 88000004 cycles: 50590783 heartbeat IPC: 1.15401 cumulative IPC: 1.11952 (Simulation time: 1 hr 14 min 27 sec) 

Region of Interest Statistics
cpu0_DTLB TOTAL     ACCESS:    9490153  HIT:    9471492  MISS:      18661
cpu0_DTLB LOAD      ACCESS:    8550813  HIT:    8537760  MISS:      13053
cpu0_DTLB RFO       ACCESS:     939340  HIT:     933732  MISS:       5608
cpu0_DTLB PREFETCH  ACCESS:          0  HIT:          0  MISS:          0
cpu0_DTLB WRITEBACK ACCESS:          0  HIT:          0  MISS:          0
cpu0_ITLB TOTAL     ACCESS:     961668  HIT:     961667  MISS:          1
cpu0_ITLB LOAD      ACCESS:     961668  HIT:     961667  MISS:          1
cpu0_ITLB RFO       ACCESS:          0  HIT:          0  MISS:          0
cpu0_ITLB PREFETCH  ACCESS:          0  HIT:          0  MISS:          0
cpu0_ITLB WRITEBACK ACCESS:          0  HIT:          0  MISS:          0
cpu0_L1I TOTAL     ACCESS:     310480  HIT:     309593  MISS:        887
cpu0_L1I LOAD      ACCESS:     310480  HIT:     309593  MISS:        887
cpu0_L1I RFO       ACCESS:          0  HIT:          0  MISS:          0
cpu0_L1I PREFETCH  ACCESS:          0  HIT:          0  MISS:          0
cpu0_L1I WRITEBACK ACCESS:          0  HIT:          0  MISS:          0
cpu0_STLB TOTAL     ACCESS:      18662  HIT:      16787  MISS:       1875
cpu0_STLB LOAD      ACCESS:      13054  HIT:      11849  MISS:       1205
cpu0_STLB RFO       ACCESS:       5608  HIT:       4938  MISS:        670
cpu0_STLB PREFETCH  ACCESS:          0  HIT:          0  MISS:          0
cpu0_STLB WRITEBACK ACCESS:          0  HIT:          0  MISS:          0
cpu0_L1D TOTAL     ACCESS:    8463257  HIT:    7950299  MISS:     512958
cpu0_L1D LOAD      ACCESS:    7189992  HIT:    6775017  MISS:     414975
cpu0_L1D RFO       ACCESS:    1271405  HIT:    1173741  MISS:      97664
cpu0_L1D PREFETCH  ACCESS:          0  HIT:          0  MISS:          0
cpu0_L1D WRITEBACK ACCESS:          0  HIT:          0  MISS:          0
cpu0_L2C TOTAL     ACCESS:     714941  HIT:     355682  MISS:     359259
cpu0_L2C LOAD      ACCESS:     415761  HIT:     145784  MISS:     269977
cpu0_L2C RFO       ACCESS:      97664  HIT:       9046  MISS:      88618
cpu0_L2C PREFETCH  ACCESS:          0  HIT:          0  MISS:          0
cpu0_L2C WRITEBACK ACCESS:     201197  HIT:     200584  MISS:        613
LLC TOTAL     ACCESS:     542109  HIT:       5012  MISS:     537097
LLC LOAD      ACCESS:     269977  HIT:       2110  MISS:     267867
LLC RFO       ACCESS:      88618  HIT:       1884  MISS:      86734
LLC PREFETCH  ACCESS:          0  HIT:          0  MISS:          0
LLC WRITEBACK ACCESS:     183463  HIT:       1018  MISS:     182445
Heartbeat CPU 0 instructions: 90000004 cycles: 52550720 heartbeat IPC: 1.02044 cumulative IPC: 1.11411 (Simulation time: 1 hr 17 min 2 sec) 

Region of Interest Statistics
cpu0_DTLB TOTAL     ACCESS:   10022165  HIT:   10003270  MISS:      18895
cpu0_DTLB LOAD      ACCESS:    9052651  HIT:    9039364  MISS:      13287
cpu0_DTLB RFO       ACCESS:     969514  HIT:     963906  MISS:       5608
cpu0_DTLB PREFETCH  ACCESS:          0  HIT:          0  MISS:          0
cpu0_DTLB WRITEBACK ACCESS:          0  HIT:          0  MISS:          0
cpu0_ITLB TOTAL     ACCESS:    1003719  HIT:    1003718  MISS:          1
cpu0_ITLB LOAD      ACCESS:    1003719  HIT:    1003718  MISS:          1
cpu0_ITLB RFO       ACCESS:          0  HIT:          0  MISS:          0
cpu0_ITLB PREFETCH  ACCESS:          0  HIT:          0  MISS:          0
cpu0_ITLB WRITEBACK ACCESS:          0  HIT:          0  MISS:          0
cpu0_L1I TOTAL     ACCESS:     416187  HIT:     415300  MISS:        887
cpu0_L1I LOAD      ACCESS:     416187  HIT:     415300  MISS:        887
cpu0_L1I RFO       ACCESS:          0  HIT:          0  MISS:          0
cpu0_L1I PREFETCH  ACCESS:          0  HIT:          0  MISS:          0
cpu0_L1I WRITEBACK ACCESS:          0  HIT:          0  MISS:          0
cpu0_STLB TOTAL     ACCESS:      18896  HIT:      16868  MISS:       2028
cpu0_STLB LOAD      ACCESS:      13288  HIT:      11930  MISS:       1358
cpu0_STLB RFO       ACCESS:       5608  HIT:       4938  MISS:        670
cpu0_STLB PREFETCH  ACCESS:          0  HIT:          0  MISS:          0
cpu0_STLB WRITEBACK ACCESS:          0  HIT:          0  MISS:          0
cpu0_L1D TOTAL     ACCESS:    8952336  HIT:    8408252  MISS:     544084
cpu0_L1D LOAD      ACCESS:    7637440  HIT:    7191354  MISS:     446086
cpu0_L1D RFO       ACCESS:    1312883  HIT:    1215219  MISS:      97664
cpu0_L1D PREFETCH  ACCESS:          0  HIT:          0  MISS:          0
cpu0_L1D WRITEBACK ACCESS:          0  HIT:          0  MISS:          0
cpu0_L2C TOTAL     ACCESS:     750381  HIT:     377197  MISS:     373184
cpu0_L2C LOAD      ACCESS:     446872  HIT:     162970  MISS:     283902
cpu0_L2C RFO       ACCESS:      97664  HIT:       9046  MISS:      88618
cpu0_L2C PREFETCH  ACCESS:          0  HIT:          0  MISS:          0
cpu0_L2C WRITEBACK ACCESS:     205511  HIT:     204898  MISS:        613
LLC TOTAL     ACCESS:     560298  HIT:       5055  MISS:     555243
LLC LOAD      ACCESS:     283902  HIT:       2110  MISS:     281792
LLC RFO       ACCESS:      88618  HIT:       1884  MISS:      86734
LLC PREFETCH  ACCESS:          0  HIT:          0  MISS:          0
LLC WRITEBACK ACCESS:     187727  HIT:       1061  MISS:     186666
Heartbeat CPU 0 instructions: 92000003 cycles: 56127689 heartbeat IPC: 0.559132 cumulative IPC: 1.06383 (Simulation time: 1 hr 20 min 43 sec) 

Region of Interest Statistics
cpu0_DTLB TOTAL     ACCESS:   10481067  HIT:   10461279  MISS:      19788
cpu0_DTLB LOAD      ACCESS:    9431383  HIT:    9417491  MISS:      13892
cpu0_DTLB RFO       ACCESS:    1049684  HIT:    1043788  MISS:       5896
cpu0_DTLB PREFETCH  ACCESS:          0  HIT:          0  MISS:          0
cpu0_DTLB WRITEBACK ACCESS:          0  HIT:          0  MISS:          0
cpu0_ITLB TOTAL     ACCESS:    1125424  HIT:    1125423  MISS:          1
cpu0_ITLB LOAD      ACCESS:    1125424  HIT:    1125423  MISS:          1
cpu0_ITLB RFO       ACCESS:          0  HIT:          0  MISS:          0
cpu0_ITLB PREFETCH  ACCESS:          0  HIT:          0  MISS:          0
cpu0_ITLB WRITEBACK ACCESS:          0  HIT:          0  MISS:          0
cpu0_L1I TOTAL     ACCESS:     459025  HIT:     458026  MISS:        999
cpu0_L1I LOAD      ACCESS:     459025  HIT:     458026  MISS:        999
cpu0_L1I RFO       ACCESS:          0  HIT:          0  MISS:          0
cpu0_L1I PREFETCH  ACCESS:          0  HIT:          0  MISS:          0
cpu0_L1I WRITEBACK ACCESS:          0  HIT:          0  MISS:          0
cpu0_STLB TOTAL     ACCESS:      19789  HIT:      17575  MISS:       2214
cpu0_STLB LOAD      ACCESS:      13893  HIT:      12463  MISS:       1430
cpu0_STLB RFO       ACCESS:       5896  HIT:       5112  MISS:        784
cpu0_STLB PREFETCH  ACCESS:          0  HIT:          0  MISS:          0
cpu0_STLB WRITEBACK ACCESS:          0  HIT:          0  MISS:          0
cpu0_L1D TOTAL     ACCESS:    9355021  HIT:    8751962  MISS:     603059
cpu0_L1D LOAD      ACCESS:    7928666  HIT:    7440889  MISS:     487777
cpu0_L1D RFO       ACCESS:    1424159  HIT:    1309228  MISS:     114931
cpu0_L1D PREFETCH  ACCESS:          0  HIT:          0  MISS:          0
cpu0_L1D WRITEBACK ACCESS:          0  HIT:          0  MISS:          0
cpu0_L2C TOTAL     ACCESS:     838001  HIT:     413855  MISS:     424146
cpu0_L2C LOAD      ACCESS:     488675  HIT:     169955  MISS:     318720
cpu0_L2C RFO       ACCESS:     114931  HIT:      10188  MISS:     104743
cpu0_L2C PREFETCH  ACCESS:          0  HIT:          0  MISS:          0
cpu0_L2C WRITEBACK ACCESS:     234044  HIT:     233419  MISS:        625
LLC TOTAL     ACCESS:     636018  HIT:       7361  MISS:     628657
LLC LOAD      ACCESS:     318720  HIT:       2785  MISS:     315935
LLC RFO       ACCESS:     104743  HIT:       3460  MISS:     101283
LLC PREFETCH  ACCESS:          0  HIT:          0  MISS:          0
LLC WRITEBACK ACCESS:     212497  HIT:       1116  MISS:     211381
Heartbeat CPU 0 instructions: 94000003 cycles: 60668280 heartbeat IPC: 0.440471 cumulative IPC: 0.999532 (Simulation time: 1 hr 25 min 1 sec) 

Region of Interest Statistics
cpu0_DTLB TOTAL     ACCESS:   11027678  HIT:   11000632  MISS:      27046
cpu0_DTLB LOAD      ACCESS:    9861182  HIT:    9842479  MISS:      18703
cpu0_DTLB RFO       ACCESS:    1166496  HIT:    1158153  MISS:       8343
cpu0_DTLB PREFETCH  ACCESS:          0  HIT:          0  MISS:          0
cpu0_DTLB WRITEBACK ACCESS:          0  HIT:          0  MISS:          0
cpu0_ITLB TOTAL     ACCESS:    1212821  HIT:    1212820  MISS:          1
cpu0_ITLB LOAD      ACCESS:    1212821  HIT:    1212820  MISS:          1
cpu0_ITLB RFO       ACCESS:          0  HIT:          0  MISS:          0
cpu0_ITLB PREFETCH  ACCESS:          0  HIT:          0  MISS:          0
cpu0_ITLB WRITEBACK ACCESS:          0  HIT:          0  MISS:          0
cpu0_L1I TOTAL     ACCESS:     474249  HIT:     473039  MISS:       1210
cpu0_L1I LOAD      ACCESS:     474249  HIT:     473039  MISS:       1210
cpu0_L1I RFO       ACCESS:          0  HIT:          0  MISS:          0
cpu0_L1I PREFETCH  ACCESS:          0  HIT:          0  MISS:          0
cpu0_L1I WRITEBACK ACCESS:          0  HIT:          0  MISS:          0
cpu0_STLB TOTAL     ACCESS:      27047  HIT:      24503  MISS:       2544
cpu0_STLB LOAD      ACCESS:      18704  HIT:      17191  MISS:       1513
cpu0_STLB RFO       ACCESS:       8343  HIT:       7312  MISS:       1031
cpu0_STLB PREFETCH  ACCESS:          0  HIT:          0  MISS:          0
cpu0_STLB WRITEBACK ACCESS:          0  HIT:          0  MISS:          0
cpu0_L1D TOTAL     ACCESS:    9798203  HIT:    9125173  MISS:     673030
cpu0_L1D LOAD      ACCESS:    8273382  HIT:    7751713  MISS:     521669
cpu0_L1D RFO       ACCESS:    1522297  HIT:    1371332  MISS:     150965
cpu0_L1D PREFETCH  ACCESS:          0  HIT:          0  MISS:          0
cpu0_L1D WRITEBACK ACCESS:          0  HIT:          0  MISS:          0
cpu0_L2C TOTAL     ACCESS:     954585  HIT:     473133  MISS:     481452
cpu0_L2C LOAD      ACCESS:     522767  HIT:     181529  MISS:     341238
cpu0_L2C RFO       ACCESS:     150964  HIT:      11470  MISS:     139494
cpu0_L2C PREFETCH  ACCESS:          0  HIT:          0  MISS:          0
cpu0_L2C WRITEBACK ACCESS:     280458  HIT:     279806  MISS:        652
LLC TOTAL     ACCESS:     737804  HIT:       7731  MISS:     730073
LLC LOAD      ACCESS:     341238  HIT:       2952  MISS:     338286
LLC RFO       ACCESS:     139494  HIT:       3640  MISS:     135854
LLC PREFETCH  ACCESS:          0  HIT:          0  MISS:          0
LLC WRITEBACK ACCESS:     257004  HIT:       1139  MISS:     255865
Heartbeat CPU 0 instructions: 96000002 cycles: 61775991 heartbeat IPC: 1.80552 cumulative IPC: 1.01932 (Simulation time: 1 hr 26 min 53 sec) 

Region of Interest Statistics
cpu0_DTLB TOTAL     ACCESS:   11636212  HIT:   11608985  MISS:      27227
cpu0_DTLB LOAD      ACCESS:   10432915  HIT:   10414031  MISS:      18884
cpu0_DTLB RFO       ACCESS:    1203297  HIT:    1194954  MISS:       8343
cpu0_DTLB PREFETCH  ACCESS:          0  HIT:          0  MISS:          0
cpu0_DTLB WRITEBACK ACCESS:          0  HIT:          0  MISS:          0
cpu0_ITLB TOTAL     ACCESS:    1245963  HIT:    1245962  MISS:          1
cpu0_ITLB LOAD      ACCESS:    1245963  HIT:    1245962  MISS:          1
cpu0_ITLB RFO       ACCESS:          0  HIT:          0  MISS:          0
cpu0_ITLB PREFETCH  ACCESS:          0  HIT:          0  MISS:          0
cpu0_ITLB WRITEBACK ACCESS:          0  HIT:          0  MISS:          0
cpu0_L1I TOTAL     ACCESS:     474956  HIT:     473746  MISS:       1210
cpu0_L1I LOAD      ACCESS:     474956  HIT:     473746  MISS:       1210
cpu0_L1I RFO       ACCESS:          0  HIT:          0  MISS:          0
cpu0_L1I PREFETCH  ACCESS:          0  HIT:          0  MISS:          0
cpu0_L1I WRITEBACK ACCESS:          0  HIT:          0  MISS:          0
cpu0_STLB TOTAL     ACCESS:      27228  HIT:      24591  MISS:       2637
cpu0_STLB LOAD      ACCESS:      18885  HIT:      17279  MISS:       1606
cpu0_STLB RFO       ACCESS:       8343  HIT:       7312  MISS:       1031
cpu0_STLB PREFETCH  ACCESS:          0  HIT:          0  MISS:          0
cpu0_STLB WRITEBACK ACCESS:          0  HIT:          0  MISS:          0
cpu0_L1D TOTAL     ACCESS:   10335272  HIT:    9631946  MISS:     703326
cpu0_L1D LOAD      ACCESS:    8756639  HIT:    8206002  MISS:     550637
cpu0_L1D RFO       ACCESS:    1576016  HIT:    1423764  MISS:     152252
cpu0_L1D PREFETCH  ACCESS:          0  HIT:          0  MISS:          0
cpu0_L1D WRITEBACK ACCESS:          0  HIT:          0  MISS:          0
cpu0_L2C TOTAL     ACCESS:     990650  HIT:     499839  MISS:     490811
cpu0_L2C LOAD      ACCESS:     551714  HIT:     201119  MISS:     350595
cpu0_L2C RFO       ACCESS:     152251  HIT:      12757  MISS:     139494
cpu0_L2C PREFETCH  ACCESS:          0  HIT:          0  MISS:          0
cpu0_L2C WRITEBACK ACCESS:     286248  HIT:     285596  MISS:        652
LLC TOTAL     ACCESS:     751208  HIT:       7731  MISS:     743477
LLC LOAD      ACCESS:     350595  HIT:       2952  MISS:     347643
LLC RFO       ACCESS:     139494  HIT:       3640  MISS:     135854
LLC PREFETCH  ACCESS:          0  HIT:          0  MISS:          0
LLC WRITEBACK ACCESS:     261049  HIT:       1139  MISS:     259910
Heartbeat CPU 0 instructions: 98000000 cycles: 62838018 heartbeat IPC: 1.88319 cumulative IPC: 1.03918 (Simulation time: 1 hr 28 min 34 sec) 

Region of Interest Statistics
cpu0_DTLB TOTAL     ACCESS:   12245196  HIT:   12217800  MISS:      27396
cpu0_DTLB LOAD      ACCESS:   11005064  HIT:   10986011  MISS:      19053
cpu0_DTLB RFO       ACCESS:    1240132  HIT:    1231789  MISS:       8343
cpu0_DTLB PREFETCH  ACCESS:          0  HIT:          0  MISS:          0
cpu0_DTLB WRITEBACK ACCESS:          0  HIT:          0  MISS:          0
cpu0_ITLB TOTAL     ACCESS:    1279040  HIT:    1279039  MISS:          1
cpu0_ITLB LOAD      ACCESS:    1279040  HIT:    1279039  MISS:          1
cpu0_ITLB RFO       ACCESS:          0  HIT:          0  MISS:          0
cpu0_ITLB PREFETCH  ACCESS:          0  HIT:          0  MISS:          0
cpu0_ITLB WRITEBACK ACCESS:          0  HIT:          0  MISS:          0
cpu0_L1I TOTAL     ACCESS:     475629  HIT:     474419  MISS:       1210
cpu0_L1I LOAD      ACCESS:     475629  HIT:     474419  MISS:       1210
cpu0_L1I RFO       ACCESS:          0  HIT:          0  MISS:          0
cpu0_L1I PREFETCH  ACCESS:          0  HIT:          0  MISS:          0
cpu0_L1I WRITEBACK ACCESS:          0  HIT:          0  MISS:          0
cpu0_STLB TOTAL     ACCESS:      27397  HIT:      24668  MISS:       2729
cpu0_STLB LOAD      ACCESS:      19054  HIT:      17356  MISS:       1698
cpu0_STLB RFO       ACCESS:       8343  HIT:       7312  MISS:       1031
cpu0_STLB PREFETCH  ACCESS:          0  HIT:          0  MISS:          0
cpu0_STLB WRITEBACK ACCESS:          0  HIT:          0  MISS:          0
cpu0_L1D TOTAL     ACCESS:   10872827  HIT:   10139440  MISS:     733387
cpu0_L1D LOAD      ACCESS:    9240728  HIT:    8661366  MISS:     579362
cpu0_L1D RFO       ACCESS:    1629390  HIT:    1475844  MISS:     153546
cpu0_L1D PREFETCH  ACCESS:          0  HIT:          0  MISS:          0
cpu0_L1D WRITEBACK ACCESS:          0  HIT:          0  MISS:          0
cpu0_L2C TOTAL     ACCESS:    1026700  HIT:     526631  MISS:     500069
cpu0_L2C LOAD      ACCESS:     580414  HIT:     220561  MISS:     359853
cpu0_L2C RFO       ACCESS:     153545  HIT:      14051  MISS:     139494
cpu0_L2C PREFETCH  ACCESS:          0  HIT:          0  MISS:          0
cpu0_L2C WRITEBACK ACCESS:     292262  HIT:     291610  MISS:        652
LLC TOTAL     ACCESS:     763745  HIT:       8011  MISS:     755734
LLC LOAD      ACCESS:     359853  HIT:       2965  MISS:     356888
LLC RFO       ACCESS:     139494  HIT:       3640  MISS:     135854
LLC PREFETCH  ACCESS:          0  HIT:          0  MISS:          0
LLC WRITEBACK ACCESS:     264328  HIT:       1406  MISS:     262922
Heartbeat CPU 0 instructions: 100000002 cycles: 64100607 heartbeat IPC: 1.58405 cumulative IPC: 1.05368 (Simulation time: 1 hr 30 min 14 sec) 

Region of Interest Statistics
cpu0_DTLB TOTAL     ACCESS:   12698314  HIT:   12670741  MISS:      27573
cpu0_DTLB LOAD      ACCESS:   11414134  HIT:   11394907  MISS:      19227
cpu0_DTLB RFO       ACCESS:    1284180  HIT:    1275834  MISS:       8346
cpu0_DTLB PREFETCH  ACCESS:          0  HIT:          0  MISS:          0
cpu0_DTLB WRITEBACK ACCESS:          0  HIT:          0  MISS:          0
cpu0_ITLB TOTAL     ACCESS:    1323116  HIT:    1323115  MISS:          1
cpu0_ITLB LOAD      ACCESS:    1323116  HIT:    1323115  MISS:          1
cpu0_ITLB RFO       ACCESS:          0  HIT:          0  MISS:          0
cpu0_ITLB PREFETCH  ACCESS:          0  HIT:          0  MISS:          0
cpu0_ITLB WRITEBACK ACCESS:          0  HIT:          0  MISS:          0
cpu0_L1I TOTAL     ACCESS:     477022  HIT:     475755  MISS:       1267
cpu0_L1I LOAD      ACCESS:     477022  HIT:     475755  MISS:       1267
cpu0_L1I RFO       ACCESS:          0  HIT:          0  MISS:          0
cpu0_L1I PREFETCH  ACCESS:          0  HIT:          0  MISS:          0
cpu0_L1I WRITEBACK ACCESS:          0  HIT:          0  MISS:          0
cpu0_STLB TOTAL     ACCESS:      27574  HIT:      24838  MISS:       2736
cpu0_STLB LOAD      ACCESS:      19228  HIT:      17524  MISS:       1704
cpu0_STLB RFO       ACCESS:       8346  HIT:       7314  MISS:       1032
cpu0_STLB PREFETCH  ACCESS:          0  HIT:          0  MISS:          0
cpu0_STLB WRITEBACK ACCESS:          0  HIT:          0  MISS:          0
cpu0_L1D TOTAL     ACCESS:   11232199  HIT:   10487371  MISS:     744828
cpu0_L1D LOAD      ACCESS:    9543038  HIT:    8952406  MISS:     590632
cpu0_L1D RFO       ACCESS:    1686445  HIT:    1532730  MISS:     153715
cpu0_L1D PREFETCH  ACCESS:          0  HIT:          0  MISS:          0
cpu0_L1D WRITEBACK ACCESS:          0  HIT:          0  MISS:          0
cpu0_L2C TOTAL     ACCESS:    1041712  HIT:     531559  MISS:     510153
cpu0_L2C LOAD      ACCESS:     591740  HIT:     221935  MISS:     369805
cpu0_L2C RFO       ACCESS:     153714  HIT:      14093  MISS:     139621
cpu0_L2C PREFETCH  ACCESS:          0  HIT:          0  MISS:          0
cpu0_L2C WRITEBACK ACCESS:     295777  HIT:     295121  MISS:        656
LLC TOTAL     ACCESS:     777172  HIT:       8020  MISS:     769152
LLC LOAD      ACCESS:     369805  HIT:       2965  MISS:     366840
LLC RFO       ACCESS:     139621  HIT:       3640  MISS:     135981
LLC PREFETCH  ACCESS:          0  HIT:          0  MISS:          0
LLC WRITEBACK ACCESS:     267675  HIT:       1415  MISS:     266260
Heartbeat CPU 0 instructions: 102000004 cycles: 65344483 heartbeat IPC: 1.60788 cumulative IPC: 1.06783 (Simulation time: 1 hr 31 min 52 sec) 

Region of Interest Statistics
cpu0_DTLB TOTAL     ACCESS:   13143685  HIT:   13115953  MISS:      27732
cpu0_DTLB LOAD      ACCESS:   11815137  HIT:   11795751  MISS:      19386
cpu0_DTLB RFO       ACCESS:    1328548  HIT:    1320202  MISS:       8346
cpu0_DTLB PREFETCH  ACCESS:          0  HIT:          0  MISS:          0
cpu0_DTLB WRITEBACK ACCESS:          0  HIT:          0  MISS:          0
cpu0_ITLB TOTAL     ACCESS:    1365751  HIT:    1365750  MISS:          1
cpu0_ITLB LOAD      ACCESS:    1365751  HIT:    1365750  MISS:          1
cpu0_ITLB RFO       ACCESS:          0  HIT:          0  MISS:          0
cpu0_ITLB PREFETCH  ACCESS:          0  HIT:          0  MISS:          0
cpu0_ITLB WRITEBACK ACCESS:          0  HIT:          0  MISS:          0
cpu0_L1I TOTAL     ACCESS:     478342  HIT:     477075  MISS:       1267
cpu0_L1I LOAD      ACCESS:     478342  HIT:     477075  MISS:       1267
cpu0_L1I RFO       ACCESS:          0  HIT:          0  MISS:          0
cpu0_L1I PREFETCH  ACCESS:          0  HIT:          0  MISS:          0
cpu0_L1I WRITEBACK ACCESS:          0  HIT:          0  MISS:          0
cpu0_STLB TOTAL     ACCESS:      27733  HIT:      24997  MISS:       2736
cpu0_STLB LOAD      ACCESS:      19387  HIT:      17683  MISS:       1704
cpu0_STLB RFO       ACCESS:       8346  HIT:       7314  MISS:       1032
cpu0_STLB PREFETCH  ACCESS:          0  HIT:          0  MISS:          0
cpu0_STLB WRITEBACK ACCESS:          0  HIT:          0  MISS:          0
cpu0_L1D TOTAL     ACCESS:   11585305  HIT:   10830827  MISS:     754478
cpu0_L1D LOAD      ACCESS:    9839583  HIT:    9239301  MISS:     600282
cpu0_L1D RFO       ACCESS:    1743006  HIT:    1589291  MISS:     153715
cpu0_L1D PREFETCH  ACCESS:          0  HIT:          0  MISS:          0
cpu0_L1D WRITEBACK ACCESS:          0  HIT:          0  MISS:          0
cpu0_L2C TOTAL     ACCESS:    1054570  HIT:     534777  MISS:     519793
cpu0_L2C LOAD      ACCESS:     601390  HIT:     221945  MISS:     379445
cpu0_L2C RFO       ACCESS:     153714  HIT:      14093  MISS:     139621
cpu0_L2C PREFETCH  ACCESS:          0  HIT:          0  MISS:          0
cpu0_L2C WRITEBACK ACCESS:     298985  HIT:     298329  MISS:        656
LLC TOTAL     ACCESS:     789978  HIT:       8020  MISS:     781958
LLC LOAD      ACCESS:     379445  HIT:       2965  MISS:     376480
LLC RFO       ACCESS:     139621  HIT:       3640  MISS:     135981
LLC PREFETCH  ACCESS:          0  HIT:          0  MISS:          0
LLC WRITEBACK ACCESS:     270841  HIT:       1415  MISS:     269426
Heartbeat CPU 0 instructions: 104000002 cycles: 66624083 heartbeat IPC: 1.56299 cumulative IPC: 1.08051 (Simulation time: 1 hr 33 min 33 sec) 

Region of Interest Statistics
cpu0_DTLB TOTAL     ACCESS:   13587416  HIT:   13559500  MISS:      27916
cpu0_DTLB LOAD      ACCESS:   12217195  HIT:   12197628  MISS:      19567
cpu0_DTLB RFO       ACCESS:    1370221  HIT:    1361872  MISS:       8349
cpu0_DTLB PREFETCH  ACCESS:          0  HIT:          0  MISS:          0
cpu0_DTLB WRITEBACK ACCESS:          0  HIT:          0  MISS:          0
cpu0_ITLB TOTAL     ACCESS:    1407851  HIT:    1407850  MISS:          1
cpu0_ITLB LOAD      ACCESS:    1407851  HIT:    1407850  MISS:          1
cpu0_ITLB RFO       ACCESS:          0  HIT:          0  MISS:          0
cpu0_ITLB PREFETCH  ACCESS:          0  HIT:          0  MISS:          0
cpu0_ITLB WRITEBACK ACCESS:          0  HIT:          0  MISS:          0
cpu0_L1I TOTAL     ACCESS:     479647  HIT:     478341  MISS:       1306
cpu0_L1I LOAD      ACCESS:     479647  HIT:     478341  MISS:       1306
cpu0_L1I RFO       ACCESS:          0  HIT:          0  MISS:          0
cpu0_L1I PREFETCH  ACCESS:          0  HIT:          0  MISS:          0
cpu0_L1I WRITEBACK ACCESS:          0  HIT:          0  MISS:          0
cpu0_STLB TOTAL     ACCESS:      27917  HIT:      25155  MISS:       2762
cpu0_STLB LOAD      ACCESS:      19568  HIT:      17839  MISS:       1729
cpu0_STLB RFO       ACCESS:       8349  HIT:       7316  MISS:       1033
cpu0_STLB PREFETCH  ACCESS:          0  HIT:          0  MISS:          0
cpu0_STLB WRITEBACK ACCESS:          0  HIT:          0  MISS:          0
cpu0_L1D TOTAL     ACCESS:   11970184  HIT:   11205193  MISS:     764991
cpu0_L1D LOAD      ACCESS:   10164978  HIT:    9554316  MISS:     610662
cpu0_L1D RFO       ACCESS:    1802465  HIT:    1648620  MISS:     153845
cpu0_L1D PREFETCH  ACCESS:          0  HIT:          0  MISS:          0
cpu0_L1D WRITEBACK ACCESS:          0  HIT:          0  MISS:          0
cpu0_L2C TOTAL     ACCESS:    1068670  HIT:     538206  MISS:     530464
cpu0_L2C LOAD      ACCESS:     611809  HIT:     221957  MISS:     389852
cpu0_L2C RFO       ACCESS:     153844  HIT:      14093  MISS:     139751
cpu0_L2C PREFETCH  ACCESS:          0  HIT:          0  MISS:          0
cpu0_L2C WRITEBACK ACCESS:     302533  HIT:     301746  MISS:        787
LLC TOTAL     ACCESS:     804032  HIT:       8042  MISS:     795990
LLC LOAD      ACCESS:     389852  HIT:       2965  MISS:     386887
LLC RFO       ACCESS:     139751  HIT:       3640  MISS:     136111
LLC PREFETCH  ACCESS:          0  HIT:          0  MISS:          0
LLC WRITEBACK ACCESS:     274355  HIT:       1437  MISS:     272918
Heartbeat CPU 0 instructions: 106000003 cycles: 67968730 heartbeat IPC: 1.48738 cumulative IPC: 1.09117 (Simulation time: 1 hr 35 min 33 sec) 

Region of Interest Statistics
cpu0_DTLB TOTAL     ACCESS:   14022968  HIT:   13994855  MISS:      28113
cpu0_DTLB LOAD      ACCESS:   12619373  HIT:   12599609  MISS:      19764
cpu0_DTLB RFO       ACCESS:    1403595  HIT:    1395246  MISS:       8349
cpu0_DTLB PREFETCH  ACCESS:          0  HIT:          0  MISS:          0
cpu0_DTLB WRITEBACK ACCESS:          0  HIT:          0  MISS:          0
cpu0_ITLB TOTAL     ACCESS:    1447396  HIT:    1447395  MISS:          1
cpu0_ITLB LOAD      ACCESS:    1447396  HIT:    1447395  MISS:          1
cpu0_ITLB RFO       ACCESS:          0  HIT:          0  MISS:          0
cpu0_ITLB PREFETCH  ACCESS:          0  HIT:          0  MISS:          0
cpu0_ITLB WRITEBACK ACCESS:          0  HIT:          0  MISS:          0
cpu0_L1I TOTAL     ACCESS:     480555  HIT:     479249  MISS:       1306
cpu0_L1I LOAD      ACCESS:     480555  HIT:     479249  MISS:       1306
cpu0_L1I RFO       ACCESS:          0  HIT:          0  MISS:          0
cpu0_L1I PREFETCH  ACCESS:          0  HIT:          0  MISS:          0
cpu0_L1I WRITEBACK ACCESS:          0  HIT:          0  MISS:          0
cpu0_STLB TOTAL     ACCESS:      28114  HIT:      25299  MISS:       2815
cpu0_STLB LOAD      ACCESS:      19765  HIT:      17983  MISS:       1782
cpu0_STLB RFO       ACCESS:       8349  HIT:       7316  MISS:       1033
cpu0_STLB PREFETCH  ACCESS:          0  HIT:          0  MISS:          0
cpu0_STLB WRITEBACK ACCESS:          0  HIT:          0  MISS:          0
cpu0_L1D TOTAL     ACCESS:   12436838  HIT:   11659768  MISS:     777070
cpu0_L1D LOAD      ACCESS:   10562475  HIT:    9939736  MISS:     622739
cpu0_L1D RFO       ACCESS:    1871569  HIT:    1717724  MISS:     153845
cpu0_L1D PREFETCH  ACCESS:          0  HIT:          0  MISS:          0
cpu0_L1D WRITEBACK ACCESS:          0  HIT:          0  MISS:          0
cpu0_L2C TOTAL     ACCESS:    1084825  HIT:     542290  MISS:     542535
cpu0_L2C LOAD      ACCESS:     623886  HIT:     221963  MISS:     401923
cpu0_L2C RFO       ACCESS:     153844  HIT:      14093  MISS:     139751
cpu0_L2C PREFETCH  ACCESS:          0  HIT:          0  MISS:          0
cpu0_L2C WRITEBACK ACCESS:     306609  HIT:     305822  MISS:        787
[...]
cpu0_DTLB LOAD      ACCESS:  285555028  HIT:  284556699  MISS:     998329
cpu0_DTLB RFO       ACCESS:   49319404  HIT:   48960586  MISS:     358818
cpu0_DTLB PREFETCH  ACCESS:          0  HIT:          0  MISS:          0
cpu0_DTLB WRITEBACK ACCESS:          0  HIT:          0  MISS:          0
cpu0_ITLB TOTAL     ACCESS:   61222849  HIT:   61221816  MISS:       1033
cpu0_ITLB LOAD      ACCESS:   61222849  HIT:   61221816  MISS:       1033
cpu0_ITLB RFO       ACCESS:          0  HIT:          0  MISS:          0
cpu0_ITLB PREFETCH  ACCESS:          0  HIT:          0  MISS:          0
cpu0_ITLB WRITEBACK ACCESS:          0  HIT:          0  MISS:          0
cpu0_L1I TOTAL     ACCESS:   81110028  HIT:   81037356  MISS:      72672
cpu0_L1I LOAD      ACCESS:   81110028  HIT:   81037356  MISS:      72672
cpu0_L1I RFO       ACCESS:          0  HIT:          0  MISS:          0
cpu0_L1I PREFETCH  ACCESS:          0  HIT:          0  MISS:          0
cpu0_L1I WRITEBACK ACCESS:          0  HIT:          0  MISS:          0
cpu0_STLB TOTAL     ACCESS:    1358180  HIT:    1230010  MISS:     128170
cpu0_STLB LOAD      ACCESS:     999362  HIT:     900890  MISS:      98472
cpu0_STLB RFO       ACCESS:     358818  HIT:     329120  MISS:      29698
cpu0_STLB PREFETCH  ACCESS:          0  HIT:          0  MISS:          0
cpu0_STLB WRITEBACK ACCESS:          0  HIT:          0  MISS:          0
cpu0_L1D TOTAL     ACCESS:  332840435  HIT:  314879871  MISS:   17960564
cpu0_L1D LOAD      ACCESS:  260464560  HIT:  246170134  MISS:   14294426
cpu0_L1D RFO       ACCESS:   72265644  HIT:   68612467  MISS:    3653177
cpu0_L1D PREFETCH  ACCESS:          0  HIT:          0  MISS:          0
cpu0_L1D WRITEBACK ACCESS:          0  HIT:          0  MISS:          0
cpu0_L2C TOTAL     ACCESS:   24891580  HIT:   11977805  MISS:   12913775
cpu0_L2C LOAD      ACCESS:   14366150  HIT:    4112747  MISS:   10253403
cpu0_L2C RFO       ACCESS:    3653051  HIT:    1001272  MISS:    2651779
cpu0_L2C PREFETCH  ACCESS:          0  HIT:          0  MISS:          0
cpu0_L2C WRITEBACK ACCESS:    6859418  HIT:    6852887  MISS:       6531
LLC TOTAL     ACCESS:   18211275  HIT:     260036  MISS:   17951239
LLC LOAD      ACCESS:   10253399  HIT:      69197  MISS:   10184202
LLC RFO       ACCESS:    2651779  HIT:     114365  MISS:    2537414
LLC PREFETCH  ACCESS:          0  HIT:          0  MISS:          0
LLC WRITEBACK ACCESS:    5304035  HIT:      76439  MISS:    5227596
Heartbeat CPU 0 instructions: 1550000000 cycles: 1846810296 heartbeat IPC: 0.949197 cumulative IPC: 0.819599 (Simulation time: 21 hr 23 min 9 sec) 

Region of Interest Statistics
cpu0_DTLB TOTAL     ACCESS:  335185459  HIT:  333828312  MISS:    1357147
cpu0_DTLB LOAD      ACCESS:  285837023  HIT:  284838694  MISS:     998329
cpu0_DTLB RFO       ACCESS:   49348436  HIT:   48989618  MISS:     358818
cpu0_DTLB PREFETCH  ACCESS:          0  HIT:          0  MISS:          0
cpu0_DTLB WRITEBACK ACCESS:          0  HIT:          0  MISS:          0
cpu0_ITLB TOTAL     ACCESS:   61327586  HIT:   61326553  MISS:       1033
cpu0_ITLB LOAD      ACCESS:   61327586  HIT:   61326553  MISS:       1033
cpu0_ITLB RFO       ACCESS:          0  HIT:          0  MISS:          0
cpu0_ITLB PREFETCH  ACCESS:          0  HIT:          0  MISS:          0
cpu0_ITLB WRITEBACK ACCESS:          0  HIT:          0  MISS:          0
cpu0_L1I TOTAL     ACCESS:   81377993  HIT:   81305321  MISS:      72672
cpu0_L1I LOAD      ACCESS:   81377993  HIT:   81305321  MISS:      72672
cpu0_L1I RFO       ACCESS:          0  HIT:          0  MISS:          0
cpu0_L1I PREFETCH  ACCESS:          0  HIT:          0  MISS:          0
cpu0_L1I WRITEBACK ACCESS:          0  HIT:          0  MISS:          0
cpu0_STLB TOTAL     ACCESS:    1358180  HIT:    1230010  MISS:     128170
cpu0_STLB LOAD      ACCESS:     999362  HIT:     900890  MISS:      98472
cpu0_STLB RFO       ACCESS:     358818  HIT:     329120  MISS:      29698
cpu0_STLB PREFETCH  ACCESS:          0  HIT:          0  MISS:          0
cpu0_STLB WRITEBACK ACCESS:          0  HIT:          0  MISS:          0
cpu0_L1D TOTAL     ACCESS:  333184235  HIT:  315223664  MISS:   17960571
cpu0_L1D LOAD      ACCESS:  260733930  HIT:  246439503  MISS:   14294427
cpu0_L1D RFO       ACCESS:   72340074  HIT:   68686891  MISS:    3653183
cpu0_L1D PREFETCH  ACCESS:          0  HIT:          0  MISS:          0
cpu0_L1D WRITEBACK ACCESS:          0  HIT:          0  MISS:          0
cpu0_L2C TOTAL     ACCESS:   24891589  HIT:   11977809  MISS:   12913780
cpu0_L2C LOAD      ACCESS:   14366151  HIT:    4112747  MISS:   10253404
cpu0_L2C RFO       ACCESS:    3653057  HIT:    1001274  MISS:    2651783
cpu0_L2C PREFETCH  ACCESS:          0  HIT:          0  MISS:          0
cpu0_L2C WRITEBACK ACCESS:    6859420  HIT:    6852889  MISS:       6531
LLC TOTAL     ACCESS:   18211282  HIT:     260036  MISS:   17951246
LLC LOAD      ACCESS:   10253400  HIT:      69197  MISS:   10184203
LLC RFO       ACCESS:    2651783  HIT:     114365  MISS:    2537418
LLC PREFETCH  ACCESS:          0  HIT:          0  MISS:          0
LLC WRITEBACK ACCESS:    5304037  HIT:      76439  MISS:    5227598
Finished CPU 0 instructions: 1500000002 cycles: 1830162613 cumulative IPC: 0.819599 (Simulation time: 21 hr 23 min 9 sec) 

ChampSim completed all CPUs

Region of Interest Statistics

CPU 0 cumulative IPC: 0.819599 instructions: 1500000002 cycles: 1830162613
cpu0_DTLB TOTAL     ACCESS:  335185459  HIT:  333828312  MISS:    1357147
cpu0_DTLB LOAD      ACCESS:  285837023  HIT:  284838694  MISS:     998329
cpu0_DTLB RFO       ACCESS:   49348436  HIT:   48989618  MISS:     358818
cpu0_DTLB PREFETCH  ACCESS:          0  HIT:          0  MISS:          0
cpu0_DTLB WRITEBACK ACCESS:          0  HIT:          0  MISS:          0
cpu0_DTLB TRANSLATION ACCESS:          0  HIT:          0  MISS:          0
cpu0_DTLB PREFETCH  REQUESTED:          0  ISSUED:          0  USEFUL:          0  USELESS:          0
cpu0_DTLB AVERAGE MISS LATENCY: 22.329 cycles
cpu0_ITLB TOTAL     ACCESS:   61327586  HIT:   61326553  MISS:       1033
cpu0_ITLB LOAD      ACCESS:   61327586  HIT:   61326553  MISS:       1033
cpu0_ITLB RFO       ACCESS:          0  HIT:          0  MISS:          0
cpu0_ITLB PREFETCH  ACCESS:          0  HIT:          0  MISS:          0
cpu0_ITLB WRITEBACK ACCESS:          0  HIT:          0  MISS:          0
cpu0_ITLB TRANSLATION ACCESS:          0  HIT:          0  MISS:          0
cpu0_ITLB PREFETCH  REQUESTED:          0  ISSUED:          0  USEFUL:          0  USELESS:          0
cpu0_ITLB AVERAGE MISS LATENCY: 221.585 cycles
cpu0_L1I TOTAL     ACCESS:   81377993  HIT:   81305321  MISS:      72672
cpu0_L1I LOAD      ACCESS:   81377993  HIT:   81305321  MISS:      72672
cpu0_L1I RFO       ACCESS:          0  HIT:          0  MISS:          0
cpu0_L1I PREFETCH  ACCESS:          0  HIT:          0  MISS:          0
cpu0_L1I WRITEBACK ACCESS:          0  HIT:          0  MISS:          0
cpu0_L1I TRANSLATION ACCESS:          0  HIT:          0  MISS:          0
cpu0_L1I PREFETCH  REQUESTED:          0  ISSUED:          0  USEFUL:          0  USELESS:          0
cpu0_L1I AVERAGE MISS LATENCY: 289.833 cycles
cpu0_STLB TOTAL     ACCESS:    1358180  HIT:    1230010  MISS:     128170
cpu0_STLB LOAD      ACCESS:     999362  HIT:     900890  MISS:      98472
cpu0_STLB RFO       ACCESS:     358818  HIT:     329120  MISS:      29698
cpu0_STLB PREFETCH  ACCESS:          0  HIT:          0  MISS:          0
cpu0_STLB WRITEBACK ACCESS:          0  HIT:          0  MISS:          0
cpu0_STLB TRANSLATION ACCESS:          0  HIT:          0  MISS:          0
cpu0_STLB PREFETCH  REQUESTED:          0  ISSUED:          0  USEFUL:          0  USELESS:          0
cpu0_STLB AVERAGE MISS LATENCY: 142.141 cycles
cpu0_L1D TOTAL     ACCESS:  333184235  HIT:  315223664  MISS:   17960571
cpu0_L1D LOAD      ACCESS:  260733930  HIT:  246439503  MISS:   14294427
cpu0_L1D RFO       ACCESS:   72340074  HIT:   68686891  MISS:    3653183
cpu0_L1D PREFETCH  ACCESS:          0  HIT:          0  MISS:          0
cpu0_L1D WRITEBACK ACCESS:          0  HIT:          0  MISS:          0
cpu0_L1D TRANSLATION ACCESS:     110231  HIT:      97270  MISS:      12961
cpu0_L1D PREFETCH  REQUESTED:          0  ISSUED:          0  USEFUL:          0  USELESS:          0
cpu0_L1D AVERAGE MISS LATENCY: 504.066 cycles
cpu0_L2C TOTAL     ACCESS:   24891589  HIT:   11977809  MISS:   12913780
cpu0_L2C LOAD      ACCESS:   14366151  HIT:    4112747  MISS:   10253404
cpu0_L2C RFO       ACCESS:    3653057  HIT:    1001274  MISS:    2651783
cpu0_L2C PREFETCH  ACCESS:          0  HIT:          0  MISS:          0
cpu0_L2C WRITEBACK ACCESS:    6859420  HIT:    6852889  MISS:       6531
cpu0_L2C TRANSLATION ACCESS:      12961  HIT:      10899  MISS:       2062
cpu0_L2C PREFETCH  REQUESTED:          0  ISSUED:          0  USEFUL:          0  USELESS:          0
cpu0_L2C AVERAGE MISS LATENCY: 687.085 cycles
LLC TOTAL     ACCESS:   18211282  HIT:     260036  MISS:   17951246
LLC LOAD      ACCESS:   10253400  HIT:      69197  MISS:   10184203
LLC RFO       ACCESS:    2651783  HIT:     114365  MISS:    2537418
LLC PREFETCH  ACCESS:          0  HIT:          0  MISS:          0
LLC WRITEBACK ACCESS:    5304037  HIT:      76439  MISS:    5227598
LLC TRANSLATION ACCESS:       2062  HIT:         35  MISS:       2027
LLC PREFETCH  REQUESTED:          0  ISSUED:          0  USEFUL:          0  USELESS:          0
LLC AVERAGE MISS LATENCY: 479.176 cycles
~~~~~~~~~~Reuse Distance Profiler output~~~~~~~~~~
0	0	0
1	0	0
2	0	0
3	0	0
4	0	0
5	0	0
6	0	0
7	0	0
8	0	0
9	0	0
10	0	0
11	0	0
12	0	0
13	0	0
14	0	0
15	0	0
16	0	0
17	0	0
18	0	0
19	0	0
20	0	0
21	0	0
22	0	0
23	0	0
24	0	0
25	0	0
26	0	0
27	0	0
28	0	0
29	0	0
30	0	0
31	0	0
32	0	0
33	0	0
34	0	0
35	0	0
36	0	0
37	0	0
38	0	0
39	0	0
40	0	0
41	0	0
42	0	0
43	0	0
44	0	0
45	0	0
46	0	0
47	0	0
48	0	0
49	0	0
50	0	0
51	0	0
52	0	0
53	0	0
54	0	0
55	0	0
56	0	0
57	0	0
58	0	0
59	0	0
60	0	0
61	0	0
62	0	0
63	0	0
64	0	0
66	0	0
68	0	0
70	0	0
72	0	0
74	0	0
76	0	0
78	0	0
80	0	0
82	0	0
84	0	0
86	0	0
88	0	0
90	0	0
92	0	0
94	0	0
96	0	0
98	0	0
100	0	0
102	0	0
104	0	0
106	0	0
108	0	0
110	0	0
112	0	0
114	0	0
116	0	0
118	0	0
120	0	0
122	0	0
124	0	0
126	0	0
128	0	0
132	0	0
136	0	0
140	0	0
144	0	0
148	0	0
152	0	0
156	0	0
160	0	0
164	0	0
168	0	0
172	0	0
176	0	0
180	0	0
184	0	0
188	0	0
192	0	0
196	0	0
200	0	0
204	0	0
208	0	0
212	0	0
216	0	0
220	0	0
224	0	0
228	0	0
232	0	0
236	0	0
240	0	0
244	0	0
248	0	0
252	0	0
256	0	0
264	0	0
272	0	0
280	0	0
288	0	0
296	0	0
304	0	0
312	0	0
320	0	0
328	0	0
336	0	0
344	0	0
352	0	0
360	0	0
368	0	0
376	0	0
384	0	0
392	0	0
400	0	0
408	0	0
416	0	0
424	0	0
432	0	0
440	0	0
448	0	0
456	0	0
464	0	0
472	0	0
480	0	0
488	0	0
496	0	0
504	0	0
512	0	0
528	0	0
544	0	0
560	0	0
576	0	0
592	0	0
608	0	0
624	0	0
640	0	0
656	0	0
672	0	0
688	0	0
704	0	0
720	0	0
736	0	0
752	0	0
768	0	0
784	0	0
800	0	0
816	0	0
832	0	0
848	0	0
864	0	0
880	0	0
896	0	0
912	0	0
928	0	0
944	0	0
960	0	0
976	0	0
992	0	0
1008	0	0
1024	0	0
1056	0	0
1088	0	0
1120	0	0
1152	0	0
1184	0	0
1216	0	0
1248	0	0
1280	0	0
1312	0	0
1344	0	0
1376	0	0
1408	0	0
1440	0	0
1472	0	0
1504	0	0
1536	0	0
1568	0	0
1600	0	0
1632	0	0
1664	0	0
1696	0	0
1728	0	0
1760	0	0
1792	0	0
1824	0	0
1856	0	0
1888	0	0
1920	0	0
1952	0	0
1984	0	0
2016	0	0
2048	0	0
2112	0	0
2176	0	0
2240	0	0
2304	0	0
2368	0	0
2432	0	0
2496	0	0
2560	0	0
2624	0	0
2688	0	0
2752	0	0
2816	0	0
2880	0	0
2944	0	0
3008	0	0
3072	0	0
3136	0	0
3200	0	0
3264	0	0
3328	0	0
3392	0	0
3456	0	0
3520	0	0
3584	0	0
3648	0	0
3712	0	0
3776	0	0
3840	0	0
3904	0	0
3968	0	0
4032	0	0
4096	0	0
4224	0	0
4352	0	0
4480	0	0
4608	0	0
4736	0	0
4864	0	0
4992	0	0
5120	0	0
5248	0	0
5376	0	0
5504	0	0
5632	0	0
5760	0	0
5888	0	0
6016	0	0
6144	0	0
6272	0	0
6400	0	0
6528	0	0
6656	0	0
6784	0	0
6912	0	0
7040	0	0
7168	0	0
7296	0	0
7424	0	0
7552	0	0
7680	0	0
7808	0	0
7936	0	0
8064	0	0
8192	0	0
8448	0	0
8704	0	0
8960	0	0
9216	0	0
9472	0	0
9728	0	0
9984	0	0
10240	0	0
10496	0	0
10752	0	0
11008	0	0
11264	0	0
11520	0	0
11776	0	0
12032	0	0
12288	0	0
12544	0	0
12800	0	0
13056	0	0
13312	0	0
13568	0	0
13824	0	0
14080	0	0
14336	0	0
14592	0	0
14848	0	0
15104	0	0
15360	0	0
15616	0	0
15872	0	0
16128	0	0
16384	0	0
16896	0	0
17408	0	0
17920	0	0
18432	0	0
18944	0	0
19456	0	0
19968	0	0
20480	0	0
20992	0	0
21504	0	0
22016	0	0
22528	0	0
23040	0	0
23552	0	0
24064	0	0
24576	0	0
25088	0	0
25600	0	0
26112	0	0
26624	0	0
27136	0	0
27648	0	0
28160	0	0
28672	0	0
29184	0	0
29696	0	0
30208	0	0
30720	0	0
31232	0	0
31744	0	0
32256	0	0
32768	0	0
33792	0	0
34816	0	0
35840	0	0
36864	0	0
37888	0	0
38912	0	0
39936	0	0
40960	0	0
41984	0	0
43008	0	0
44032	0	0
45056	0	0
46080	0	0
47104	0	0
48128	0	0
49152	0	0
50176	0	0
51200	0	0
52224	0	0
53248	0	0
54272	0	0
55296	0	0
56320	0	0
57344	0	0
58368	0	0
59392	0	0
60416	0	0
61440	0	0
62464	0	0
63488	0	0
64512	0	0
65536	0	0
67584	0	0
69632	0	0
71680	0	0
73728	0	0
75776	0	0
77824	0	0
79872	0	0
81920	0	0
83968	0	0
86016	0	0
88064	0	0
90112	0	0
92160	0	0
94208	0	0
96256	0	0
98304	0	0
100352	0	0
102400	0	0
104448	0	0
106496	0	0
108544	0	0
110592	0	0
112640	0	0
114688	0	0
116736	0	0
118784	0	0
120832	0	0
122880	0	0
124928	0	0
126976	0	0
129024	0	0
131072	0	0
135168	0	0
139264	0	0
143360	0	0
147456	0	0
151552	0	0
155648	0	0
159744	0	0
163840	0	0
167936	0	0
172032	0	0
176128	0	0
180224	0	0
184320	0	0
188416	0	0
192512	0	0
196608	0	0
200704	0	0
204800	0	0
208896	0	0
212992	0	0
217088	0	0
221184	0	0
225280	0	0
229376	0	0
233472	0	0
237568	0	0
241664	0	0
245760	0	0
249856	0	0
253952	0	0
258048	0	0
262144	0	0
270336	0	0
278528	0	0
286720	0	0
294912	0	0
303104	0	0
311296	0	0
319488	0	0
327680	0	0
335872	0	0
344064	0	0
352256	0	0
360448	0	0
368640	0	0
376832	0	0
385024	0	0
393216	0	0
401408	0	0
409600	0	0
417792	0	0
425984	0	0
434176	0	0
442368	0	0
450560	0	0
458752	0	0
466944	0	0
475136	0	0
483328	0	0
491520	0	0
499712	0	0
507904	0	0
516096	0	0
524288	0	0
540672	0	0
557056	0	0
573440	0	0
589824	0	0
606208	0	0
622592	0	0
638976	0	0
655360	0	0
671744	0	0
688128	0	0
704512	0	0
720896	0	0
737280	0	0
753664	0	0
770048	0	0
786432	0	0
802816	0	0
819200	0	0
835584	0	0
851968	0	0
868352	0	0
884736	0	0
901120	0	0
917504	0	0
933888	0	0
950272	0	0
966656	0	0
983040	0	0
999424	0	0
1015808	0	0
1032192	0	0
1048576	0	0
1081344	0	0
1114112	0	0
1146880	0	0
1179648	0	0
1212416	0	0
1245184	0	0
1277952	0	0
1310720	0	0
1343488	0	0
1376256	0	0
1409024	0	0
1441792	0	0
1474560	0	0
1507328	0	0
1540096	0	0
1572864	0	0
1605632	0	0
1638400	0	0
1671168	0	0
1703936	0	0
1736704	0	0
1769472	0	0
1802240	0	0
1835008	0	0
1867776	0	0
1900544	0	0
1933312	0	0
1966080	0	0
1998848	0	0
2031616	0	0
2064384	0	0
2097152	0	0
2162688	0	0
2228224	0	0
2293760	0	0
2359296	0	0
2424832	0	0
2490368	0	0
2555904	0	0
2621440	0	0
2686976	0	0
2752512	0	0
2818048	0	0
2883584	0	0
2949120	0	0
3014656	0	0
3080192	0	0
3145728	0	0
3211264	0	0
3276800	0	0
3342336	0	0
3407872	0	0
3473408	0	0
3538944	0	0
3604480	0	0
3670016	0	0
3735552	0	0
3801088	0	0
3866624	0	0
3932160	0	0
3997696	0	0
4063232	0	0
4128768	0	0
4194304	0	0
4325376	0	0
4456448	0	0
4587520	0	0
4718592	0	0
4849664	0	0
4980736	0	0
5111808	0	0
5242880	0	0
5373952	0	0
5505024	0	0
5636096	0	0
5767168	0	0
5898240	0	0
6029312	0	0
6160384	0	0
6291456	0	0
6422528	0	0
6553600	0	0
6684672	0	0
6815744	0	0
6946816	0	0
7077888	0	0
7208960	0	0
7340032	0	0
7471104	0	0
7602176	0	0
7733248	0	0
7864320	0	0
7995392	0	0
8126464	0	0
8257536	0	0
8388608	0	0
8650752	0	0
8912896	0	0
9175040	0	0
9437184	0	0
9699328	0	0
9961472	0	0
10223616	0	0
10485760	0	0
10747904	0	0
11010048	0	0
11272192	0	0
11534336	0	0
11796480	0	0
12058624	0	0
12320768	0	0
12582912	0	0
12845056	0	0
13107200	0	0
13369344	0	0
13631488	0	0
13893632	0	0
14155776	0	0
14417920	0	0
14680064	0	0
14942208	0	0
15204352	0	0
15466496	0	0
15728640	0	0
15990784	0	0
16252928	0	0
16515072	0	0
16777216	0	0
17301504	0	0
17825792	0	0
18350080	0	0
18874368	0	0
19398656	0	0
19922944	0	0
20447232	0	0
20971520	0	0
21495808	0	0
22020096	0	0
22544384	0	0
23068672	0	0
23592960	0	0
24117248	0	0
24641536	0	0
25165824	0	0
25690112	0	0
26214400	0	0
26738688	0	0
27262976	0	0
27787264	0	0
28311552	0	0
28835840	0	0
29360128	0	0
29884416	0	0
30408704	0	0
30932992	0	0
31457280	0	0
31981568	0	0
32505856	0	0
33030144	0	0
33554432	0	0
34603008	0	0
35651584	0	0
36700160	0	0
37748736	0	0
38797312	0	0
39845888	0	0
40894464	0	0
41943040	0	0
42991616	0	0
44040192	0	0
45088768	0	0
46137344	0	0
47185920	0	0
48234496	0	0
49283072	0	0
50331648	0	0
51380224	0	0
52428800	0	0
53477376	0	0
54525952	0	0
55574528	0	0
56623104	0	0
57671680	0	0
58720256	0	0
59768832	0	0
60817408	0	0
61865984	0	0
62914560	0	0
63963136	0	0
65011712	0	0
66060288	0	0
67108864	0	0
69206016	0	0
71303168	0	0
73400320	0	0
75497472	0	0
77594624	0	0
79691776	0	0
81788928	0	0
83886080	0	0
85983232	0	0
88080384	0	0
90177536	0	0
92274688	0	0
94371840	0	0
96468992	0	0
98566144	0	0
100663296	0	0
102760448	0	0
104857600	0	0
106954752	0	0
109051904	0	0
111149056	0	0
113246208	0	0
115343360	0	0
117440512	0	0
119537664	0	0
121634816	0	0
123731968	0	0
125829120	0	0
127926272	0	0
130023424	0	0
132120576	0	0
134217728	0	0
138412032	0	0
142606336	0	0
146800640	0	0
150994944	0	0
155189248	0	0
159383552	0	0
163577856	0	0
167772160	0	0
171966464	0	0
176160768	0	0
180355072	0	0
184549376	0	0
188743680	0	0
192937984	0	0
197132288	0	0
201326592	0	0
205520896	0	0
209715200	0	0
213909504	0	0
218103808	0	0
222298112	0	0
226492416	0	0
230686720	0	0
234881024	0	0
239075328	0	0
243269632	0	0
247463936	0	0
251658240	0	0
255852544	0	0
260046848	0	0
264241152	0	0
268435456	0	0
276824064	0	0
285212672	0	0
293601280	0	0
301989888	0	0
310378496	0	0
318767104	0	0
327155712	0	0
335544320	0	0
343932928	0	0
352321536	0	0
360710144	0	0
369098752	0	0
377487360	0	0
385875968	0	0
394264576	0	0
402653184	0	0
411041792	0	0
419430400	0	0
427819008	0	0
436207616	0	0
444596224	0	0
452984832	0	0
461373440	0	0
469762048	0	0
478150656	0	0
486539264	0	0
494927872	0	0
503316480	0	0
511705088	0	0
520093696	0	0
528482304	0	0
536870912	0	0
553648128	0	0
570425344	0	0
587202560	0	0
603979776	0	0
620756992	0	0
637534208	0	0
654311424	0	0
671088640	0	0
687865856	0	0
704643072	0	0
721420288	0	0
738197504	0	0
754974720	0	0
771751936	0	0
788529152	0	0
805306368	0	0
822083584	0	0
838860800	0	0
855638016	0	0
872415232	0	0
889192448	0	0
905969664	0	0
922746880	0	0
939524096	0	0
956301312	0	0
973078528	0	0
989855744	0	0
1006632960	0	0
1023410176	0	0
1040187392	0	0
1056964608	0	0
1073741824	0	0
1107296256	0	0
1140850688	0	0
1174405120	0	0
1207959552	0	0
1241513984	0	0
1275068416	0	0
1308622848	0	0
1342177280	0	0
1375731712	0	0
1409286144	0	0
1442840576	0	0
1476395008	0	0
1509949440	0	0
1543503872	0	0
1577058304	0	0
1610612736	0	0
1644167168	0	0
1677721600	0	0
1711276032	0	0
1744830464	0	0
1778384896	0	0
1811939328	0	0
1845493760	0	0
1879048192	0	0
1912602624	0	0
1946157056	0	0
1979711488	0	0
2013265920	0	0
2046820352	0	0
2080374784	0	0
2113929216	0	0
2147483648	0	0
2214592512	0	0
2281701376	0	0
2348810240	0	0
2415919104	0	0
2483027968	0	0
2550136832	0	0
2617245696	0	0
2684354560	0	0
2751463424	0	0
2818572288	0	0
2885681152	0	0
2952790016	0	0
3019898880	0	0
3087007744	0	0
3154116608	0	0
3221225472	0	0
3288334336	0	0
3355443200	0	0
3422552064	0	0
3489660928	0	0
3556769792	0	0
3623878656	0	0
3690987520	0	0
3758096384	0	0
3825205248	0	0
3892314112	0	0
3959422976	0	0
4026531840	0	0
4093640704	0	0
4160749568	0	0
4227858432	0	0
~~~~~~~~~~Reuse Distance Profiler output end~~~~~~~~~~


DRAM Statistics
 CHANNEL 0
 RQ ROW_BUFFER_HIT:    1065231  ROW_BUFFER_MISS:   11656118
 DBUS AVG_CONGESTED_CYCLE:    3.96257
 WQ ROW_BUFFER_HIT:     442844  ROW_BUFFER_MISS:    4841476  FULL:       5347


CPU 0 Branch Prediction Accuracy: 95.1447% MPKI: 3.99242 Average ROB Occupancy at Mispredict: 175.046
Branch type MPKI
BRANCH_DIRECT_JUMP: 0.000264
BRANCH_INDIRECT: 8.93333e-05
BRANCH_CONDITIONAL: 3.98954
BRANCH_DIRECT_CALL: 0.00196467
BRANCH_INDIRECT_CALL: 2.66667e-06
BRANCH_RETURN: 0.000564

