
*** ChampSim Multicore Out-of-Order Simulator ***

Warmup Instructions: 50000000
Simulation Instructions: 1500000000
Number of CPUs: 1
Off-chip DRAM Size: 4 GiB Channels: 1 Width: 64-bit Data Rate: 3200 MT/s

VirtualMemory physical capacity: 8588881920 num_ppages: 2096895
VirtualMemory page size: 4096 log2_page_size: 12

CPU 0 runs traces/625.x264_s-39B.champsimtrace.xz
CPU 0 Bimodal branch predictor
Basic BTB sets: 1024 ways: 8 indirect buffer size: 4096 RAS size: 64
Initializing LRU.
Initializing LRU.
Initializing LRU.
Initializing LRU.
Initializing rdLRU.
Initializing LRU.
Initializing LRU.
Heartbeat CPU 0 instructions: 2000000 cycles: 506810 heartbeat IPC: 3.94625 cumulative IPC: 3.94625 (Simulation time: 0 hr 0 min 36 sec) 
Heartbeat CPU 0 instructions: 4000003 cycles: 1016845 heartbeat IPC: 3.92131 cumulative IPC: 3.93374 (Simulation time: 0 hr 1 min 19 sec) 
Heartbeat CPU 0 instructions: 6000000 cycles: 1521086 heartbeat IPC: 3.96635 cumulative IPC: 3.94455 (Simulation time: 0 hr 2 min 1 sec) 
Heartbeat CPU 0 instructions: 8000001 cycles: 2023990 heartbeat IPC: 3.9769 cumulative IPC: 3.95259 (Simulation time: 0 hr 2 min 43 sec) 
Heartbeat CPU 0 instructions: 10000000 cycles: 2536006 heartbeat IPC: 3.90613 cumulative IPC: 3.94321 (Simulation time: 0 hr 3 min 29 sec) 
Heartbeat CPU 0 instructions: 12000000 cycles: 3041037 heartbeat IPC: 3.96015 cumulative IPC: 3.94602 (Simulation time: 0 hr 4 min 11 sec) 
Heartbeat CPU 0 instructions: 14000003 cycles: 3541942 heartbeat IPC: 3.99278 cumulative IPC: 3.95263 (Simulation time: 0 hr 4 min 47 sec) 
Heartbeat CPU 0 instructions: 16000003 cycles: 4052820 heartbeat IPC: 3.91483 cumulative IPC: 3.94787 (Simulation time: 0 hr 5 min 27 sec) 
Heartbeat CPU 0 instructions: 18000003 cycles: 4559436 heartbeat IPC: 3.94776 cumulative IPC: 3.94786 (Simulation time: 0 hr 6 min 8 sec) 
Heartbeat CPU 0 instructions: 20000003 cycles: 5060265 heartbeat IPC: 3.99338 cumulative IPC: 3.95236 (Simulation time: 0 hr 6 min 43 sec) 
Heartbeat CPU 0 instructions: 22000002 cycles: 5570277 heartbeat IPC: 3.92147 cumulative IPC: 3.94953 (Simulation time: 0 hr 7 min 21 sec) 
Heartbeat CPU 0 instructions: 24000003 cycles: 6077571 heartbeat IPC: 3.94249 cumulative IPC: 3.94895 (Simulation time: 0 hr 8 min 4 sec) 
Heartbeat CPU 0 instructions: 26000002 cycles: 6579203 heartbeat IPC: 3.98698 cumulative IPC: 3.95185 (Simulation time: 0 hr 8 min 46 sec) 
Heartbeat CPU 0 instructions: 28000003 cycles: 7085331 heartbeat IPC: 3.95157 cumulative IPC: 3.95183 (Simulation time: 0 hr 9 min 25 sec) 
Heartbeat CPU 0 instructions: 30000000 cycles: 7593368 heartbeat IPC: 3.93672 cumulative IPC: 3.95082 (Simulation time: 0 hr 10 min 10 sec) 
Heartbeat CPU 0 instructions: 32000001 cycles: 8095456 heartbeat IPC: 3.98337 cumulative IPC: 3.95283 (Simulation time: 0 hr 10 min 56 sec) 
Heartbeat CPU 0 instructions: 34000002 cycles: 8599053 heartbeat IPC: 3.97143 cumulative IPC: 3.95392 (Simulation time: 0 hr 11 min 37 sec) 
Heartbeat CPU 0 instructions: 36000003 cycles: 9108150 heartbeat IPC: 3.92853 cumulative IPC: 3.9525 (Simulation time: 0 hr 12 min 21 sec) 
Heartbeat CPU 0 instructions: 38000002 cycles: 9613082 heartbeat IPC: 3.96093 cumulative IPC: 3.95295 (Simulation time: 0 hr 13 min 3 sec) 
Heartbeat CPU 0 instructions: 40000003 cycles: 10115382 heartbeat IPC: 3.98169 cumulative IPC: 3.95437 (Simulation time: 0 hr 13 min 42 sec) 
Heartbeat CPU 0 instructions: 42000001 cycles: 10624480 heartbeat IPC: 3.92851 cumulative IPC: 3.95313 (Simulation time: 0 hr 14 min 30 sec) 
Heartbeat CPU 0 instructions: 44000002 cycles: 11128553 heartbeat IPC: 3.96768 cumulative IPC: 3.95379 (Simulation time: 0 hr 15 min 14 sec) 
Heartbeat CPU 0 instructions: 46000003 cycles: 11629930 heartbeat IPC: 3.98902 cumulative IPC: 3.95531 (Simulation time: 0 hr 15 min 57 sec) 
Heartbeat CPU 0 instructions: 48000000 cycles: 12140337 heartbeat IPC: 3.91844 cumulative IPC: 3.95376 (Simulation time: 0 hr 16 min 38 sec) 
Heartbeat CPU 0 instructions: 50000001 cycles: 12645208 heartbeat IPC: 3.96141 cumulative IPC: 3.95407 (Simulation time: 0 hr 17 min 23 sec) 

Warmup complete CPU 0 instructions: 50000001 cycles: 12645208 (Simulation time: 0 hr 17 min 23 sec) 

Heartbeat CPU 0 instructions: 52000000 cycles: 13394912 heartbeat IPC: 2.66772 cumulative IPC: 2.66772 (Simulation time: 0 hr 18 min 7 sec) 

Region of Interest Statistics
cpu0_DTLB TOTAL     ACCESS:     252856  HIT:     252166  MISS:        690
cpu0_DTLB LOAD      ACCESS:     179742  HIT:     179292  MISS:        450
cpu0_DTLB RFO       ACCESS:      73114  HIT:      72874  MISS:        240
cpu0_DTLB PREFETCH  ACCESS:          0  HIT:          0  MISS:          0
cpu0_DTLB WRITEBACK ACCESS:          0  HIT:          0  MISS:          0
cpu0_ITLB TOTAL     ACCESS:      65250  HIT:      65235  MISS:         15
cpu0_ITLB LOAD      ACCESS:      65250  HIT:      65235  MISS:         15
cpu0_ITLB RFO       ACCESS:          0  HIT:          0  MISS:          0
cpu0_ITLB PREFETCH  ACCESS:          0  HIT:          0  MISS:          0
cpu0_ITLB WRITEBACK ACCESS:          0  HIT:          0  MISS:          0
cpu0_L1I TOTAL     ACCESS:      56602  HIT:      51937  MISS:       4665
cpu0_L1I LOAD      ACCESS:      56602  HIT:      51937  MISS:       4665
cpu0_L1I RFO       ACCESS:          0  HIT:          0  MISS:          0
cpu0_L1I PREFETCH  ACCESS:          0  HIT:          0  MISS:          0
cpu0_L1I WRITEBACK ACCESS:          0  HIT:          0  MISS:          0
cpu0_STLB TOTAL     ACCESS:        705  HIT:        670  MISS:         35
cpu0_STLB LOAD      ACCESS:        465  HIT:        456  MISS:          9
cpu0_STLB RFO       ACCESS:        240  HIT:        214  MISS:         26
cpu0_STLB PREFETCH  ACCESS:          0  HIT:          0  MISS:          0
cpu0_STLB WRITEBACK ACCESS:          0  HIT:          0  MISS:          0
cpu0_L1D TOTAL     ACCESS:     311900  HIT:     308947  MISS:       2953
cpu0_L1D LOAD      ACCESS:     213669  HIT:     212099  MISS:       1570
cpu0_L1D RFO       ACCESS:      98200  HIT:      96820  MISS:       1380
cpu0_L1D PREFETCH  ACCESS:          0  HIT:          0  MISS:          0
cpu0_L1D WRITEBACK ACCESS:          0  HIT:          0  MISS:          0
cpu0_L2C TOTAL     ACCESS:       9401  HIT:       7971  MISS:       1430
cpu0_L2C LOAD      ACCESS:       6235  HIT:       5930  MISS:        305
cpu0_L2C RFO       ACCESS:       1378  HIT:        259  MISS:       1119
cpu0_L2C PREFETCH  ACCESS:          0  HIT:          0  MISS:          0
cpu0_L2C WRITEBACK ACCESS:       1785  HIT:       1779  MISS:          6
LLC TOTAL     ACCESS:       1982  HIT:          4  MISS:       1978
LLC LOAD      ACCESS:        305  HIT:          3  MISS:        302
LLC RFO       ACCESS:       1119  HIT:          1  MISS:       1118
LLC PREFETCH  ACCESS:          0  HIT:          0  MISS:          0
LLC WRITEBACK ACCESS:        558  HIT:          0  MISS:        558
Heartbeat CPU 0 instructions: 54000000 cycles: 14282616 heartbeat IPC: 2.253 cumulative IPC: 2.44288 (Simulation time: 0 hr 18 min 53 sec) 

Region of Interest Statistics
cpu0_DTLB TOTAL     ACCESS:     497945  HIT:     494509  MISS:       3436
cpu0_DTLB LOAD      ACCESS:     362626  HIT:     360166  MISS:       2460
cpu0_DTLB RFO       ACCESS:     135319  HIT:     134343  MISS:        976
cpu0_DTLB PREFETCH  ACCESS:          0  HIT:          0  MISS:          0
cpu0_DTLB WRITEBACK ACCESS:          0  HIT:          0  MISS:          0
cpu0_ITLB TOTAL     ACCESS:     182072  HIT:     182031  MISS:         41
cpu0_ITLB LOAD      ACCESS:     182072  HIT:     182031  MISS:         41
cpu0_ITLB RFO       ACCESS:          0  HIT:          0  MISS:          0
cpu0_ITLB PREFETCH  ACCESS:          0  HIT:          0  MISS:          0
cpu0_ITLB WRITEBACK ACCESS:          0  HIT:          0  MISS:          0
cpu0_L1I TOTAL     ACCESS:     159556  HIT:     137713  MISS:      21843
cpu0_L1I LOAD      ACCESS:     159556  HIT:     137713  MISS:      21843
cpu0_L1I RFO       ACCESS:          0  HIT:          0  MISS:          0
cpu0_L1I PREFETCH  ACCESS:          0  HIT:          0  MISS:          0
cpu0_L1I WRITEBACK ACCESS:          0  HIT:          0  MISS:          0
cpu0_STLB TOTAL     ACCESS:       3477  HIT:       3398  MISS:         79
cpu0_STLB LOAD      ACCESS:       2501  HIT:       2450  MISS:         51
cpu0_STLB RFO       ACCESS:        976  HIT:        948  MISS:         28
cpu0_STLB PREFETCH  ACCESS:          0  HIT:          0  MISS:          0
cpu0_STLB WRITEBACK ACCESS:          0  HIT:          0  MISS:          0
cpu0_L1D TOTAL     ACCESS:     626498  HIT:     620555  MISS:       5943
cpu0_L1D LOAD      ACCESS:     382445  HIT:     378530  MISS:       3915
cpu0_L1D RFO       ACCESS:     243978  HIT:     241957  MISS:       2021
cpu0_L1D PREFETCH  ACCESS:          0  HIT:          0  MISS:          0
cpu0_L1D WRITEBACK ACCESS:          0  HIT:          0  MISS:          0
cpu0_L2C TOTAL     ACCESS:      30407  HIT:      27749  MISS:       2658
cpu0_L2C LOAD      ACCESS:      25757  HIT:      24442  MISS:       1315
cpu0_L2C RFO       ACCESS:       2012  HIT:        676  MISS:       1336
cpu0_L2C PREFETCH  ACCESS:          0  HIT:          0  MISS:          0
cpu0_L2C WRITEBACK ACCESS:       2631  HIT:       2625  MISS:          6
LLC TOTAL     ACCESS:       3775  HIT:          9  MISS:       3766
LLC LOAD      ACCESS:       1315  HIT:          8  MISS:       1307
LLC RFO       ACCESS:       1336  HIT:          1  MISS:       1335
LLC PREFETCH  ACCESS:          0  HIT:          0  MISS:          0
LLC WRITEBACK ACCESS:       1123  HIT:          0  MISS:       1123
Heartbeat CPU 0 instructions: 56000004 cycles: 15133021 heartbeat IPC: 2.35183 cumulative IPC: 2.41176 (Simulation time: 0 hr 19 min 38 sec) 

Region of Interest Statistics
cpu0_DTLB TOTAL     ACCESS:     734483  HIT:     728286  MISS:       6197
cpu0_DTLB LOAD      ACCESS:     537831  HIT:     533529  MISS:       4302
cpu0_DTLB RFO       ACCESS:     196652  HIT:     194757  MISS:       1895
cpu0_DTLB PREFETCH  ACCESS:          0  HIT:          0  MISS:          0
cpu0_DTLB WRITEBACK ACCESS:          0  HIT:          0  MISS:          0
cpu0_ITLB TOTAL     ACCESS:     292473  HIT:     292423  MISS:         50
cpu0_ITLB LOAD      ACCESS:     292473  HIT:     292423  MISS:         50
cpu0_ITLB RFO       ACCESS:          0  HIT:          0  MISS:          0
cpu0_ITLB PREFETCH  ACCESS:          0  HIT:          0  MISS:          0
cpu0_ITLB WRITEBACK ACCESS:          0  HIT:          0  MISS:          0
cpu0_L1I TOTAL     ACCESS:     268458  HIT:     229816  MISS:      38642
cpu0_L1I LOAD      ACCESS:     268458  HIT:     229816  MISS:      38642
cpu0_L1I RFO       ACCESS:          0  HIT:          0  MISS:          0
cpu0_L1I PREFETCH  ACCESS:          0  HIT:          0  MISS:          0
cpu0_L1I WRITEBACK ACCESS:          0  HIT:          0  MISS:          0
cpu0_STLB TOTAL     ACCESS:       6247  HIT:       6162  MISS:         85
cpu0_STLB LOAD      ACCESS:       4352  HIT:       4295  MISS:         57
cpu0_STLB RFO       ACCESS:       1895  HIT:       1867  MISS:         28
cpu0_STLB PREFETCH  ACCESS:          0  HIT:          0  MISS:          0
cpu0_STLB WRITEBACK ACCESS:          0  HIT:          0  MISS:          0
cpu0_L1D TOTAL     ACCESS:     932900  HIT:     924460  MISS:       8440
cpu0_L1D LOAD      ACCESS:     543844  HIT:     538059  MISS:       5785
cpu0_L1D RFO       ACCESS:     388975  HIT:     386328  MISS:       2647
cpu0_L1D PREFETCH  ACCESS:          0  HIT:          0  MISS:          0
cpu0_L1D WRITEBACK ACCESS:          0  HIT:          0  MISS:          0
cpu0_L2C TOTAL     ACCESS:      50300  HIT:      46403  MISS:       3897
cpu0_L2C LOAD      ACCESS:      44426  HIT:      42168  MISS:       2258
cpu0_L2C RFO       ACCESS:       2631  HIT:       1000  MISS:       1631
cpu0_L2C PREFETCH  ACCESS:          0  HIT:          0  MISS:          0
cpu0_L2C WRITEBACK ACCESS:       3235  HIT:       3228  MISS:          7
LLC TOTAL     ACCESS:       5606  HIT:         12  MISS:       5594
LLC LOAD      ACCESS:       2258  HIT:         10  MISS:       2248
LLC RFO       ACCESS:       1631  HIT:          2  MISS:       1629
LLC PREFETCH  ACCESS:          0  HIT:          0  MISS:          0
LLC WRITEBACK ACCESS:       1716  HIT:          0  MISS:       1716
Heartbeat CPU 0 instructions: 58000002 cycles: 15930765 heartbeat IPC: 2.50707 cumulative IPC: 2.4349 (Simulation time: 0 hr 20 min 19 sec) 

Region of Interest Statistics
cpu0_DTLB TOTAL     ACCESS:     982629  HIT:     975560  MISS:       7069
cpu0_DTLB LOAD      ACCESS:     715597  HIT:     710756  MISS:       4841
cpu0_DTLB RFO       ACCESS:     267032  HIT:     264804  MISS:       2228
cpu0_DTLB PREFETCH  ACCESS:          0  HIT:          0  MISS:          0
cpu0_DTLB WRITEBACK ACCESS:          0  HIT:          0  MISS:          0
cpu0_ITLB TOTAL     ACCESS:     378270  HIT:     378219  MISS:         51
cpu0_ITLB LOAD      ACCESS:     378270  HIT:     378219  MISS:         51
cpu0_ITLB RFO       ACCESS:          0  HIT:          0  MISS:          0
cpu0_ITLB PREFETCH  ACCESS:          0  HIT:          0  MISS:          0
cpu0_ITLB WRITEBACK ACCESS:          0  HIT:          0  MISS:          0
cpu0_L1I TOTAL     ACCESS:     337287  HIT:     291365  MISS:      45922
cpu0_L1I LOAD      ACCESS:     337287  HIT:     291365  MISS:      45922
cpu0_L1I RFO       ACCESS:          0  HIT:          0  MISS:          0
cpu0_L1I PREFETCH  ACCESS:          0  HIT:          0  MISS:          0
cpu0_L1I WRITEBACK ACCESS:          0  HIT:          0  MISS:          0
cpu0_STLB TOTAL     ACCESS:       7120  HIT:       7025  MISS:         95
cpu0_STLB LOAD      ACCESS:       4892  HIT:       4835  MISS:         57
cpu0_STLB RFO       ACCESS:       2228  HIT:       2190  MISS:         38
cpu0_STLB PREFETCH  ACCESS:          0  HIT:          0  MISS:          0
cpu0_STLB WRITEBACK ACCESS:          0  HIT:          0  MISS:          0
cpu0_L1D TOTAL     ACCESS:    1247707  HIT:    1237086  MISS:      10621
cpu0_L1D LOAD      ACCESS:     744374  HIT:     737324  MISS:       7050
cpu0_L1D RFO       ACCESS:     503242  HIT:     499681  MISS:       3561
cpu0_L1D PREFETCH  ACCESS:          0  HIT:          0  MISS:          0
cpu0_L1D WRITEBACK ACCESS:          0  HIT:          0  MISS:          0
cpu0_L2C TOTAL     ACCESS:      60871  HIT:      55865  MISS:       5006
cpu0_L2C LOAD      ACCESS:      52971  HIT:      50402  MISS:       2569
cpu0_L2C RFO       ACCESS:       3545  HIT:       1129  MISS:       2416
cpu0_L2C PREFETCH  ACCESS:          0  HIT:          0  MISS:          0
cpu0_L2C WRITEBACK ACCESS:       4345  HIT:       4325  MISS:         20
LLC TOTAL     ACCESS:       7315  HIT:         21  MISS:       7294
LLC LOAD      ACCESS:       2569  HIT:         15  MISS:       2554
LLC RFO       ACCESS:       2416  HIT:          6  MISS:       2410
LLC PREFETCH  ACCESS:          0  HIT:          0  MISS:          0
LLC WRITEBACK ACCESS:       2329  HIT:          0  MISS:       2329
Heartbeat CPU 0 instructions: 60000004 cycles: 16757879 heartbeat IPC: 2.41805 cumulative IPC: 2.43151 (Simulation time: 0 hr 21 min 2 sec) 

Region of Interest Statistics
cpu0_DTLB TOTAL     ACCESS:    1230102  HIT:    1220435  MISS:       9667
cpu0_DTLB LOAD      ACCESS:     897277  HIT:     890536  MISS:       6741
cpu0_DTLB RFO       ACCESS:     332825  HIT:     329899  MISS:       2926
cpu0_DTLB PREFETCH  ACCESS:          0  HIT:          0  MISS:          0
cpu0_DTLB WRITEBACK ACCESS:          0  HIT:          0  MISS:          0
cpu0_ITLB TOTAL     ACCESS:     474544  HIT:     474483  MISS:         61
cpu0_ITLB LOAD      ACCESS:     474544  HIT:     474483  MISS:         61
cpu0_ITLB RFO       ACCESS:          0  HIT:          0  MISS:          0
cpu0_ITLB PREFETCH  ACCESS:          0  HIT:          0  MISS:          0
cpu0_ITLB WRITEBACK ACCESS:          0  HIT:          0  MISS:          0
cpu0_L1I TOTAL     ACCESS:     426402  HIT:     366974  MISS:      59428
cpu0_L1I LOAD      ACCESS:     426402  HIT:     366974  MISS:      59428
cpu0_L1I RFO       ACCESS:          0  HIT:          0  MISS:          0
cpu0_L1I PREFETCH  ACCESS:          0  HIT:          0  MISS:          0
cpu0_L1I WRITEBACK ACCESS:          0  HIT:          0  MISS:          0
cpu0_STLB TOTAL     ACCESS:       9728  HIT:       9586  MISS:        142
cpu0_STLB LOAD      ACCESS:       6802  HIT:       6712  MISS:         90
cpu0_STLB RFO       ACCESS:       2926  HIT:       2874  MISS:         52
cpu0_STLB PREFETCH  ACCESS:          0  HIT:          0  MISS:          0
cpu0_STLB WRITEBACK ACCESS:          0  HIT:          0  MISS:          0
cpu0_L1D TOTAL     ACCESS:    1557749  HIT:    1544093  MISS:      13656
cpu0_L1D LOAD      ACCESS:     925867  HIT:     916744  MISS:       9123
cpu0_L1D RFO       ACCESS:     631749  HIT:     627230  MISS:       4519
cpu0_L1D PREFETCH  ACCESS:          0  HIT:          0  MISS:          0
cpu0_L1D WRITEBACK ACCESS:          0  HIT:          0  MISS:          0
cpu0_L2C TOTAL     ACCESS:      78741  HIT:      72174  MISS:       6567
cpu0_L2C LOAD      ACCESS:      68550  HIT:      65047  MISS:       3503
cpu0_L2C RFO       ACCESS:       4495  HIT:       1452  MISS:       3043
cpu0_L2C PREFETCH  ACCESS:          0  HIT:          0  MISS:          0
cpu0_L2C WRITEBACK ACCESS:       5682  HIT:       5662  MISS:         20
LLC TOTAL     ACCESS:       9458  HIT:         49  MISS:       9409
LLC LOAD      ACCESS:       3503  HIT:         29  MISS:       3474
LLC RFO       ACCESS:       3043  HIT:         20  MISS:       3023
LLC PREFETCH  ACCESS:          0  HIT:          0  MISS:          0
LLC WRITEBACK ACCESS:       2911  HIT:          0  MISS:       2911
Heartbeat CPU 0 instructions: 62000003 cycles: 17620025 heartbeat IPC: 2.31979 cumulative IPC: 2.41215 (Simulation time: 0 hr 21 min 45 sec) 

Region of Interest Statistics
cpu0_DTLB TOTAL     ACCESS:    1468078  HIT:    1455350  MISS:      12728
cpu0_DTLB LOAD      ACCESS:    1071751  HIT:    1062850  MISS:       8901
cpu0_DTLB RFO       ACCESS:     396327  HIT:     392500  MISS:       3827
cpu0_DTLB PREFETCH  ACCESS:          0  HIT:          0  MISS:          0
cpu0_DTLB WRITEBACK ACCESS:          0  HIT:          0  MISS:          0
cpu0_ITLB TOTAL     ACCESS:     585516  HIT:     585415  MISS:        101
cpu0_ITLB LOAD      ACCESS:     585516  HIT:     585415  MISS:        101
cpu0_ITLB RFO       ACCESS:          0  HIT:          0  MISS:          0
cpu0_ITLB PREFETCH  ACCESS:          0  HIT:          0  MISS:          0
cpu0_ITLB WRITEBACK ACCESS:          0  HIT:          0  MISS:          0
cpu0_L1I TOTAL     ACCESS:     535768  HIT:     460409  MISS:      75359
cpu0_L1I LOAD      ACCESS:     535768  HIT:     460409  MISS:      75359
cpu0_L1I RFO       ACCESS:          0  HIT:          0  MISS:          0
cpu0_L1I PREFETCH  ACCESS:          0  HIT:          0  MISS:          0
cpu0_L1I WRITEBACK ACCESS:          0  HIT:          0  MISS:          0
cpu0_STLB TOTAL     ACCESS:      12829  HIT:      12670  MISS:        159
cpu0_STLB LOAD      ACCESS:       9002  HIT:       8895  MISS:        107
cpu0_STLB RFO       ACCESS:       3827  HIT:       3775  MISS:         52
cpu0_STLB PREFETCH  ACCESS:          0  HIT:          0  MISS:          0
cpu0_STLB WRITEBACK ACCESS:          0  HIT:          0  MISS:          0
cpu0_L1D TOTAL     ACCESS:    1871671  HIT:    1855635  MISS:      16036
cpu0_L1D LOAD      ACCESS:    1090009  HIT:    1079028  MISS:      10981
cpu0_L1D RFO       ACCESS:     781512  HIT:     776471  MISS:       5041
cpu0_L1D PREFETCH  ACCESS:          0  HIT:          0  MISS:          0
cpu0_L1D WRITEBACK ACCESS:          0  HIT:          0  MISS:          0
cpu0_L2C TOTAL     ACCESS:      97570  HIT:      89710  MISS:       7860
cpu0_L2C LOAD      ACCESS:      86340  HIT:      81818  MISS:       4522
cpu0_L2C RFO       ACCESS:       5013  HIT:       1696  MISS:       3317
cpu0_L2C PREFETCH  ACCESS:          0  HIT:          0  MISS:          0
cpu0_L2C WRITEBACK ACCESS:       6203  HIT:       6183  MISS:         20
LLC TOTAL     ACCESS:      11338  HIT:         51  MISS:      11287
LLC LOAD      ACCESS:       4522  HIT:         31  MISS:       4491
LLC RFO       ACCESS:       3317  HIT:         20  MISS:       3297
LLC PREFETCH  ACCESS:          0  HIT:          0  MISS:          0
LLC WRITEBACK ACCESS:       3498  HIT:          0  MISS:       3498
Heartbeat CPU 0 instructions: 64000000 cycles: 18504147 heartbeat IPC: 2.26213 cumulative IPC: 2.38951 (Simulation time: 0 hr 22 min 24 sec) 

Region of Interest Statistics
cpu0_DTLB TOTAL     ACCESS:    1710346  HIT:    1695838  MISS:      14508
cpu0_DTLB LOAD      ACCESS:    1249266  HIT:    1239112  MISS:      10154
cpu0_DTLB RFO       ACCESS:     461080  HIT:     456726  MISS:       4354
cpu0_DTLB PREFETCH  ACCESS:          0  HIT:          0  MISS:          0
cpu0_DTLB WRITEBACK ACCESS:          0  HIT:          0  MISS:          0
cpu0_ITLB TOTAL     ACCESS:     696988  HIT:     696886  MISS:        102
cpu0_ITLB LOAD      ACCESS:     696988  HIT:     696886  MISS:        102
cpu0_ITLB RFO       ACCESS:          0  HIT:          0  MISS:          0
cpu0_ITLB PREFETCH  ACCESS:          0  HIT:          0  MISS:          0
cpu0_ITLB WRITEBACK ACCESS:          0  HIT:          0  MISS:          0
cpu0_L1I TOTAL     ACCESS:     624477  HIT:     537189  MISS:      87288
cpu0_L1I LOAD      ACCESS:     624477  HIT:     537189  MISS:      87288
cpu0_L1I RFO       ACCESS:          0  HIT:          0  MISS:          0
cpu0_L1I PREFETCH  ACCESS:          0  HIT:          0  MISS:          0
cpu0_L1I WRITEBACK ACCESS:          0  HIT:          0  MISS:          0
cpu0_STLB TOTAL     ACCESS:      14610  HIT:      14448  MISS:        162
cpu0_STLB LOAD      ACCESS:      10256  HIT:      10149  MISS:        107
cpu0_STLB RFO       ACCESS:       4354  HIT:       4299  MISS:         55
cpu0_STLB PREFETCH  ACCESS:          0  HIT:          0  MISS:          0
cpu0_STLB WRITEBACK ACCESS:          0  HIT:          0  MISS:          0
cpu0_L1D TOTAL     ACCESS:    2188884  HIT:    2170328  MISS:      18556
cpu0_L1D LOAD      ACCESS:    1271568  HIT:    1258803  MISS:      12765
cpu0_L1D RFO       ACCESS:     917163  HIT:     911387  MISS:       5776
cpu0_L1D PREFETCH  ACCESS:          0  HIT:          0  MISS:          0
cpu0_L1D WRITEBACK ACCESS:          0  HIT:          0  MISS:          0
cpu0_L2C TOTAL     ACCESS:     112957  HIT:     104205  MISS:       8752
cpu0_L2C LOAD      ACCESS:     100052  HIT:      94971  MISS:       5081
cpu0_L2C RFO       ACCESS:       5744  HIT:       2099  MISS:       3645
cpu0_L2C PREFETCH  ACCESS:          0  HIT:          0  MISS:          0
cpu0_L2C WRITEBACK ACCESS:       7146  HIT:       7121  MISS:         25
LLC TOTAL     ACCESS:      12615  HIT:         75  MISS:      12540
LLC LOAD      ACCESS:       5081  HIT:         49  MISS:       5032
LLC RFO       ACCESS:       3645  HIT:         26  MISS:       3619
LLC PREFETCH  ACCESS:          0  HIT:          0  MISS:          0
LLC WRITEBACK ACCESS:       3888  HIT:          0  MISS:       3888
Heartbeat CPU 0 instructions: 66000000 cycles: 19234947 heartbeat IPC: 2.73673 cumulative IPC: 2.42802 (Simulation time: 0 hr 23 min 5 sec) 

Region of Interest Statistics
cpu0_DTLB TOTAL     ACCESS:    1960386  HIT:    1944567  MISS:      15819
cpu0_DTLB LOAD      ACCESS:    1427589  HIT:    1416513  MISS:      11076
cpu0_DTLB RFO       ACCESS:     532797  HIT:     528054  MISS:       4743
cpu0_DTLB PREFETCH  ACCESS:          0  HIT:          0  MISS:          0
cpu0_DTLB WRITEBACK ACCESS:          0  HIT:          0  MISS:          0
cpu0_ITLB TOTAL     ACCESS:     766545  HIT:     766435  MISS:        110
cpu0_ITLB LOAD      ACCESS:     766545  HIT:     766435  MISS:        110
cpu0_ITLB RFO       ACCESS:          0  HIT:          0  MISS:          0
cpu0_ITLB PREFETCH  ACCESS:          0  HIT:          0  MISS:          0
cpu0_ITLB WRITEBACK ACCESS:          0  HIT:          0  MISS:          0
cpu0_L1I TOTAL     ACCESS:     694179  HIT:     597916  MISS:      96263
cpu0_L1I LOAD      ACCESS:     694179  HIT:     597916  MISS:      96263
cpu0_L1I RFO       ACCESS:          0  HIT:          0  MISS:          0
cpu0_L1I PREFETCH  ACCESS:          0  HIT:          0  MISS:          0
cpu0_L1I WRITEBACK ACCESS:          0  HIT:          0  MISS:          0
cpu0_STLB TOTAL     ACCESS:      15929  HIT:      15732  MISS:        197
cpu0_STLB LOAD      ACCESS:      11186  HIT:      11065  MISS:        121
cpu0_STLB RFO       ACCESS:       4743  HIT:       4667  MISS:         76
cpu0_STLB PREFETCH  ACCESS:          0  HIT:          0  MISS:          0
cpu0_STLB WRITEBACK ACCESS:          0  HIT:          0  MISS:          0
cpu0_L1D TOTAL     ACCESS:    2494440  HIT:    2472816  MISS:      21624
cpu0_L1D LOAD      ACCESS:    1469108  HIT:    1454642  MISS:      14466
cpu0_L1D RFO       ACCESS:    1025148  HIT:    1018008  MISS:       7140
cpu0_L1D PREFETCH  ACCESS:          0  HIT:          0  MISS:          0
cpu0_L1D WRITEBACK ACCESS:          0  HIT:          0  MISS:          0
cpu0_L2C TOTAL     ACCESS:     126757  HIT:     116362  MISS:      10395
cpu0_L2C LOAD      ACCESS:     110728  HIT:     105019  MISS:       5709
cpu0_L2C RFO       ACCESS:       7106  HIT:       2446  MISS:       4660
cpu0_L2C PREFETCH  ACCESS:          0  HIT:          0  MISS:          0
cpu0_L2C WRITEBACK ACCESS:       8905  HIT:       8880  MISS:         25
LLC TOTAL     ACCESS:      14929  HIT:         79  MISS:      14850
LLC LOAD      ACCESS:       5709  HIT:         51  MISS:       5658
LLC RFO       ACCESS:       4660  HIT:         28  MISS:       4632
LLC PREFETCH  ACCESS:          0  HIT:          0  MISS:          0
LLC WRITEBACK ACCESS:       4559  HIT:          0  MISS:       4559
Heartbeat CPU 0 instructions: 68000001 cycles: 20129827 heartbeat IPC: 2.23494 cumulative IPC: 2.40493 (Simulation time: 0 hr 23 min 46 sec) 

Region of Interest Statistics
cpu0_DTLB TOTAL     ACCESS:    2205951  HIT:    2187496  MISS:      18455
cpu0_DTLB LOAD      ACCESS:    1606635  HIT:    1593656  MISS:      12979
cpu0_DTLB RFO       ACCESS:     599316  HIT:     593840  MISS:       5476
cpu0_DTLB PREFETCH  ACCESS:          0  HIT:          0  MISS:          0
cpu0_DTLB WRITEBACK ACCESS:          0  HIT:          0  MISS:          0
cpu0_ITLB TOTAL     ACCESS:     881842  HIT:     881681  MISS:        161
cpu0_ITLB LOAD      ACCESS:     881842  HIT:     881681  MISS:        161
cpu0_ITLB RFO       ACCESS:          0  HIT:          0  MISS:          0
cpu0_ITLB PREFETCH  ACCESS:          0  HIT:          0  MISS:          0
cpu0_ITLB WRITEBACK ACCESS:          0  HIT:          0  MISS:          0
cpu0_L1I TOTAL     ACCESS:     802122  HIT:     690554  MISS:     111568
cpu0_L1I LOAD      ACCESS:     802122  HIT:     690554  MISS:     111568
cpu0_L1I RFO       ACCESS:          0  HIT:          0  MISS:          0
cpu0_L1I PREFETCH  ACCESS:          0  HIT:          0  MISS:          0
cpu0_L1I WRITEBACK ACCESS:          0  HIT:          0  MISS:          0
cpu0_STLB TOTAL     ACCESS:      18616  HIT:      18392  MISS:        224
cpu0_STLB LOAD      ACCESS:      13140  HIT:      12993  MISS:        147
cpu0_STLB RFO       ACCESS:       5476  HIT:       5399  MISS:         77
cpu0_STLB PREFETCH  ACCESS:          0  HIT:          0  MISS:          0
cpu0_STLB WRITEBACK ACCESS:          0  HIT:          0  MISS:          0
cpu0_L1D TOTAL     ACCESS:    2818900  HIT:    2794445  MISS:      24455
cpu0_L1D LOAD      ACCESS:    1639363  HIT:    1622672  MISS:      16691
cpu0_L1D RFO       ACCESS:    1179326  HIT:    1171581  MISS:       7745
cpu0_L1D PREFETCH  ACCESS:          0  HIT:          0  MISS:          0
cpu0_L1D WRITEBACK ACCESS:          0  HIT:          0  MISS:          0
cpu0_L2C TOTAL     ACCESS:     145523  HIT:     133838  MISS:      11685
cpu0_L2C LOAD      ACCESS:     128257  HIT:     121503  MISS:       6754
cpu0_L2C RFO       ACCESS:       7697  HIT:       2792  MISS:       4905
cpu0_L2C PREFETCH  ACCESS:          0  HIT:          0  MISS:          0
cpu0_L2C WRITEBACK ACCESS:       9550  HIT:       9525  MISS:         25
LLC TOTAL     ACCESS:      16689  HIT:         85  MISS:      16604
LLC LOAD      ACCESS:       6754  HIT:         57  MISS:       6697
LLC RFO       ACCESS:       4905  HIT:         28  MISS:       4877
LLC PREFETCH  ACCESS:          0  HIT:          0  MISS:          0
LLC WRITEBACK ACCESS:       5029  HIT:          0  MISS:       5029
Heartbeat CPU 0 instructions: 70000002 cycles: 20993315 heartbeat IPC: 2.31619 cumulative IPC: 2.39575 (Simulation time: 0 hr 24 min 26 sec) 

Region of Interest Statistics
cpu0_DTLB TOTAL     ACCESS:    2441736  HIT:    2420934  MISS:      20802
cpu0_DTLB LOAD      ACCESS:    1778645  HIT:    1764046  MISS:      14599
cpu0_DTLB RFO       ACCESS:     663091  HIT:     656888  MISS:       6203
cpu0_DTLB PREFETCH  ACCESS:          0  HIT:          0  MISS:          0
cpu0_DTLB WRITEBACK ACCESS:          0  HIT:          0  MISS:          0
cpu0_ITLB TOTAL     ACCESS:     990955  HIT:     990785  MISS:        170
cpu0_ITLB LOAD      ACCESS:     990955  HIT:     990785  MISS:        170
cpu0_ITLB RFO       ACCESS:          0  HIT:          0  MISS:          0
cpu0_ITLB PREFETCH  ACCESS:          0  HIT:          0  MISS:          0
cpu0_ITLB WRITEBACK ACCESS:          0  HIT:          0  MISS:          0
cpu0_L1I TOTAL     ACCESS:     912412  HIT:     783329  MISS:     129083
cpu0_L1I LOAD      ACCESS:     912412  HIT:     783329  MISS:     129083
cpu0_L1I RFO       ACCESS:          0  HIT:          0  MISS:          0
cpu0_L1I PREFETCH  ACCESS:          0  HIT:          0  MISS:          0
cpu0_L1I WRITEBACK ACCESS:          0  HIT:          0  MISS:          0
cpu0_STLB TOTAL     ACCESS:      20972  HIT:      20725  MISS:        247
cpu0_STLB LOAD      ACCESS:      14769  HIT:      14599  MISS:        170
cpu0_STLB RFO       ACCESS:       6203  HIT:       6126  MISS:         77
cpu0_STLB PREFETCH  ACCESS:          0  HIT:          0  MISS:          0
cpu0_STLB WRITEBACK ACCESS:          0  HIT:          0  MISS:          0
cpu0_L1D TOTAL     ACCESS:    3130982  HIT:    3104728  MISS:      26254
cpu0_L1D LOAD      ACCESS:    1800435  HIT:    1782383  MISS:      18052
cpu0_L1D RFO       ACCESS:    1330313  HIT:    1322131  MISS:       8182
cpu0_L1D PREFETCH  ACCESS:          0  HIT:          0  MISS:          0
cpu0_L1D WRITEBACK ACCESS:          0  HIT:          0  MISS:          0
cpu0_L2C TOTAL     ACCESS:     165274  HIT:     152517  MISS:      12757
cpu0_L2C LOAD      ACCESS:     147133  HIT:     139552  MISS:       7581
cpu0_L2C RFO       ACCESS:       8126  HIT:       2977  MISS:       5149
cpu0_L2C PREFETCH  ACCESS:          0  HIT:          0  MISS:          0
cpu0_L2C WRITEBACK ACCESS:       9995  HIT:       9969  MISS:         26
LLC TOTAL     ACCESS:      18233  HIT:         91  MISS:      18142
LLC LOAD      ACCESS:       7581  HIT:         63  MISS:       7518
LLC RFO       ACCESS:       5149  HIT:         28  MISS:       5121
LLC PREFETCH  ACCESS:          0  HIT:          0  MISS:          0
LLC WRITEBACK ACCESS:       5502  HIT:          0  MISS:       5502
Heartbeat CPU 0 instructions: 72000004 cycles: 21748278 heartbeat IPC: 2.64914 cumulative IPC: 2.41677 (Simulation time: 0 hr 24 min 58 sec) 

Region of Interest Statistics
cpu0_DTLB TOTAL     ACCESS:    2694597  HIT:    2673298  MISS:      21299
cpu0_DTLB LOAD      ACCESS:    1959001  HIT:    1944093  MISS:      14908
cpu0_DTLB RFO       ACCESS:     735596  HIT:     729205  MISS:       6391
cpu0_DTLB PREFETCH  ACCESS:          0  HIT:          0  MISS:          0
cpu0_DTLB WRITEBACK ACCESS:          0  HIT:          0  MISS:          0
cpu0_ITLB TOTAL     ACCESS:    1060502  HIT:    1060321  MISS:        181
cpu0_ITLB LOAD      ACCESS:    1060502  HIT:    1060321  MISS:        181
cpu0_ITLB RFO       ACCESS:          0  HIT:          0  MISS:          0
cpu0_ITLB PREFETCH  ACCESS:          0  HIT:          0  MISS:          0
cpu0_ITLB WRITEBACK ACCESS:          0  HIT:          0  MISS:          0
cpu0_L1I TOTAL     ACCESS:     962118  HIT:     829530  MISS:     132588
cpu0_L1I LOAD      ACCESS:     962118  HIT:     829530  MISS:     132588
cpu0_L1I RFO       ACCESS:          0  HIT:          0  MISS:          0
cpu0_L1I PREFETCH  ACCESS:          0  HIT:          0  MISS:          0
cpu0_L1I WRITEBACK ACCESS:          0  HIT:          0  MISS:          0
cpu0_STLB TOTAL     ACCESS:      21480  HIT:      21201  MISS:        279
cpu0_STLB LOAD      ACCESS:      15089  HIT:      14912  MISS:        177
cpu0_STLB RFO       ACCESS:       6391  HIT:       6289  MISS:        102
cpu0_STLB PREFETCH  ACCESS:          0  HIT:          0  MISS:          0
cpu0_STLB WRITEBACK ACCESS:          0  HIT:          0  MISS:          0
cpu0_L1D TOTAL     ACCESS:    3442204  HIT:    3413221  MISS:      28983
cpu0_L1D LOAD      ACCESS:    2017150  HIT:    1997703  MISS:      19447
cpu0_L1D RFO       ACCESS:    1424794  HIT:    1415281  MISS:       9513
cpu0_L1D PREFETCH  ACCESS:          0  HIT:          0  MISS:          0
cpu0_L1D WRITEBACK ACCESS:          0  HIT:          0  MISS:          0
cpu0_L2C TOTAL     ACCESS:     173219  HIT:     159081  MISS:      14138
cpu0_L2C LOAD      ACCESS:     152033  HIT:     144183  MISS:       7850
cpu0_L2C RFO       ACCESS:       9457  HIT:       3202  MISS:       6255
cpu0_L2C PREFETCH  ACCESS:          0  HIT:          0  MISS:          0
cpu0_L2C WRITEBACK ACCESS:      11706  HIT:      11676  MISS:         30
LLC TOTAL     ACCESS:      20176  HIT:        115  MISS:      20061
LLC LOAD      ACCESS:       7850  HIT:         85  MISS:       7765
LLC RFO       ACCESS:       6255  HIT:         30  MISS:       6225
LLC PREFETCH  ACCESS:          0  HIT:          0  MISS:          0
LLC WRITEBACK ACCESS:       6068  HIT:          0  MISS:       6068
Heartbeat CPU 0 instructions: 74000000 cycles: 22674709 heartbeat IPC: 2.15882 cumulative IPC: 2.39294 (Simulation time: 0 hr 25 min 41 sec) 

Region of Interest Statistics
cpu0_DTLB TOTAL     ACCESS:    2947584  HIT:    2923716  MISS:      23868
cpu0_DTLB LOAD      ACCESS:    2142899  HIT:    2126138  MISS:      16761
cpu0_DTLB RFO       ACCESS:     804685  HIT:     797578  MISS:       7107
cpu0_DTLB PREFETCH  ACCESS:          0  HIT:          0  MISS:          0
cpu0_DTLB WRITEBACK ACCESS:          0  HIT:          0  MISS:          0
cpu0_ITLB TOTAL     ACCESS:    1178974  HIT:    1178755  MISS:        219
cpu0_ITLB LOAD      ACCESS:    1178974  HIT:    1178755  MISS:        219
cpu0_ITLB RFO       ACCESS:          0  HIT:          0  MISS:          0
cpu0_ITLB PREFETCH  ACCESS:          0  HIT:          0  MISS:          0
cpu0_ITLB WRITEBACK ACCESS:          0  HIT:          0  MISS:          0
cpu0_L1I TOTAL     ACCESS:    1072421  HIT:     923886  MISS:     148535
cpu0_L1I LOAD      ACCESS:    1072421  HIT:     923886  MISS:     148535
cpu0_L1I RFO       ACCESS:          0  HIT:          0  MISS:          0
cpu0_L1I PREFETCH  ACCESS:          0  HIT:          0  MISS:          0
cpu0_L1I WRITEBACK ACCESS:          0  HIT:          0  MISS:          0
cpu0_STLB TOTAL     ACCESS:      24087  HIT:      23758  MISS:        329
cpu0_STLB LOAD      ACCESS:      16980  HIT:      16756  MISS:        224
cpu0_STLB RFO       ACCESS:       7107  HIT:       7002  MISS:        105
cpu0_STLB PREFETCH  ACCESS:          0  HIT:          0  MISS:          0
cpu0_STLB WRITEBACK ACCESS:          0  HIT:          0  MISS:          0
cpu0_L1D TOTAL     ACCESS:    3773398  HIT:    3741687  MISS:      31711
cpu0_L1D LOAD      ACCESS:    2190464  HIT:    2168748  MISS:      21716
cpu0_L1D RFO       ACCESS:    1582626  HIT:    1572660  MISS:       9966
cpu0_L1D PREFETCH  ACCESS:          0  HIT:          0  MISS:          0
cpu0_L1D WRITEBACK ACCESS:          0  HIT:          0  MISS:          0
cpu0_L2C TOTAL     ACCESS:     192565  HIT:     176993  MISS:      15572
cpu0_L2C LOAD      ACCESS:     170249  HIT:     161166  MISS:       9083
cpu0_L2C RFO       ACCESS:       9909  HIT:       3456  MISS:       6453
cpu0_L2C PREFETCH  ACCESS:          0  HIT:          0  MISS:          0
cpu0_L2C WRITEBACK ACCESS:      12378  HIT:      12348  MISS:         30
LLC TOTAL     ACCESS:      22099  HIT:        116  MISS:      21983
LLC LOAD      ACCESS:       9083  HIT:         86  MISS:       8997
LLC RFO       ACCESS:       6453  HIT:         30  MISS:       6423
LLC PREFETCH  ACCESS:          0  HIT:          0  MISS:          0
LLC WRITEBACK ACCESS:       6557  HIT:          0  MISS:       6557
Heartbeat CPU 0 instructions: 76000004 cycles: 23543154 heartbeat IPC: 2.30297 cumulative IPC: 2.38577 (Simulation time: 0 hr 26 min 23 sec) 

Region of Interest Statistics
cpu0_DTLB TOTAL     ACCESS:    3186369  HIT:    3159545  MISS:      26824
cpu0_DTLB LOAD      ACCESS:    2319485  HIT:    2300651  MISS:      18834
cpu0_DTLB RFO       ACCESS:     866884  HIT:     858894  MISS:       7990
cpu0_DTLB PREFETCH  ACCESS:          0  HIT:          0  MISS:          0
cpu0_DTLB WRITEBACK ACCESS:          0  HIT:          0  MISS:          0
cpu0_ITLB TOTAL     ACCESS:    1291009  HIT:    1290768  MISS:        241
cpu0_ITLB LOAD      ACCESS:    1291009  HIT:    1290768  MISS:        241
cpu0_ITLB RFO       ACCESS:          0  HIT:          0  MISS:          0
cpu0_ITLB PREFETCH  ACCESS:          0  HIT:          0  MISS:          0
cpu0_ITLB WRITEBACK ACCESS:          0  HIT:          0  MISS:          0
cpu0_L1I TOTAL     ACCESS:    1179684  HIT:    1015110  MISS:     164574
cpu0_L1I LOAD      ACCESS:    1179684  HIT:    1015110  MISS:     164574
cpu0_L1I RFO       ACCESS:          0  HIT:          0  MISS:          0
cpu0_L1I PREFETCH  ACCESS:          0  HIT:          0  MISS:          0
cpu0_L1I WRITEBACK ACCESS:          0  HIT:          0  MISS:          0
cpu0_STLB TOTAL     ACCESS:      27065  HIT:      26718  MISS:        347
cpu0_STLB LOAD      ACCESS:      19075  HIT:      18833  MISS:        242
cpu0_STLB RFO       ACCESS:       7990  HIT:       7885  MISS:        105
cpu0_STLB PREFETCH  ACCESS:          0  HIT:          0  MISS:          0
cpu0_STLB WRITEBACK ACCESS:          0  HIT:          0  MISS:          0
cpu0_L1D TOTAL     ACCESS:    4083507  HIT:    4049139  MISS:      34368
cpu0_L1D LOAD      ACCESS:    2354574  HIT:    2330809  MISS:      23765
cpu0_L1D RFO       ACCESS:    1728607  HIT:    1718034  MISS:      10573
cpu0_L1D PREFETCH  ACCESS:          0  HIT:          0  MISS:          0
cpu0_L1D WRITEBACK ACCESS:          0  HIT:          0  MISS:          0
cpu0_L2C TOTAL     ACCESS:     211852  HIT:     194900  MISS:      16952
cpu0_L2C LOAD      ACCESS:     188337  HIT:     178169  MISS:      10168
cpu0_L2C RFO       ACCESS:      10514  HIT:       3769  MISS:       6745
cpu0_L2C PREFETCH  ACCESS:          0  HIT:          0  MISS:          0
cpu0_L2C WRITEBACK ACCESS:      12971  HIT:      12938  MISS:         33
LLC TOTAL     ACCESS:      24032  HIT:        119  MISS:      23913
LLC LOAD      ACCESS:      10168  HIT:         89  MISS:      10079
LLC RFO       ACCESS:       6745  HIT:         30  MISS:       6715
LLC PREFETCH  ACCESS:          0  HIT:          0  MISS:          0
LLC WRITEBACK ACCESS:       7113  HIT:          0  MISS:       7113
Heartbeat CPU 0 instructions: 78000003 cycles: 24390432 heartbeat IPC: 2.3605 cumulative IPC: 2.38395 (Simulation time: 0 hr 26 min 58 sec) 

Region of Interest Statistics
cpu0_DTLB TOTAL     ACCESS:    3430493  HIT:    3402396  MISS:      28097
cpu0_DTLB LOAD      ACCESS:    2497049  HIT:    2477337  MISS:      19712
cpu0_DTLB RFO       ACCESS:     933444  HIT:     925059  MISS:       8385
cpu0_DTLB PREFETCH  ACCESS:          0  HIT:          0  MISS:          0
cpu0_DTLB WRITEBACK ACCESS:          0  HIT:          0  MISS:          0
cpu0_ITLB TOTAL     ACCESS:    1390962  HIT:    1390720  MISS:        242
cpu0_ITLB LOAD      ACCESS:    1390962  HIT:    1390720  MISS:        242
cpu0_ITLB RFO       ACCESS:          0  HIT:          0  MISS:          0
cpu0_ITLB PREFETCH  ACCESS:          0  HIT:          0  MISS:          0
cpu0_ITLB WRITEBACK ACCESS:          0  HIT:          0  MISS:          0
cpu0_L1I TOTAL     ACCESS:    1255452  HIT:    1081628  MISS:     173824
cpu0_L1I LOAD      ACCESS:    1255452  HIT:    1081628  MISS:     173824
cpu0_L1I RFO       ACCESS:          0  HIT:          0  MISS:          0
cpu0_L1I PREFETCH  ACCESS:          0  HIT:          0  MISS:          0
cpu0_L1I WRITEBACK ACCESS:          0  HIT:          0  MISS:          0
cpu0_STLB TOTAL     ACCESS:      28339  HIT:      27985  MISS:        354
cpu0_STLB LOAD      ACCESS:      19954  HIT:      19712  MISS:        242
cpu0_STLB RFO       ACCESS:       8385  HIT:       8273  MISS:        112
cpu0_STLB PREFETCH  ACCESS:          0  HIT:          0  MISS:          0
cpu0_STLB WRITEBACK ACCESS:          0  HIT:          0  MISS:          0
cpu0_L1D TOTAL     ACCESS:    4398143  HIT:    4361707  MISS:      36436
cpu0_L1D LOAD      ACCESS:    2547087  HIT:    2521959  MISS:      25128
cpu0_L1D RFO       ACCESS:    1850723  HIT:    1839447  MISS:      11276
cpu0_L1D PREFETCH  ACCESS:          0  HIT:          0  MISS:          0
cpu0_L1D WRITEBACK ACCESS:          0  HIT:          0  MISS:          0
cpu0_L2C TOTAL     ACCESS:     224088  HIT:     206093  MISS:      17995
cpu0_L2C LOAD      ACCESS:     198950  HIT:     188279  MISS:      10671
cpu0_L2C RFO       ACCESS:      11216  HIT:       3938  MISS:       7278
cpu0_L2C PREFETCH  ACCESS:          0  HIT:          0  MISS:          0
cpu0_L2C WRITEBACK ACCESS:      13890  HIT:      13850  MISS:         40
LLC TOTAL     ACCESS:      25468  HIT:        137  MISS:      25331
LLC LOAD      ACCESS:      10671  HIT:        106  MISS:      10565
LLC RFO       ACCESS:       7278  HIT:         31  MISS:       7247
LLC PREFETCH  ACCESS:          0  HIT:          0  MISS:          0
LLC WRITEBACK ACCESS:       7513  HIT:          0  MISS:       7513
Heartbeat CPU 0 instructions: 80000002 cycles: 25175847 heartbeat IPC: 2.54642 cumulative IPC: 2.39413 (Simulation time: 0 hr 27 min 31 sec) 

Region of Interest Statistics
cpu0_DTLB TOTAL     ACCESS:    3677191  HIT:    3647318  MISS:      29873
cpu0_DTLB LOAD      ACCESS:    2672684  HIT:    2651646  MISS:      21038
cpu0_DTLB RFO       ACCESS:    1004507  HIT:     995672  MISS:       8835
cpu0_DTLB PREFETCH  ACCESS:          0  HIT:          0  MISS:          0
cpu0_DTLB WRITEBACK ACCESS:          0  HIT:          0  MISS:          0
cpu0_ITLB TOTAL     ACCESS:    1472280  HIT:    1472010  MISS:        270
cpu0_ITLB LOAD      ACCESS:    1472280  HIT:    1472010  MISS:        270
cpu0_ITLB RFO       ACCESS:          0  HIT:          0  MISS:          0
cpu0_ITLB PREFETCH  ACCESS:          0  HIT:          0  MISS:          0
cpu0_ITLB WRITEBACK ACCESS:          0  HIT:          0  MISS:          0
cpu0_L1I TOTAL     ACCESS:    1338818  HIT:    1153199  MISS:     185619
cpu0_L1I LOAD      ACCESS:    1338818  HIT:    1153199  MISS:     185619
cpu0_L1I RFO       ACCESS:          0  HIT:          0  MISS:          0
cpu0_L1I PREFETCH  ACCESS:          0  HIT:          0  MISS:          0
cpu0_L1I WRITEBACK ACCESS:          0  HIT:          0  MISS:          0
cpu0_STLB TOTAL     ACCESS:      30143  HIT:      29761  MISS:        382
cpu0_STLB LOAD      ACCESS:      21308  HIT:      21056  MISS:        252
cpu0_STLB RFO       ACCESS:       8835  HIT:       8705  MISS:        130
cpu0_STLB PREFETCH  ACCESS:          0  HIT:          0  MISS:          0
cpu0_STLB WRITEBACK ACCESS:          0  HIT:          0  MISS:          0
cpu0_L1D TOTAL     ACCESS:    4709603  HIT:    4670355  MISS:      39248
cpu0_L1D LOAD      ACCESS:    2733853  HIT:    2707047  MISS:      26806
cpu0_L1D RFO       ACCESS:    1975396  HIT:    1962990  MISS:      12406
cpu0_L1D PREFETCH  ACCESS:          0  HIT:          0  MISS:          0
cpu0_L1D WRITEBACK ACCESS:          0  HIT:          0  MISS:          0
cpu0_L2C TOTAL     ACCESS:     240174  HIT:     220662  MISS:      19512
cpu0_L2C LOAD      ACCESS:     212423  HIT:     201035  MISS:      11388
cpu0_L2C RFO       ACCESS:      12341  HIT:       4267  MISS:       8074
cpu0_L2C PREFETCH  ACCESS:          0  HIT:          0  MISS:          0
cpu0_L2C WRITEBACK ACCESS:      15374  HIT:      15332  MISS:         42
LLC TOTAL     ACCESS:      27449  HIT:        145  MISS:      27304
LLC LOAD      ACCESS:      11388  HIT:        107  MISS:      11281
LLC RFO       ACCESS:       8074  HIT:         38  MISS:       8036
LLC PREFETCH  ACCESS:          0  HIT:          0  MISS:          0
LLC WRITEBACK ACCESS:       7979  HIT:          0  MISS:       7979
Heartbeat CPU 0 instructions: 82000000 cycles: 26073088 heartbeat IPC: 2.22905 cumulative IPC: 2.3831 (Simulation time: 0 hr 28 min 7 sec) 

Region of Interest Statistics
cpu0_DTLB TOTAL     ACCESS:    3922666  HIT:    3889864  MISS:      32802
cpu0_DTLB LOAD      ACCESS:    2853985  HIT:    2830780  MISS:      23205
cpu0_DTLB RFO       ACCESS:    1068681  HIT:    1059084  MISS:       9597
cpu0_DTLB PREFETCH  ACCESS:          0  HIT:          0  MISS:          0
cpu0_DTLB WRITEBACK ACCESS:          0  HIT:          0  MISS:          0
cpu0_ITLB TOTAL     ACCESS:    1588385  HIT:    1588059  MISS:        326
cpu0_ITLB LOAD      ACCESS:    1588385  HIT:    1588059  MISS:        326
cpu0_ITLB RFO       ACCESS:          0  HIT:          0  MISS:          0
cpu0_ITLB PREFETCH  ACCESS:          0  HIT:          0  MISS:          0
cpu0_ITLB WRITEBACK ACCESS:          0  HIT:          0  MISS:          0
cpu0_L1I TOTAL     ACCESS:    1445322  HIT:    1244531  MISS:     200791
cpu0_L1I LOAD      ACCESS:    1445322  HIT:    1244531  MISS:     200791
cpu0_L1I RFO       ACCESS:          0  HIT:          0  MISS:          0
cpu0_L1I PREFETCH  ACCESS:          0  HIT:          0  MISS:          0
cpu0_L1I WRITEBACK ACCESS:          0  HIT:          0  MISS:          0
cpu0_STLB TOTAL     ACCESS:      33128  HIT:      32741  MISS:        387
cpu0_STLB LOAD      ACCESS:      23531  HIT:      23275  MISS:        256
cpu0_STLB RFO       ACCESS:       9597  HIT:       9466  MISS:        131
cpu0_STLB PREFETCH  ACCESS:          0  HIT:          0  MISS:          0
cpu0_STLB WRITEBACK ACCESS:          0  HIT:          0  MISS:          0
cpu0_L1D TOTAL     ACCESS:    5028507  HIT:    4986170  MISS:      42337
cpu0_L1D LOAD      ACCESS:    2903818  HIT:    2874412  MISS:      29406
cpu0_L1D RFO       ACCESS:    2124330  HIT:    2111437  MISS:      12893
cpu0_L1D PREFETCH  ACCESS:          0  HIT:          0  MISS:          0
cpu0_L1D WRITEBACK ACCESS:          0  HIT:          0  MISS:          0
cpu0_L2C TOTAL     ACCESS:     258989  HIT:     237932  MISS:      21057
cpu0_L2C LOAD      ACCESS:     230195  HIT:     217489  MISS:      12706
cpu0_L2C RFO       ACCESS:      12825  HIT:       4525  MISS:       8300
cpu0_L2C PREFETCH  ACCESS:          0  HIT:          0  MISS:          0
cpu0_L2C WRITEBACK ACCESS:      15931  HIT:      15889  MISS:         42
LLC TOTAL     ACCESS:      29615  HIT:        151  MISS:      29464
LLC LOAD      ACCESS:      12706  HIT:        113  MISS:      12593
LLC RFO       ACCESS:       8300  HIT:         38  MISS:       8262
LLC PREFETCH  ACCESS:          0  HIT:          0  MISS:          0
LLC WRITEBACK ACCESS:       8600  HIT:          0  MISS:       8600
Heartbeat CPU 0 instructions: 84000001 cycles: 26936300 heartbeat IPC: 2.31693 cumulative IPC: 2.3791 (Simulation time: 0 hr 28 min 42 sec) 

Region of Interest Statistics
cpu0_DTLB TOTAL     ACCESS:    4157649  HIT:    4121792  MISS:      35857
cpu0_DTLB LOAD      ACCESS:    3025708  HIT:    3000287  MISS:      25421
cpu0_DTLB RFO       ACCESS:    1131941  HIT:    1121505  MISS:      10436
cpu0_DTLB PREFETCH  ACCESS:          0  HIT:          0  MISS:          0
cpu0_DTLB WRITEBACK ACCESS:          0  HIT:          0  MISS:          0
cpu0_ITLB TOTAL     ACCESS:    1696800  HIT:    1696459  MISS:        341
cpu0_ITLB LOAD      ACCESS:    1696800  HIT:    1696459  MISS:        341
cpu0_ITLB RFO       ACCESS:          0  HIT:          0  MISS:          0
cpu0_ITLB PREFETCH  ACCESS:          0  HIT:          0  MISS:          0
cpu0_ITLB WRITEBACK ACCESS:          0  HIT:          0  MISS:          0
cpu0_L1I TOTAL     ACCESS:    1555642  HIT:    1337579  MISS:     218063
cpu0_L1I LOAD      ACCESS:    1555642  HIT:    1337579  MISS:     218063
cpu0_L1I RFO       ACCESS:          0  HIT:          0  MISS:          0
cpu0_L1I PREFETCH  ACCESS:          0  HIT:          0  MISS:          0
cpu0_L1I WRITEBACK ACCESS:          0  HIT:          0  MISS:          0
cpu0_STLB TOTAL     ACCESS:      36198  HIT:      35811  MISS:        387
cpu0_STLB LOAD      ACCESS:      25762  HIT:      25506  MISS:        256
cpu0_STLB RFO       ACCESS:      10436  HIT:      10305  MISS:        131
cpu0_STLB PREFETCH  ACCESS:          0  HIT:          0  MISS:          0
cpu0_STLB WRITEBACK ACCESS:          0  HIT:          0  MISS:          0
cpu0_L1D TOTAL     ACCESS:    5339805  HIT:    5295422  MISS:      44383
cpu0_L1D LOAD      ACCESS:    3064729  HIT:    3033756  MISS:      30973
cpu0_L1D RFO       ACCESS:    2274717  HIT:    2261345  MISS:      13372
cpu0_L1D PREFETCH  ACCESS:          0  HIT:          0  MISS:          0
cpu0_L1D WRITEBACK ACCESS:          0  HIT:          0  MISS:          0
cpu0_L2C TOTAL     ACCESS:     278746  HIT:     256542  MISS:      22204
cpu0_L2C LOAD      ACCESS:     249034  HIT:     235438  MISS:      13596
cpu0_L2C RFO       ACCESS:      13302  HIT:       4745  MISS:       8557
cpu0_L2C PREFETCH  ACCESS:          0  HIT:          0  MISS:          0
cpu0_L2C WRITEBACK ACCESS:      16372  HIT:      16330  MISS:         42
LLC TOTAL     ACCESS:      31334  HIT:        153  MISS:      31181
LLC LOAD      ACCESS:      13596  HIT:        115  MISS:      13481
LLC RFO       ACCESS:       8557  HIT:         38  MISS:       8519
LLC PREFETCH  ACCESS:          0  HIT:          0  MISS:          0
LLC WRITEBACK ACCESS:       9172  HIT:          0  MISS:       9172
Heartbeat CPU 0 instructions: 86000003 cycles: 27703027 heartbeat IPC: 2.60849 cumulative IPC: 2.39078 (Simulation time: 0 hr 29 min 17 sec) 

Region of Interest Statistics
cpu0_DTLB TOTAL     ACCESS:    4411287  HIT:    4374960  MISS:      36327
cpu0_DTLB LOAD      ACCESS:    3207182  HIT:    3181438  MISS:      25744
cpu0_DTLB RFO       ACCESS:    1204105  HIT:    1193522  MISS:      10583
cpu0_DTLB PREFETCH  ACCESS:          0  HIT:          0  MISS:          0
cpu0_DTLB WRITEBACK ACCESS:          0  HIT:          0  MISS:          0
cpu0_ITLB TOTAL     ACCESS:    1768556  HIT:    1768200  MISS:        356
cpu0_ITLB LOAD      ACCESS:    1768556  HIT:    1768200  MISS:        356
cpu0_ITLB RFO       ACCESS:          0  HIT:          0  MISS:          0
cpu0_ITLB PREFETCH  ACCESS:          0  HIT:          0  MISS:          0
cpu0_ITLB WRITEBACK ACCESS:          0  HIT:          0  MISS:          0
cpu0_L1I TOTAL     ACCESS:    1601953  HIT:    1380544  MISS:     221409
cpu0_L1I LOAD      ACCESS:    1601953  HIT:    1380544  MISS:     221409
cpu0_L1I RFO       ACCESS:          0  HIT:          0  MISS:          0
cpu0_L1I PREFETCH  ACCESS:          0  HIT:          0  MISS:          0
cpu0_L1I WRITEBACK ACCESS:          0  HIT:          0  MISS:          0
cpu0_STLB TOTAL     ACCESS:      36684  HIT:      36267  MISS:        417
cpu0_STLB LOAD      ACCESS:      26101  HIT:      25838  MISS:        263
cpu0_STLB RFO       ACCESS:      10583  HIT:      10429  MISS:        154
cpu0_STLB PREFETCH  ACCESS:          0  HIT:          0  MISS:          0
cpu0_STLB WRITEBACK ACCESS:          0  HIT:          0  MISS:          0
cpu0_L1D TOTAL     ACCESS:    5650119  HIT:    5602997  MISS:      47122
cpu0_L1D LOAD      ACCESS:    3282206  HIT:    3249796  MISS:      32410
cpu0_L1D RFO       ACCESS:    2367531  HIT:    2352860  MISS:      14671
cpu0_L1D PREFETCH  ACCESS:          0  HIT:          0  MISS:          0
cpu0_L1D WRITEBACK ACCESS:          0  HIT:          0  MISS:          0
cpu0_L2C TOTAL     ACCESS:     286575  HIT:     262826  MISS:      23749
cpu0_L2C LOAD      ACCESS:     253817  HIT:     239771  MISS:      14046
cpu0_L2C RFO       ACCESS:      14601  HIT:       4955  MISS:       9646
cpu0_L2C PREFETCH  ACCESS:          0  HIT:          0  MISS:          0
cpu0_L2C WRITEBACK ACCESS:      18116  HIT:      18070  MISS:         46
LLC TOTAL     ACCESS:      33528  HIT:        180  MISS:      33348
LLC LOAD      ACCESS:      14046  HIT:        138  MISS:      13908
LLC RFO       ACCESS:       9646  HIT:         42  MISS:       9604
LLC PREFETCH  ACCESS:          0  HIT:          0  MISS:          0
LLC WRITEBACK ACCESS:       9825  HIT:          0  MISS:       9825
Heartbeat CPU 0 instructions: 88000003 cycles: 28602080 heartbeat IPC: 2.22456 cumulative IPC: 2.38142 (Simulation time: 0 hr 29 min 49 sec) 

Region of Interest Statistics
cpu0_DTLB TOTAL     ACCESS:    4660784  HIT:    4621920  MISS:      38864
cpu0_DTLB LOAD      ACCESS:    3389847  HIT:    3362190  MISS:      27657
cpu0_DTLB RFO       ACCESS:    1270937  HIT:    1259730  MISS:      11207
cpu0_DTLB PREFETCH  ACCESS:          0  HIT:          0  MISS:          0
cpu0_DTLB WRITEBACK ACCESS:          0  HIT:          0  MISS:          0
cpu0_ITLB TOTAL     ACCESS:    1885895  HIT:    1885485  MISS:        410
cpu0_ITLB LOAD      ACCESS:    1885895  HIT:    1885485  MISS:        410
cpu0_ITLB RFO       ACCESS:          0  HIT:          0  MISS:          0
cpu0_ITLB PREFETCH  ACCESS:          0  HIT:          0  MISS:          0
cpu0_ITLB WRITEBACK ACCESS:          0  HIT:          0  MISS:          0
cpu0_L1I TOTAL     ACCESS:    1710233  HIT:    1472595  MISS:     237638
cpu0_L1I LOAD      ACCESS:    1710233  HIT:    1472595  MISS:     237638
cpu0_L1I RFO       ACCESS:          0  HIT:          0  MISS:          0
cpu0_L1I PREFETCH  ACCESS:          0  HIT:          0  MISS:          0
cpu0_L1I WRITEBACK ACCESS:          0  HIT:          0  MISS:          0
cpu0_STLB TOTAL     ACCESS:      39274  HIT:      38854  MISS:        420
cpu0_STLB LOAD      ACCESS:      28067  HIT:      27803  MISS:        264
cpu0_STLB RFO       ACCESS:      11207  HIT:      11051  MISS:        156
cpu0_STLB PREFETCH  ACCESS:          0  HIT:          0  MISS:          0
cpu0_STLB WRITEBACK ACCESS:          0  HIT:          0  MISS:          0
cpu0_L1D TOTAL     ACCESS:    5975545  HIT:    5925608  MISS:      49937
cpu0_L1D LOAD      ACCESS:    3453771  HIT:    3419091  MISS:      34680
cpu0_L1D RFO       ACCESS:    2521389  HIT:    2506176  MISS:      15213
cpu0_L1D PREFETCH  ACCESS:          0  HIT:          0  MISS:          0
cpu0_L1D WRITEBACK ACCESS:          0  HIT:          0  MISS:          0
cpu0_L2C TOTAL     ACCESS:     306335  HIT:     281450  MISS:      24885
cpu0_L2C LOAD      ACCESS:     272316  HIT:     257346  MISS:      14970
cpu0_L2C RFO       ACCESS:      15133  HIT:       5276  MISS:       9857
cpu0_L2C PREFETCH  ACCESS:          0  HIT:          0  MISS:          0
cpu0_L2C WRITEBACK ACCESS:      18842  HIT:      18796  MISS:         46
LLC TOTAL     ACCESS:      34951  HIT:        181  MISS:      34770
LLC LOAD      ACCESS:      14970  HIT:        139  MISS:      14831
LLC RFO       ACCESS:       9857  HIT:         42  MISS:       9815
LLC PREFETCH  ACCESS:          0  HIT:          0  MISS:          0
LLC WRITEBACK ACCESS:      10112  HIT:          0  MISS:      10112
Heartbeat CPU 0 instructions: 90000003 cycles: 29482826 heartbeat IPC: 2.2708 cumulative IPC: 2.37563 (Simulation time: 0 hr 30 min 25 sec) 

Region of Interest Statistics
cpu0_DTLB TOTAL     ACCESS:    4901875  HIT:    4860461  MISS:      41414
cpu0_DTLB LOAD      ACCESS:    3568845  HIT:    3539363  MISS:      29482
cpu0_DTLB RFO       ACCESS:    1333030  HIT:    1321098  MISS:      11932
cpu0_DTLB PREFETCH  ACCESS:          0  HIT:          0  MISS:          0
cpu0_DTLB WRITEBACK ACCESS:          0  HIT:          0  MISS:          0
cpu0_ITLB TOTAL     ACCESS:    1999466  HIT:    1999015  MISS:        451
cpu0_ITLB LOAD      ACCESS:    1999466  HIT:    1999015  MISS:        451
cpu0_ITLB RFO       ACCESS:          0  HIT:          0  MISS:          0
cpu0_ITLB PREFETCH  ACCESS:          0  HIT:          0  MISS:          0
cpu0_ITLB WRITEBACK ACCESS:          0  HIT:          0  MISS:          0
cpu0_L1I TOTAL     ACCESS:    1816397  HIT:    1562874  MISS:     253523
cpu0_L1I LOAD      ACCESS:    1816397  HIT:    1562874  MISS:     253523
cpu0_L1I RFO       ACCESS:          0  HIT:          0  MISS:          0
cpu0_L1I PREFETCH  ACCESS:          0  HIT:          0  MISS:          0
cpu0_L1I WRITEBACK ACCESS:          0  HIT:          0  MISS:          0
cpu0_STLB TOTAL     ACCESS:      41865  HIT:      41442  MISS:        423
cpu0_STLB LOAD      ACCESS:      29933  HIT:      29667  MISS:        266
cpu0_STLB RFO       ACCESS:      11932  HIT:      11775  MISS:        157
cpu0_STLB PREFETCH  ACCESS:          0  HIT:          0  MISS:          0
cpu0_STLB WRITEBACK ACCESS:          0  HIT:          0  MISS:          0
cpu0_L1D TOTAL     ACCESS:    6288246  HIT:    6234906  MISS:      53340
cpu0_L1D LOAD      ACCESS:    3620159  HIT:    3582775  MISS:      37384
cpu0_L1D RFO       ACCESS:    2667699  HIT:    2651789  MISS:      15910
cpu0_L1D PREFETCH  ACCESS:          0  HIT:          0  MISS:          0
cpu0_L1D WRITEBACK ACCESS:          0  HIT:          0  MISS:          0
cpu0_L2C TOTAL     ACCESS:     326362  HIT:     299947  MISS:      26415
cpu0_L2C LOAD      ACCESS:     290905  HIT:     274651  MISS:      16254
cpu0_L2C RFO       ACCESS:      15823  HIT:       5722  MISS:      10101
cpu0_L2C PREFETCH  ACCESS:          0  HIT:          0  MISS:          0
cpu0_L2C WRITEBACK ACCESS:      19588  HIT:      19541  MISS:         47
LLC TOTAL     ACCESS:      37066  HIT:        181  MISS:      36885
LLC LOAD      ACCESS:      16254  HIT:        139  MISS:      16115
LLC RFO       ACCESS:      10101  HIT:         42  MISS:      10059
LLC PREFETCH  ACCESS:          0  HIT:          0  MISS:          0
LLC WRITEBACK ACCESS:      10698  HIT:          0  MISS:      10698
Heartbeat CPU 0 instructions: 92000001 cycles: 30374814 heartbeat IPC: 2.24218 cumulative IPC: 2.36892 (Simulation time: 0 hr 30 min 58 sec) 

Region of Interest Statistics
cpu0_DTLB TOTAL     ACCESS:    5139880  HIT:    5096959  MISS:      42921
cpu0_DTLB LOAD      ACCESS:    3745249  HIT:    3714742  MISS:      30507
cpu0_DTLB RFO       ACCESS:    1394631  HIT:    1382217  MISS:      12414
cpu0_DTLB PREFETCH  ACCESS:          0  HIT:          0  MISS:          0
cpu0_DTLB WRITEBACK ACCESS:          0  HIT:          0  MISS:          0
cpu0_ITLB TOTAL     ACCESS:    2122058  HIT:    2121606  MISS:        452
cpu0_ITLB LOAD      ACCESS:    2122058  HIT:    2121606  MISS:        452
cpu0_ITLB RFO       ACCESS:          0  HIT:          0  MISS:          0
cpu0_ITLB PREFETCH  ACCESS:          0  HIT:          0  MISS:          0
cpu0_ITLB WRITEBACK ACCESS:          0  HIT:          0  MISS:          0
cpu0_L1I TOTAL     ACCESS:    1906716  HIT:    1639199  MISS:     267517
cpu0_L1I LOAD      ACCESS:    1906716  HIT:    1639199  MISS:     267517
cpu0_L1I RFO       ACCESS:          0  HIT:          0  MISS:          0
cpu0_L1I PREFETCH  ACCESS:          0  HIT:          0  MISS:          0
cpu0_L1I WRITEBACK ACCESS:          0  HIT:          0  MISS:          0
cpu0_STLB TOTAL     ACCESS:      43373  HIT:      42950  MISS:        423
cpu0_STLB LOAD      ACCESS:      30959  HIT:      30693  MISS:        266
cpu0_STLB RFO       ACCESS:      12414  HIT:      12257  MISS:        157
cpu0_STLB PREFETCH  ACCESS:          0  HIT:          0  MISS:          0
cpu0_STLB WRITEBACK ACCESS:          0  HIT:          0  MISS:          0
cpu0_L1D TOTAL     ACCESS:    6602683  HIT:    6547508  MISS:      55175
cpu0_L1D LOAD      ACCESS:    3795301  HIT:    3756467  MISS:      38834
cpu0_L1D RFO       ACCESS:    2806994  HIT:    2790699  MISS:      16295
cpu0_L1D PREFETCH  ACCESS:          0  HIT:          0  MISS:          0
cpu0_L1D WRITEBACK ACCESS:          0  HIT:          0  MISS:          0
cpu0_L2C TOTAL     ACCESS:     342683  HIT:     315487  MISS:      27196
cpu0_L2C LOAD      ACCESS:     306349  HIT:     289486  MISS:      16863
cpu0_L2C RFO       ACCESS:      16204  HIT:       5933  MISS:      10271
cpu0_L2C PREFETCH  ACCESS:          0  HIT:          0  MISS:          0
cpu0_L2C WRITEBACK ACCESS:      20084  HIT:      20035  MISS:         49
LLC TOTAL     ACCESS:      38214  HIT:        191  MISS:      38023
LLC LOAD      ACCESS:      16863  HIT:        147  MISS:      16716
LLC RFO       ACCESS:      10271  HIT:         44  MISS:      10227
LLC PREFETCH  ACCESS:          0  HIT:          0  MISS:          0
LLC WRITEBACK ACCESS:      11067  HIT:          0  MISS:      11067
Heartbeat CPU 0 instructions: 94000002 cycles: 31098264 heartbeat IPC: 2.76453 cumulative IPC: 2.38443 (Simulation time: 0 hr 31 min 29 sec) 

Region of Interest Statistics
cpu0_DTLB TOTAL     ACCESS:    5391959  HIT:    5348106  MISS:      43853
cpu0_DTLB LOAD      ACCESS:    3923667  HIT:    3892482  MISS:      31185
cpu0_DTLB RFO       ACCESS:    1468292  HIT:    1455624  MISS:      12668
cpu0_DTLB PREFETCH  ACCESS:          0  HIT:          0  MISS:          0
cpu0_DTLB WRITEBACK ACCESS:          0  HIT:          0  MISS:          0
cpu0_ITLB TOTAL     ACCESS:    2182328  HIT:    2181857  MISS:        471
cpu0_ITLB LOAD      ACCESS:    2182328  HIT:    2181857  MISS:        471
cpu0_ITLB RFO       ACCESS:          0  HIT:          0  MISS:          0
cpu0_ITLB PREFETCH  ACCESS:          0  HIT:          0  MISS:          0
cpu0_ITLB WRITEBACK ACCESS:          0  HIT:          0  MISS:          0
cpu0_L1I TOTAL     ACCESS:    1968230  HIT:    1694175  MISS:     274055
cpu0_L1I LOAD      ACCESS:    1968230  HIT:    1694175  MISS:     274055
cpu0_L1I RFO       ACCESS:          0  HIT:          0  MISS:          0
cpu0_L1I PREFETCH  ACCESS:          0  HIT:          0  MISS:          0
cpu0_L1I WRITEBACK ACCESS:          0  HIT:          0  MISS:          0
cpu0_STLB TOTAL     ACCESS:      44324  HIT:      43870  MISS:        454
cpu0_STLB LOAD      ACCESS:      31656  HIT:      31383  MISS:        273
cpu0_STLB RFO       ACCESS:      12668  HIT:      12487  MISS:        181
cpu0_STLB PREFETCH  ACCESS:          0  HIT:          0  MISS:          0
cpu0_STLB WRITEBACK ACCESS:          0  HIT:          0  MISS:          0
cpu0_L1D TOTAL     ACCESS:    6910156  HIT:    6852196  MISS:      57960
cpu0_L1D LOAD      ACCESS:    4001898  HIT:    3961654  MISS:      40244
cpu0_L1D RFO       ACCESS:    2907846  HIT:    2890179  MISS:      17667
cpu0_L1D PREFETCH  ACCESS:          0  HIT:          0  MISS:          0
cpu0_L1D WRITEBACK ACCESS:          0  HIT:          0  MISS:          0
cpu0_L2C TOTAL     ACCESS:     353857  HIT:     324952  MISS:      28905
cpu0_L2C LOAD      ACCESS:     314297  HIT:     296873  MISS:      17424
cpu0_L2C RFO       ACCESS:      17575  HIT:       6164  MISS:      11411
cpu0_L2C PREFETCH  ACCESS:          0  HIT:          0  MISS:          0
cpu0_L2C WRITEBACK ACCESS:      21936  HIT:      21880  MISS:         56
LLC TOTAL     ACCESS:      40527  HIT:        197  MISS:      40330
LLC LOAD      ACCESS:      17424  HIT:        152  MISS:      17272
LLC RFO       ACCESS:      11411  HIT:         45  MISS:      11366
LLC PREFETCH  ACCESS:          0  HIT:          0  MISS:          0
LLC WRITEBACK ACCESS:      11678  HIT:          0  MISS:      11678
Heartbeat CPU 0 instructions: 96000002 cycles: 31994521 heartbeat IPC: 2.2315 cumulative IPC: 2.37735 (Simulation time: 0 hr 31 min 57 sec) 

Region of Interest Statistics
cpu0_DTLB TOTAL     ACCESS:    5639150  HIT:    5592700  MISS:      46450
cpu0_DTLB LOAD      ACCESS:    4104227  HIT:    4071121  MISS:      33106
cpu0_DTLB RFO       ACCESS:    1534923  HIT:    1521579  MISS:      13344
cpu0_DTLB PREFETCH  ACCESS:          0  HIT:          0  MISS:          0
cpu0_DTLB WRITEBACK ACCESS:          0  HIT:          0  MISS:          0
cpu0_ITLB TOTAL     ACCESS:    2298281  HIT:    2297740  MISS:        541
cpu0_ITLB LOAD      ACCESS:    2298281  HIT:    2297740  MISS:        541
cpu0_ITLB RFO       ACCESS:          0  HIT:          0  MISS:          0
cpu0_ITLB PREFETCH  ACCESS:          0  HIT:          0  MISS:          0
cpu0_ITLB WRITEBACK ACCESS:          0  HIT:          0  MISS:          0
cpu0_L1I TOTAL     ACCESS:    2077447  HIT:    1787554  MISS:     289893
cpu0_L1I LOAD      ACCESS:    2077447  HIT:    1787554  MISS:     289893
cpu0_L1I RFO       ACCESS:          0  HIT:          0  MISS:          0
cpu0_L1I PREFETCH  ACCESS:          0  HIT:          0  MISS:          0
cpu0_L1I WRITEBACK ACCESS:          0  HIT:          0  MISS:          0
cpu0_STLB TOTAL     ACCESS:      46991  HIT:      46535  MISS:        456
cpu0_STLB LOAD      ACCESS:      33647  HIT:      33373  MISS:        274
cpu0_STLB RFO       ACCESS:      13344  HIT:      13162  MISS:        182
cpu0_STLB PREFETCH  ACCESS:          0  HIT:          0  MISS:          0
cpu0_STLB WRITEBACK ACCESS:          0  HIT:          0  MISS:          0
cpu0_L1D TOTAL     ACCESS:    7235977  HIT:    7175215  MISS:      60762
cpu0_L1D LOAD      ACCESS:    4172368  HIT:    4129739  MISS:      42629
cpu0_L1D RFO       ACCESS:    3063195  HIT:    3045113  MISS:      18082
cpu0_L1D PREFETCH  ACCESS:          0  HIT:          0  MISS:          0
cpu0_L1D WRITEBACK ACCESS:          0  HIT:          0  MISS:          0
cpu0_L2C TOTAL     ACCESS:     372948  HIT:     342801  MISS:      30147
cpu0_L2C LOAD      ACCESS:     332520  HIT:     314067  MISS:      18453
cpu0_L2C RFO       ACCESS:      17986  HIT:       6362  MISS:      11624
cpu0_L2C PREFETCH  ACCESS:          0  HIT:          0  MISS:          0
cpu0_L2C WRITEBACK ACCESS:      22391  HIT:      22335  MISS:         56
LLC TOTAL     ACCESS:      42218  HIT:        198  MISS:      42020
LLC LOAD      ACCESS:      18453  HIT:        153  MISS:      18300
LLC RFO       ACCESS:      11624  HIT:         45  MISS:      11579
LLC PREFETCH  ACCESS:          0  HIT:          0  MISS:          0
LLC WRITEBACK ACCESS:      12127  HIT:          0  MISS:      12127
Heartbeat CPU 0 instructions: 98000004 cycles: 32858885 heartbeat IPC: 2.31384 cumulative IPC: 2.37463 (Simulation time: 0 hr 32 min 34 sec) 

Region of Interest Statistics
cpu0_DTLB TOTAL     ACCESS:    5879101  HIT:    5829852  MISS:      49249
cpu0_DTLB LOAD      ACCESS:    4283879  HIT:    4248759  MISS:      35120
cpu0_DTLB RFO       ACCESS:    1595222  HIT:    1581093  MISS:      14129
cpu0_DTLB PREFETCH  ACCESS:          0  HIT:          0  MISS:          0
cpu0_DTLB WRITEBACK ACCESS:          0  HIT:          0  MISS:          0
cpu0_ITLB TOTAL     ACCESS:    2411493  HIT:    2410912  MISS:        581
cpu0_ITLB LOAD      ACCESS:    2411493  HIT:    2410912  MISS:        581
cpu0_ITLB RFO       ACCESS:          0  HIT:          0  MISS:          0
cpu0_ITLB PREFETCH  ACCESS:          0  HIT:          0  MISS:          0
cpu0_ITLB WRITEBACK ACCESS:          0  HIT:          0  MISS:          0
cpu0_L1I TOTAL     ACCESS:    2181584  HIT:    1874914  MISS:     306670
cpu0_L1I LOAD      ACCESS:    2181584  HIT:    1874914  MISS:     306670
cpu0_L1I RFO       ACCESS:          0  HIT:          0  MISS:          0
cpu0_L1I PREFETCH  ACCESS:          0  HIT:          0  MISS:          0
cpu0_L1I WRITEBACK ACCESS:          0  HIT:          0  MISS:          0
cpu0_STLB TOTAL     ACCESS:      49830  HIT:      49366  MISS:        464
cpu0_STLB LOAD      ACCESS:      35701  HIT:      35422  MISS:        279
cpu0_STLB RFO       ACCESS:      14129  HIT:      13944  MISS:        185
cpu0_STLB PREFETCH  ACCESS:          0  HIT:          0  MISS:          0
cpu0_STLB WRITEBACK ACCESS:          0  HIT:          0  MISS:          0
cpu0_L1D TOTAL     ACCESS:    7544906  HIT:    7481414  MISS:      63492
cpu0_L1D LOAD      ACCESS:    4338176  HIT:    4293434  MISS:      44742
cpu0_L1D RFO       ACCESS:    3206309  HIT:    3187614  MISS:      18695
cpu0_L1D PREFETCH  ACCESS:          0  HIT:          0  MISS:          0
cpu0_L1D WRITEBACK ACCESS:          0  HIT:          0  MISS:          0
cpu0_L2C TOTAL     ACCESS:     393076  HIT:     361773  MISS:      31303
cpu0_L2C LOAD      ACCESS:     351410  HIT:     332033  MISS:      19377
cpu0_L2C RFO       ACCESS:      18591  HIT:       6737  MISS:      11854
cpu0_L2C PREFETCH  ACCESS:          0  HIT:          0  MISS:          0
cpu0_L2C WRITEBACK ACCESS:      23020  HIT:      22962  MISS:         58
LLC TOTAL     ACCESS:      43899  HIT:        201  MISS:      43698
LLC LOAD      ACCESS:      19377  HIT:        156  MISS:      19221
LLC RFO       ACCESS:      11854  HIT:         45  MISS:      11809
LLC PREFETCH  ACCESS:          0  HIT:          0  MISS:          0
LLC WRITEBACK ACCESS:      12654  HIT:          0  MISS:      12654
Heartbeat CPU 0 instructions: 100000003 cycles: 33692728 heartbeat IPC: 2.39853 cumulative IPC: 2.37558 (Simulation time: 0 hr 33 min 8 sec) 

Region of Interest Statistics
cpu0_DTLB TOTAL     ACCESS:    6126572  HIT:    6076124  MISS:      50448
cpu0_DTLB LOAD      ACCESS:    4464790  HIT:    4428856  MISS:      35934
cpu0_DTLB RFO       ACCESS:    1661782  HIT:    1647268  MISS:      14514
cpu0_DTLB PREFETCH  ACCESS:          0  HIT:          0  MISS:          0
cpu0_DTLB WRITEBACK ACCESS:          0  HIT:          0  MISS:          0
cpu0_ITLB TOTAL     ACCESS:    2515849  HIT:    2515267  MISS:        582
cpu0_ITLB LOAD      ACCESS:    2515849  HIT:    2515267  MISS:        582
cpu0_ITLB RFO       ACCESS:          0  HIT:          0  MISS:          0
cpu0_ITLB PREFETCH  ACCESS:          0  HIT:          0  MISS:          0
cpu0_ITLB WRITEBACK ACCESS:          0  HIT:          0  MISS:          0
cpu0_L1I TOTAL     ACCESS:    2249087  HIT:    1933859  MISS:     315228
cpu0_L1I LOAD      ACCESS:    2249087  HIT:    1933859  MISS:     315228
cpu0_L1I RFO       ACCESS:          0  HIT:          0  MISS:          0
cpu0_L1I PREFETCH  ACCESS:          0  HIT:          0  MISS:          0
cpu0_L1I WRITEBACK ACCESS:          0  HIT:          0  MISS:          0
cpu0_STLB TOTAL     ACCESS:      51030  HIT:      50559  MISS:        471
cpu0_STLB LOAD      ACCESS:      36516  HIT:      36237  MISS:        279
cpu0_STLB RFO       ACCESS:      14514  HIT:      14322  MISS:        192
cpu0_STLB PREFETCH  ACCESS:          0  HIT:          0  MISS:          0
cpu0_STLB WRITEBACK ACCESS:          0  HIT:          0  MISS:          0
cpu0_L1D TOTAL     ACCESS:    7861498  HIT:    7795729  MISS:      65769
cpu0_L1D LOAD      ACCESS:    4535671  HIT:    4489406  MISS:      46265
cpu0_L1D RFO       ACCESS:    3325399  HIT:    3305951  MISS:      19448
cpu0_L1D PREFETCH  ACCESS:          0  HIT:          0  MISS:          0
cpu0_L1D WRITEBACK ACCESS:          0  HIT:          0  MISS:          0
cpu0_L2C TOTAL     ACCESS:     404929  HIT:     372564  MISS:      32365
cpu0_L2C LOAD      ACCESS:     361491  HIT:     341590  MISS:      19901
cpu0_L2C RFO       ACCESS:      19340  HIT:       6962  MISS:      12378
cpu0_L2C PREFETCH  ACCESS:          0  HIT:          0  MISS:          0
cpu0_L2C WRITEBACK ACCESS:      24042  HIT:      23970  MISS:         72
LLC TOTAL     ACCESS:      45280  HIT:        251  MISS:      45029
LLC LOAD      ACCESS:      19901  HIT:        204  MISS:      19697
LLC RFO       ACCESS:      12378  HIT:         47  MISS:      12331
LLC PREFETCH  ACCESS:          0  HIT:          0  MISS:          0
LLC WRITEBACK ACCESS:      12987  HIT:          0  MISS:      12987
Heartbeat CPU 0 instructions: 102000003 cycles: 34456856 heartbeat IPC: 2.61736 cumulative IPC: 2.38405 (Simulation time: 0 hr 33 min 41 sec) 

Region of Interest Statistics
cpu0_DTLB TOTAL     ACCESS:    6370302  HIT:    6318020  MISS:      52282
cpu0_DTLB LOAD      ACCESS:    4640335  HIT:    4603046  MISS:      37289
cpu0_DTLB RFO       ACCESS:    1729967  HIT:    1714974  MISS:      14993
cpu0_DTLB PREFETCH  ACCESS:          0  HIT:          0  MISS:          0
cpu0_DTLB WRITEBACK ACCESS:          0  HIT:          0  MISS:          0
cpu0_ITLB TOTAL     ACCESS:    2596548  HIT:    2595920  MISS:        628
cpu0_ITLB LOAD      ACCESS:    2596548  HIT:    2595920  MISS:        628
cpu0_ITLB RFO       ACCESS:          0  HIT:          0  MISS:          0
cpu0_ITLB PREFETCH  ACCESS:          0  HIT:          0  MISS:          0
cpu0_ITLB WRITEBACK ACCESS:          0  HIT:          0  MISS:          0
cpu0_L1I TOTAL     ACCESS:    2331088  HIT:    2004580  MISS:     326508
cpu0_L1I LOAD      ACCESS:    2331088  HIT:    2004580  MISS:     326508
cpu0_L1I RFO       ACCESS:          0  HIT:          0  MISS:          0
cpu0_L1I PREFETCH  ACCESS:          0  HIT:          0  MISS:          0
cpu0_L1I WRITEBACK ACCESS:          0  HIT:          0  MISS:          0
cpu0_STLB TOTAL     ACCESS:      52910  HIT:      52415  MISS:        495
cpu0_STLB LOAD      ACCESS:      37917  HIT:      37631  MISS:        286
cpu0_STLB RFO       ACCESS:      14993  HIT:      14784  MISS:        209
cpu0_STLB PREFETCH  ACCESS:          0  HIT:          0  MISS:          0
cpu0_STLB WRITEBACK ACCESS:          0  HIT:          0  MISS:          0
cpu0_L1D TOTAL     ACCESS:    8167791  HIT:    8098916  MISS:      68875
cpu0_L1D LOAD      ACCESS:    4721537  HIT:    4673290  MISS:      48247
cpu0_L1D RFO       ACCESS:    3445806  HIT:    3425236  MISS:      20570
cpu0_L1D PREFETCH  ACCESS:          0  HIT:          0  MISS:          0
cpu0_L1D WRITEBACK ACCESS:          0  HIT:          0  MISS:          0
cpu0_L2C TOTAL     ACCESS:     420837  HIT:     386981  MISS:      33856
cpu0_L2C LOAD      ACCESS:     374753  HIT:     354145  MISS:      20608
cpu0_L2C RFO       ACCESS:      20461  HIT:       7299  MISS:      13162
cpu0_L2C PREFETCH  ACCESS:          0  HIT:          0  MISS:          0
cpu0_L2C WRITEBACK ACCESS:      25565  HIT:      25493  MISS:         72
LLC TOTAL     ACCESS:      47263  HIT:        260  MISS:      47003
LLC LOAD      ACCESS:      20608  HIT:        206  MISS:      20402
LLC RFO       ACCESS:      13162  HIT:         54  MISS:      13108
LLC PREFETCH  ACCESS:          0  HIT:          0  MISS:          0
LLC WRITEBACK ACCESS:      13479  HIT:          0  MISS:      13479
Heartbeat CPU 0 instructions: 104000002 cycles: 35334570 heartbeat IPC: 2.27865 cumulative IPC: 2.37997 (Simulation time: 0 hr 34 min 17 sec) 

Region of Interest Statistics
cpu0_DTLB TOTAL     ACCESS:    6613931  HIT:    6558791  MISS:      55140
cpu0_DTLB LOAD      ACCESS:    4819449  HIT:    4780089  MISS:      39360
cpu0_DTLB RFO       ACCESS:    1794482  HIT:    1778702  MISS:      15780
cpu0_DTLB PREFETCH  ACCESS:          0  HIT:          0  MISS:          0
cpu0_DTLB WRITEBACK ACCESS:          0  HIT:          0  MISS:          0
cpu0_ITLB TOTAL     ACCESS:    2710969  HIT:    2710270  MISS:        699
cpu0_ITLB LOAD      ACCESS:    2710969  HIT:    2710270  MISS:        699
cpu0_ITLB RFO       ACCESS:          0  HIT:          0  MISS:          0
cpu0_ITLB PREFETCH  ACCESS:          0  HIT:          0  MISS:          0
cpu0_ITLB WRITEBACK ACCESS:          0  HIT:          0  MISS:          0
cpu0_L1I TOTAL     ACCESS:    2439762  HIT:    2097942  MISS:     341820
cpu0_L1I LOAD      ACCESS:    2439762  HIT:    2097942  MISS:     341820
cpu0_L1I RFO       ACCESS:          0  HIT:          0  MISS:          0
cpu0_L1I PREFETCH  ACCESS:          0  HIT:          0  MISS:          0
cpu0_L1I WRITEBACK ACCESS:          0  HIT:          0  MISS:          0
cpu0_STLB TOTAL     ACCESS:      55839  HIT:      55343  MISS:        496
cpu0_STLB LOAD      ACCESS:      40059  HIT:      39773  MISS:        286
cpu0_STLB RFO       ACCESS:      15780  HIT:      15570  MISS:        210
cpu0_STLB PREFETCH  ACCESS:          0  HIT:          0  MISS:          0
cpu0_STLB WRITEBACK ACCESS:          0  HIT:          0  MISS:          0
cpu0_L1D TOTAL     ACCESS:    8487396  HIT:    8415899  MISS:      71497
cpu0_L1D LOAD      ACCESS:    4888906  HIT:    4838542  MISS:      50364
cpu0_L1D RFO       ACCESS:    3598041  HIT:    3576967  MISS:      21074
cpu0_L1D PREFETCH  ACCESS:          0  HIT:          0  MISS:          0
cpu0_L1D WRITEBACK ACCESS:          0  HIT:          0  MISS:          0
cpu0_L2C TOTAL     ACCESS:     439274  HIT:     404191  MISS:      35083
cpu0_L2C LOAD      ACCESS:     392182  HIT:     370611  MISS:      21571
cpu0_L2C RFO       ACCESS:      20964  HIT:       7540  MISS:      13424
cpu0_L2C PREFETCH  ACCESS:          0  HIT:          0  MISS:          0
cpu0_L2C WRITEBACK ACCESS:      26069  HIT:      25995  MISS:         74
LLC TOTAL     ACCESS:      49055  HIT:        264  MISS:      48791
LLC LOAD      ACCESS:      21571  HIT:        210  MISS:      21361
LLC RFO       ACCESS:      13424  HIT:         54  MISS:      13370
LLC PREFETCH  ACCESS:          0  HIT:          0  MISS:          0
LLC WRITEBACK ACCESS:      14046  HIT:          0  MISS:      14046
Heartbeat CPU 0 instructions: 106000003 cycles: 36187823 heartbeat IPC: 2.34397 cumulative IPC: 2.37867 (Simulation time: 0 hr 34 min 52 sec) 

Region of Interest Statistics
cpu0_DTLB TOTAL     ACCESS:    6851075  HIT:    6793057  MISS:      58018
cpu0_DTLB LOAD      ACCESS:    4995519  HIT:    4953996  MISS:      41523
cpu0_DTLB RFO       ACCESS:    1855556  HIT:    1839061  MISS:      16495
cpu0_DTLB PREFETCH  ACCESS:          0  HIT:          0  MISS:          0
cpu0_DTLB WRITEBACK ACCESS:          0  HIT:          0  MISS:          0
cpu0_ITLB TOTAL     ACCESS:    2821460  HIT:    2820754  MISS:        706
cpu0_ITLB LOAD      ACCESS:    2821460  HIT:    2820754  MISS:        706
cpu0_ITLB RFO       ACCESS:          0  HIT:          0  MISS:          0
cpu0_ITLB PREFETCH  ACCESS:          0  HIT:          0  MISS:          0
cpu0_ITLB WRITEBACK ACCESS:          0  HIT:          0  MISS:          0
cpu0_L1I TOTAL     ACCESS:    2544547  HIT:    2184426  MISS:     360121
cpu0_L1I LOAD      ACCESS:    2544547  HIT:    2184426  MISS:     360121
cpu0_L1I RFO       ACCESS:          0  HIT:          0  MISS:          0
cpu0_L1I PREFETCH  ACCESS:          0  HIT:          0  MISS:          0
cpu0_L1I WRITEBACK ACCESS:          0  HIT:          0  MISS:          0
cpu0_STLB TOTAL     ACCESS:      58724  HIT:      58227  MISS:        497
cpu0_STLB LOAD      ACCESS:      42229  HIT:      41942  MISS:        287
cpu0_STLB RFO       ACCESS:      16495  HIT:      16285  MISS:        210
cpu0_STLB PREFETCH  ACCESS:          0  HIT:          0  MISS:          0
cpu0_STLB WRITEBACK ACCESS:          0  HIT:          0  MISS:          0
cpu0_L1D TOTAL     ACCESS:    8795587  HIT:    8721772  MISS:      73815
cpu0_L1D LOAD      ACCESS:    5052525  HIT:    5000461  MISS:      52064
cpu0_L1D RFO       ACCESS:    3742612  HIT:    3720921  MISS:      21691
cpu0_L1D PREFETCH  ACCESS:          0  HIT:          0  MISS:          0
cpu0_L1D WRITEBACK ACCESS:          0  HIT:          0  MISS:          0
cpu0_L2C TOTAL     ACCESS:     460531  HIT:     424489  MISS:      36042
cpu0_L2C LOAD      ACCESS:     412183  HIT:     389876  MISS:      22307
cpu0_L2C RFO       ACCESS:      21575  HIT:       7930  MISS:      13645
cpu0_L2C PREFETCH  ACCESS:          0  HIT:          0  MISS:          0
cpu0_L2C WRITEBACK ACCESS:      26713  HIT:      26638  MISS:         75
[...]
cpu0_DTLB LOAD      ACCESS:  140067081  HIT:  138914039  MISS:    1153042
cpu0_DTLB RFO       ACCESS:   52572137  HIT:   52116462  MISS:     455675
cpu0_DTLB PREFETCH  ACCESS:          0  HIT:          0  MISS:          0
cpu0_DTLB WRITEBACK ACCESS:          0  HIT:          0  MISS:          0
cpu0_ITLB TOTAL     ACCESS:   82217172  HIT:   82211780  MISS:       5392
cpu0_ITLB LOAD      ACCESS:   82217172  HIT:   82211780  MISS:       5392
cpu0_ITLB RFO       ACCESS:          0  HIT:          0  MISS:          0
cpu0_ITLB PREFETCH  ACCESS:          0  HIT:          0  MISS:          0
cpu0_ITLB WRITEBACK ACCESS:          0  HIT:          0  MISS:          0
cpu0_L1I TOTAL     ACCESS:   56630588  HIT:   52378383  MISS:    4252205
cpu0_L1I LOAD      ACCESS:   56630588  HIT:   52378383  MISS:    4252205
cpu0_L1I RFO       ACCESS:          0  HIT:          0  MISS:          0
cpu0_L1I PREFETCH  ACCESS:          0  HIT:          0  MISS:          0
cpu0_L1I WRITEBACK ACCESS:          0  HIT:          0  MISS:          0
cpu0_STLB TOTAL     ACCESS:    1614109  HIT:    1589956  MISS:      24153
cpu0_STLB LOAD      ACCESS:    1158434  HIT:    1142892  MISS:      15542
cpu0_STLB RFO       ACCESS:     455675  HIT:     447064  MISS:       8611
cpu0_STLB PREFETCH  ACCESS:          0  HIT:          0  MISS:          0
cpu0_STLB WRITEBACK ACCESS:          0  HIT:          0  MISS:          0
cpu0_L1D TOTAL     ACCESS:  224618439  HIT:  221669580  MISS:    2948859
cpu0_L1D LOAD      ACCESS:  125310696  HIT:  123175877  MISS:    2134819
cpu0_L1D RFO       ACCESS:   99284877  HIT:   98473361  MISS:     811516
cpu0_L1D PREFETCH  ACCESS:          0  HIT:          0  MISS:          0
cpu0_L1D WRITEBACK ACCESS:          0  HIT:          0  MISS:          0
cpu0_L2C TOTAL     ACCESS:    8187108  HIT:    6362615  MISS:    1824493
cpu0_L2C LOAD      ACCESS:    6386968  HIT:    5118467  MISS:    1268501
cpu0_L2C RFO       ACCESS:     806938  HIT:     253636  MISS:     553302
cpu0_L2C PREFETCH  ACCESS:          0  HIT:          0  MISS:          0
cpu0_L2C WRITEBACK ACCESS:     990678  HIT:     988333  MISS:       2345
LLC TOTAL     ACCESS:    2481030  HIT:       6117  MISS:    2474913
LLC LOAD      ACCESS:    1268492  HIT:       4737  MISS:    1263755
LLC RFO       ACCESS:     553295  HIT:       1370  MISS:     551925
LLC PREFETCH  ACCESS:          0  HIT:          0  MISS:          0
LLC WRITEBACK ACCESS:     658898  HIT:         10  MISS:     658888
Heartbeat CPU 0 instructions: 1550000002 cycles: 691155070 heartbeat IPC: 2.40692 cumulative IPC: 2.21073 (Simulation time: 8 hr 45 min 22 sec) 

Region of Interest Statistics
cpu0_DTLB TOTAL     ACCESS:  192893526  HIT:  191280169  MISS:    1613357
cpu0_DTLB LOAD      ACCESS:  140248356  HIT:  139091941  MISS:    1156415
cpu0_DTLB RFO       ACCESS:   52645170  HIT:   52188228  MISS:     456942
cpu0_DTLB PREFETCH  ACCESS:          0  HIT:          0  MISS:          0
cpu0_DTLB WRITEBACK ACCESS:          0  HIT:          0  MISS:          0
cpu0_ITLB TOTAL     ACCESS:   82330658  HIT:   82325266  MISS:       5392
cpu0_ITLB LOAD      ACCESS:   82330658  HIT:   82325266  MISS:       5392
cpu0_ITLB RFO       ACCESS:          0  HIT:          0  MISS:          0
cpu0_ITLB PREFETCH  ACCESS:          0  HIT:          0  MISS:          0
cpu0_ITLB WRITEBACK ACCESS:          0  HIT:          0  MISS:          0
cpu0_L1I TOTAL     ACCESS:   56730359  HIT:   52468143  MISS:    4262216
cpu0_L1I LOAD      ACCESS:   56730359  HIT:   52468143  MISS:    4262216
cpu0_L1I RFO       ACCESS:          0  HIT:          0  MISS:          0
cpu0_L1I PREFETCH  ACCESS:          0  HIT:          0  MISS:          0
cpu0_L1I WRITEBACK ACCESS:          0  HIT:          0  MISS:          0
cpu0_STLB TOTAL     ACCESS:    1618749  HIT:    1594565  MISS:      24184
cpu0_STLB LOAD      ACCESS:    1161807  HIT:    1146243  MISS:      15564
cpu0_STLB RFO       ACCESS:     456942  HIT:     448322  MISS:       8620
cpu0_STLB PREFETCH  ACCESS:          0  HIT:          0  MISS:          0
cpu0_STLB WRITEBACK ACCESS:          0  HIT:          0  MISS:          0
cpu0_L1D TOTAL     ACCESS:  224942665  HIT:  221989080  MISS:    2953585
cpu0_L1D LOAD      ACCESS:  125473160  HIT:  123334805  MISS:    2138355
cpu0_L1D RFO       ACCESS:   99446613  HIT:   98633912  MISS:     812701
cpu0_L1D PREFETCH  ACCESS:          0  HIT:          0  MISS:          0
cpu0_L1D WRITEBACK ACCESS:          0  HIT:          0  MISS:          0
cpu0_L2C TOTAL     ACCESS:    8202985  HIT:    6376539  MISS:    1826446
cpu0_L2C LOAD      ACCESS:    6400515  HIT:    5130570  MISS:    1269945
cpu0_L2C RFO       ACCESS:     808106  HIT:     254303  MISS:     553803
cpu0_L2C PREFETCH  ACCESS:          0  HIT:          0  MISS:          0
cpu0_L2C WRITEBACK ACCESS:     991835  HIT:     989482  MISS:       2353
LLC TOTAL     ACCESS:    2483558  HIT:       6119  MISS:    2477439
LLC LOAD      ACCESS:    1269936  HIT:       4739  MISS:    1265197
LLC RFO       ACCESS:     553796  HIT:       1370  MISS:     552426
LLC PREFETCH  ACCESS:          0  HIT:          0  MISS:          0
LLC WRITEBACK ACCESS:     659481  HIT:         10  MISS:     659471
Finished CPU 0 instructions: 1500000001 cycles: 678509862 cumulative IPC: 2.21073 (Simulation time: 8 hr 45 min 22 sec) 

ChampSim completed all CPUs

Region of Interest Statistics

CPU 0 cumulative IPC: 2.21073 instructions: 1500000001 cycles: 678509862
cpu0_DTLB TOTAL     ACCESS:  192893526  HIT:  191280169  MISS:    1613357
cpu0_DTLB LOAD      ACCESS:  140248356  HIT:  139091941  MISS:    1156415
cpu0_DTLB RFO       ACCESS:   52645170  HIT:   52188228  MISS:     456942
cpu0_DTLB PREFETCH  ACCESS:          0  HIT:          0  MISS:          0
cpu0_DTLB WRITEBACK ACCESS:          0  HIT:          0  MISS:          0
cpu0_DTLB TRANSLATION ACCESS:          0  HIT:          0  MISS:          0
cpu0_DTLB PREFETCH  REQUESTED:          0  ISSUED:          0  USEFUL:          0  USELESS:          0
cpu0_DTLB AVERAGE MISS LATENCY: 11.3794 cycles
cpu0_ITLB TOTAL     ACCESS:   82330658  HIT:   82325266  MISS:       5392
cpu0_ITLB LOAD      ACCESS:   82330658  HIT:   82325266  MISS:       5392
cpu0_ITLB RFO       ACCESS:          0  HIT:          0  MISS:          0
cpu0_ITLB PREFETCH  ACCESS:          0  HIT:          0  MISS:          0
cpu0_ITLB WRITEBACK ACCESS:          0  HIT:          0  MISS:          0
cpu0_ITLB TRANSLATION ACCESS:          0  HIT:          0  MISS:          0
cpu0_ITLB PREFETCH  REQUESTED:          0  ISSUED:          0  USEFUL:          0  USELESS:          0
cpu0_ITLB AVERAGE MISS LATENCY: 15.0082 cycles
cpu0_L1I TOTAL     ACCESS:   56730359  HIT:   52468143  MISS:    4262216
cpu0_L1I LOAD      ACCESS:   56730359  HIT:   52468143  MISS:    4262216
cpu0_L1I RFO       ACCESS:          0  HIT:          0  MISS:          0
cpu0_L1I PREFETCH  ACCESS:          0  HIT:          0  MISS:          0
cpu0_L1I WRITEBACK ACCESS:          0  HIT:          0  MISS:          0
cpu0_L1I TRANSLATION ACCESS:          0  HIT:          0  MISS:          0
cpu0_L1I PREFETCH  REQUESTED:          0  ISSUED:          0  USEFUL:          0  USELESS:          0
cpu0_L1I AVERAGE MISS LATENCY: 12.4844 cycles
cpu0_STLB TOTAL     ACCESS:    1618749  HIT:    1594565  MISS:      24184
cpu0_STLB LOAD      ACCESS:    1161807  HIT:    1146243  MISS:      15564
cpu0_STLB RFO       ACCESS:     456942  HIT:     448322  MISS:       8620
cpu0_STLB PREFETCH  ACCESS:          0  HIT:          0  MISS:          0
cpu0_STLB WRITEBACK ACCESS:          0  HIT:          0  MISS:          0
cpu0_STLB TRANSLATION ACCESS:          0  HIT:          0  MISS:          0
cpu0_STLB PREFETCH  REQUESTED:          0  ISSUED:          0  USEFUL:          0  USELESS:          0
cpu0_STLB AVERAGE MISS LATENCY: 157.106 cycles
cpu0_L1D TOTAL     ACCESS:  224942665  HIT:  221989080  MISS:    2953585
cpu0_L1D LOAD      ACCESS:  125473160  HIT:  123334805  MISS:    2138355
cpu0_L1D RFO       ACCESS:   99446613  HIT:   98633912  MISS:     812701
cpu0_L1D PREFETCH  ACCESS:          0  HIT:          0  MISS:          0
cpu0_L1D WRITEBACK ACCESS:          0  HIT:          0  MISS:          0
cpu0_L1D TRANSLATION ACCESS:      22892  HIT:      20363  MISS:       2529
cpu0_L1D PREFETCH  REQUESTED:          0  ISSUED:          0  USEFUL:          0  USELESS:          0
cpu0_L1D AVERAGE MISS LATENCY: 227 cycles
cpu0_L2C TOTAL     ACCESS:    8202985  HIT:    6376539  MISS:    1826446
cpu0_L2C LOAD      ACCESS:    6400515  HIT:    5130570  MISS:    1269945
cpu0_L2C RFO       ACCESS:     808106  HIT:     254303  MISS:     553803
cpu0_L2C PREFETCH  ACCESS:          0  HIT:          0  MISS:          0
cpu0_L2C WRITEBACK ACCESS:     991835  HIT:     989482  MISS:       2353
cpu0_L2C TRANSLATION ACCESS:       2529  HIT:       2184  MISS:        345
cpu0_L2C PREFETCH  REQUESTED:          0  ISSUED:          0  USEFUL:          0  USELESS:          0
cpu0_L2C AVERAGE MISS LATENCY: 352.616 cycles
LLC TOTAL     ACCESS:    2483558  HIT:       6119  MISS:    2477439
LLC LOAD      ACCESS:    1269936  HIT:       4739  MISS:    1265197
LLC RFO       ACCESS:     553796  HIT:       1370  MISS:     552426
LLC PREFETCH  ACCESS:          0  HIT:          0  MISS:          0
LLC WRITEBACK ACCESS:     659481  HIT:         10  MISS:     659471
LLC TRANSLATION ACCESS:        345  HIT:          0  MISS:        345
LLC PREFETCH  REQUESTED:          0  ISSUED:          0  USEFUL:          0  USELESS:          0
LLC AVERAGE MISS LATENCY: 244.498 cycles
~~~~~~~~~~Reuse Distance Profiler output~~~~~~~~~~
0	0	0
1	0	0
2	0	0
3	0	0
4	0	0
5	0	0
6	0	0
7	0	0
8	0	0
9	0	0
10	0	0
11	0	0
12	0	0
13	0	0
14	0	0
15	0	0
16	0	0
17	0	0
18	0	0
19	0	0
20	0	0
21	0	0
22	0	0
23	0	0
24	0	0
25	0	0
26	0	0
27	0	0
28	0	0
29	0	0
30	0	0
31	0	0
32	0	0
33	0	0
34	0	0
35	0	0
36	0	0
37	0	0
38	0	0
39	0	0
40	0	0
41	0	0
42	0	0
43	0	0
44	0	0
45	0	0
46	0	0
47	0	0
48	0	0
49	0	0
50	0	0
51	0	0
52	0	0
53	0	0
54	0	0
55	0	0
56	0	0
57	0	0
58	0	0
59	0	0
60	0	0
61	0	0
62	0	0
63	0	0
64	0	0
66	0	0
68	0	0
70	0	0
72	0	0
74	0	0
76	0	0
78	0	0
80	0	0
82	0	0
84	0	0
86	0	0
88	0	0
90	0	0
92	0	0
94	0	0
96	0	0
98	0	0
100	0	0
102	0	0
104	0	0
106	0	0
108	0	0
110	0	0
112	0	0
114	0	0
116	0	0
118	0	0
120	0	0
122	0	0
124	0	0
126	0	0
128	0	0
132	0	0
136	0	0
140	0	0
144	0	0
148	0	0
152	0	0
156	0	0
160	0	0
164	0	0
168	0	0
172	0	0
176	0	0
180	0	0
184	0	0
188	0	0
192	0	0
196	0	0
200	0	0
204	0	0
208	0	0
212	0	0
216	0	0
220	0	0
224	0	0
228	0	0
232	0	0
236	0	0
240	0	0
244	0	0
248	0	0
252	0	0
256	0	0
264	0	0
272	0	0
280	0	0
288	0	0
296	0	0
304	0	0
312	0	0
320	0	0
328	0	0
336	0	0
344	0	0
352	0	0
360	0	0
368	0	0
376	0	0
384	0	0
392	0	0
400	0	0
408	0	0
416	0	0
424	0	0
432	0	0
440	0	0
448	0	0
456	0	0
464	0	0
472	0	0
480	0	0
488	0	0
496	0	0
504	0	0
512	0	0
528	0	0
544	0	0
560	0	0
576	0	0
592	0	0
608	0	0
624	0	0
640	0	0
656	0	0
672	0	0
688	0	0
704	0	0
720	0	0
736	0	0
752	0	0
768	0	0
784	0	0
800	0	0
816	0	0
832	0	0
848	0	0
864	0	0
880	0	0
896	0	0
912	0	0
928	0	0
944	0	0
960	0	0
976	0	0
992	0	0
1008	0	0
1024	0	0
1056	0	0
1088	0	0
1120	0	0
1152	0	0
1184	0	0
1216	0	0
1248	0	0
1280	0	0
1312	0	0
1344	0	0
1376	0	0
1408	0	0
1440	0	0
1472	0	0
1504	0	0
1536	0	0
1568	0	0
1600	0	0
1632	0	0
1664	0	0
1696	0	0
1728	0	0
1760	0	0
1792	0	0
1824	0	0
1856	0	0
1888	0	0
1920	0	0
1952	0	0
1984	0	0
2016	0	0
2048	0	0
2112	0	0
2176	0	0
2240	0	0
2304	0	0
2368	0	0
2432	0	0
2496	0	0
2560	0	0
2624	0	0
2688	0	0
2752	0	0
2816	0	0
2880	0	0
2944	0	0
3008	0	0
3072	0	0
3136	0	0
3200	0	0
3264	0	0
3328	0	0
3392	0	0
3456	0	0
3520	0	0
3584	0	0
3648	0	0
3712	0	0
3776	0	0
3840	0	0
3904	0	0
3968	0	0
4032	0	0
4096	0	0
4224	0	0
4352	0	0
4480	0	0
4608	0	0
4736	0	0
4864	0	0
4992	0	0
5120	0	0
5248	0	0
5376	0	0
5504	0	0
5632	0	0
5760	0	0
5888	0	0
6016	0	0
6144	0	0
6272	0	0
6400	0	0
6528	0	0
6656	0	0
6784	0	0
6912	0	0
7040	0	0
7168	0	0
7296	0	0
7424	0	0
7552	0	0
7680	0	0
7808	0	0
7936	0	0
8064	0	0
8192	0	0
8448	0	0
8704	0	0
8960	0	0
9216	0	0
9472	0	0
9728	0	0
9984	0	0
10240	0	0
10496	0	0
10752	0	0
11008	0	0
11264	0	0
11520	0	0
11776	0	0
12032	0	0
12288	0	0
12544	0	0
12800	0	0
13056	0	0
13312	0	0
13568	0	0
13824	0	0
14080	0	0
14336	0	0
14592	0	0
14848	0	0
15104	0	0
15360	0	0
15616	0	0
15872	0	0
16128	0	0
16384	0	0
16896	0	0
17408	0	0
17920	0	0
18432	0	0
18944	0	0
19456	0	0
19968	0	0
20480	0	0
20992	0	0
21504	0	0
22016	0	0
22528	0	0
23040	0	0
23552	0	0
24064	0	0
24576	0	0
25088	0	0
25600	0	0
26112	0	0
26624	0	0
27136	0	0
27648	0	0
28160	0	0
28672	0	0
29184	0	0
29696	0	0
30208	0	0
30720	0	0
31232	0	0
31744	0	0
32256	0	0
32768	0	0
33792	0	0
34816	0	0
35840	0	0
36864	0	0
37888	0	0
38912	0	0
39936	0	0
40960	0	0
41984	0	0
43008	0	0
44032	0	0
45056	0	0
46080	0	0
47104	0	0
48128	0	0
49152	0	0
50176	0	0
51200	0	0
52224	0	0
53248	0	0
54272	0	0
55296	0	0
56320	0	0
57344	0	0
58368	0	0
59392	0	0
60416	0	0
61440	0	0
62464	0	0
63488	0	0
64512	0	0
65536	0	0
67584	0	0
69632	0	0
71680	0	0
73728	0	0
75776	0	0
77824	0	0
79872	0	0
81920	0	0
83968	0	0
86016	0	0
88064	0	0
90112	0	0
92160	0	0
94208	0	0
96256	0	0
98304	0	0
100352	0	0
102400	0	0
104448	0	0
106496	0	0
108544	0	0
110592	0	0
112640	0	0
114688	0	0
116736	0	0
118784	0	0
120832	0	0
122880	0	0
124928	0	0
126976	0	0
129024	0	0
131072	0	0
135168	0	0
139264	0	0
143360	0	0
147456	0	0
151552	0	0
155648	0	0
159744	0	0
163840	0	0
167936	0	0
172032	0	0
176128	0	0
180224	0	0
184320	0	0
188416	0	0
192512	0	0
196608	0	0
200704	0	0
204800	0	0
208896	0	0
212992	0	0
217088	0	0
221184	0	0
225280	0	0
229376	0	0
233472	0	0
237568	0	0
241664	0	0
245760	0	0
249856	0	0
253952	0	0
258048	0	0
262144	0	0
270336	0	0
278528	0	0
286720	0	0
294912	0	0
303104	0	0
311296	0	0
319488	0	0
327680	0	0
335872	0	0
344064	0	0
352256	0	0
360448	0	0
368640	0	0
376832	0	0
385024	0	0
393216	0	0
401408	0	0
409600	0	0
417792	0	0
425984	0	0
434176	0	0
442368	0	0
450560	0	0
458752	0	0
466944	0	0
475136	0	0
483328	0	0
491520	0	0
499712	0	0
507904	0	0
516096	0	0
524288	0	0
540672	0	0
557056	0	0
573440	0	0
589824	0	0
606208	0	0
622592	0	0
638976	0	0
655360	0	0
671744	0	0
688128	0	0
704512	0	0
720896	0	0
737280	0	0
753664	0	0
770048	0	0
786432	0	0
802816	0	0
819200	0	0
835584	0	0
851968	0	0
868352	0	0
884736	0	0
901120	0	0
917504	0	0
933888	0	0
950272	0	0
966656	0	0
983040	0	0
999424	0	0
1015808	0	0
1032192	0	0
1048576	0	0
1081344	0	0
1114112	0	0
1146880	0	0
1179648	0	0
1212416	0	0
1245184	0	0
1277952	0	0
1310720	0	0
1343488	0	0
1376256	0	0
1409024	0	0
1441792	0	0
1474560	0	0
1507328	0	0
1540096	0	0
1572864	0	0
1605632	0	0
1638400	0	0
1671168	0	0
1703936	0	0
1736704	0	0
1769472	0	0
1802240	0	0
1835008	0	0
1867776	0	0
1900544	0	0
1933312	0	0
1966080	0	0
1998848	0	0
2031616	0	0
2064384	0	0
2097152	0	0
2162688	0	0
2228224	0	0
2293760	0	0
2359296	0	0
2424832	0	0
2490368	0	0
2555904	0	0
2621440	0	0
2686976	0	0
2752512	0	0
2818048	0	0
2883584	0	0
2949120	0	0
3014656	0	0
3080192	0	0
3145728	0	0
3211264	0	0
3276800	0	0
3342336	0	0
3407872	0	0
3473408	0	0
3538944	0	0
3604480	0	0
3670016	0	0
3735552	0	0
3801088	0	0
3866624	0	0
3932160	0	0
3997696	0	0
4063232	0	0
4128768	0	0
4194304	0	0
4325376	0	0
4456448	0	0
4587520	0	0
4718592	0	0
4849664	0	0
4980736	0	0
5111808	0	0
5242880	0	0
5373952	0	0
5505024	0	0
5636096	0	0
5767168	0	0
5898240	0	0
6029312	0	0
6160384	0	0
6291456	0	0
6422528	0	0
6553600	0	0
6684672	0	0
6815744	0	0
6946816	0	0
7077888	0	0
7208960	0	0
7340032	0	0
7471104	0	0
7602176	0	0
7733248	0	0
7864320	0	0
7995392	0	0
8126464	0	0
8257536	0	0
8388608	0	0
8650752	0	0
8912896	0	0
9175040	0	0
9437184	0	0
9699328	0	0
9961472	0	0
10223616	0	0
10485760	0	0
10747904	0	0
11010048	0	0
11272192	0	0
11534336	0	0
11796480	0	0
12058624	0	0
12320768	0	0
12582912	0	0
12845056	0	0
13107200	0	0
13369344	0	0
13631488	0	0
13893632	0	0
14155776	0	0
14417920	0	0
14680064	0	0
14942208	0	0
15204352	0	0
15466496	0	0
15728640	0	0
15990784	0	0
16252928	0	0
16515072	0	0
16777216	0	0
17301504	0	0
17825792	0	0
18350080	0	0
18874368	0	0
19398656	0	0
19922944	0	0
20447232	0	0
20971520	0	0
21495808	0	0
22020096	0	0
22544384	0	0
23068672	0	0
23592960	0	0
24117248	0	0
24641536	0	0
25165824	0	0
25690112	0	0
26214400	0	0
26738688	0	0
27262976	0	0
27787264	0	0
28311552	0	0
28835840	0	0
29360128	0	0
29884416	0	0
30408704	0	0
30932992	0	0
31457280	0	0
31981568	0	0
32505856	0	0
33030144	0	0
33554432	0	0
34603008	0	0
35651584	0	0
36700160	0	0
37748736	0	0
38797312	0	0
39845888	0	0
40894464	0	0
41943040	0	0
42991616	0	0
44040192	0	0
45088768	0	0
46137344	0	0
47185920	0	0
48234496	0	0
49283072	0	0
50331648	0	0
51380224	0	0
52428800	0	0
53477376	0	0
54525952	0	0
55574528	0	0
56623104	0	0
57671680	0	0
58720256	0	0
59768832	0	0
60817408	0	0
61865984	0	0
62914560	0	0
63963136	0	0
65011712	0	0
66060288	0	0
67108864	0	0
69206016	0	0
71303168	0	0
73400320	0	0
75497472	0	0
77594624	0	0
79691776	0	0
81788928	0	0
83886080	0	0
85983232	0	0
88080384	0	0
90177536	0	0
92274688	0	0
94371840	0	0
96468992	0	0
98566144	0	0
100663296	0	0
102760448	0	0
104857600	0	0
106954752	0	0
109051904	0	0
111149056	0	0
113246208	0	0
115343360	0	0
117440512	0	0
119537664	0	0
121634816	0	0
123731968	0	0
125829120	0	0
127926272	0	0
130023424	0	0
132120576	0	0
134217728	0	0
138412032	0	0
142606336	0	0
146800640	0	0
150994944	0	0
155189248	0	0
159383552	0	0
163577856	0	0
167772160	0	0
171966464	0	0
176160768	0	0
180355072	0	0
184549376	0	0
188743680	0	0
192937984	0	0
197132288	0	0
201326592	0	0
205520896	0	0
209715200	0	0
213909504	0	0
218103808	0	0
222298112	0	0
226492416	0	0
230686720	0	0
234881024	0	0
239075328	0	0
243269632	0	0
247463936	0	0
251658240	0	0
255852544	0	0
260046848	0	0
264241152	0	0
268435456	0	0
276824064	0	0
285212672	0	0
293601280	0	0
301989888	0	0
310378496	0	0
318767104	0	0
327155712	0	0
335544320	0	0
343932928	0	0
352321536	0	0
360710144	0	0
369098752	0	0
377487360	0	0
385875968	0	0
394264576	0	0
402653184	0	0
411041792	0	0
419430400	0	0
427819008	0	0
436207616	0	0
444596224	0	0
452984832	0	0
461373440	0	0
469762048	0	0
478150656	0	0
486539264	0	0
494927872	0	0
503316480	0	0
511705088	0	0
520093696	0	0
528482304	0	0
536870912	0	0
553648128	0	0
570425344	0	0
587202560	0	0
603979776	0	0
620756992	0	0
637534208	0	0
654311424	0	0
671088640	0	0
687865856	0	0
704643072	0	0
721420288	0	0
738197504	0	0
754974720	0	0
771751936	0	0
788529152	0	0
805306368	0	0
822083584	0	0
838860800	0	0
855638016	0	0
872415232	0	0
889192448	0	0
905969664	0	0
922746880	0	0
939524096	0	0
956301312	0	0
973078528	0	0
989855744	0	0
1006632960	0	0
1023410176	0	0
1040187392	0	0
1056964608	0	0
1073741824	0	0
1107296256	0	0
1140850688	0	0
1174405120	0	0
1207959552	0	0
1241513984	0	0
1275068416	0	0
1308622848	0	0
1342177280	0	0
1375731712	0	0
1409286144	0	0
1442840576	0	0
1476395008	0	0
1509949440	0	0
1543503872	0	0
1577058304	0	0
1610612736	0	0
1644167168	0	0
1677721600	0	0
1711276032	0	0
1744830464	0	0
1778384896	0	0
1811939328	0	0
1845493760	0	0
1879048192	0	0
1912602624	0	0
1946157056	0	0
1979711488	0	0
2013265920	0	0
2046820352	0	0
2080374784	0	0
2113929216	0	0
2147483648	0	0
2214592512	0	0
2281701376	0	0
2348810240	0	0
2415919104	0	0
2483027968	0	0
2550136832	0	0
2617245696	0	0
2684354560	0	0
2751463424	0	0
2818572288	0	0
2885681152	0	0
2952790016	0	0
3019898880	0	0
3087007744	0	0
3154116608	0	0
3221225472	0	0
3288334336	0	0
3355443200	0	0
3422552064	0	0
3489660928	0	0
3556769792	0	0
3623878656	0	0
3690987520	0	0
3758096384	0	0
3825205248	0	0
3892314112	0	0
3959422976	0	0
4026531840	0	0
4093640704	0	0
4160749568	0	0
4227858432	0	0
~~~~~~~~~~Reuse Distance Profiler output end~~~~~~~~~~


DRAM Statistics
 CHANNEL 0
 RQ ROW_BUFFER_HIT:     124656  ROW_BUFFER_MISS:    1693194
 DBUS AVG_CONGESTED_CYCLE:    3.93894
 WQ ROW_BUFFER_HIT:     122959  ROW_BUFFER_MISS:     536575  FULL:          0


CPU 0 Branch Prediction Accuracy: 86.2373% MPKI: 5.69618 Average ROB Occupancy at Mispredict: 89.178
Branch type MPKI
BRANCH_DIRECT_JUMP: 0.000114
BRANCH_INDIRECT: 0.00154467
BRANCH_CONDITIONAL: 5.59207
BRANCH_DIRECT_CALL: 0.000199333
BRANCH_INDIRECT_CALL: 0.0317653
BRANCH_RETURN: 0.070492

