
*** ChampSim Multicore Out-of-Order Simulator ***

Warmup Instructions: 50000000
Simulation Instructions: 1500000000
Number of CPUs: 1
Off-chip DRAM Size: 4 GiB Channels: 1 Width: 64-bit Data Rate: 3200 MT/s

VirtualMemory physical capacity: 8588881920 num_ppages: 2096895
VirtualMemory page size: 4096 log2_page_size: 12

CPU 0 runs traces/625.x264_s-39B.champsimtrace.xz
CPU 0 Bimodal branch predictor
Basic BTB sets: 1024 ways: 8 indirect buffer size: 4096 RAS size: 64
Initializing LRU.
Initializing LRU.
Initializing LRU.
Initializing LRU.
Initializing rdLRU.
Initializing LRU.
Initializing LRU.
Heartbeat CPU 0 instructions: 2000000 cycles: 506810 heartbeat IPC: 3.94625 cumulative IPC: 3.94625 (Simulation time: 0 hr 0 min 51 sec) 
Heartbeat CPU 0 instructions: 4000003 cycles: 1016845 heartbeat IPC: 3.92131 cumulative IPC: 3.93374 (Simulation time: 0 hr 1 min 50 sec) 
Heartbeat CPU 0 instructions: 6000000 cycles: 1521086 heartbeat IPC: 3.96635 cumulative IPC: 3.94455 (Simulation time: 0 hr 2 min 46 sec) 
Heartbeat CPU 0 instructions: 8000001 cycles: 2023994 heartbeat IPC: 3.97687 cumulative IPC: 3.95258 (Simulation time: 0 hr 3 min 40 sec) 
Heartbeat CPU 0 instructions: 10000000 cycles: 2536010 heartbeat IPC: 3.90613 cumulative IPC: 3.9432 (Simulation time: 0 hr 4 min 39 sec) 
Heartbeat CPU 0 instructions: 12000000 cycles: 3041044 heartbeat IPC: 3.96013 cumulative IPC: 3.94601 (Simulation time: 0 hr 5 min 35 sec) 
Heartbeat CPU 0 instructions: 14000003 cycles: 3541949 heartbeat IPC: 3.99278 cumulative IPC: 3.95263 (Simulation time: 0 hr 6 min 27 sec) 
Heartbeat CPU 0 instructions: 16000003 cycles: 4052827 heartbeat IPC: 3.91483 cumulative IPC: 3.94786 (Simulation time: 0 hr 7 min 24 sec) 
Heartbeat CPU 0 instructions: 18000003 cycles: 4559443 heartbeat IPC: 3.94776 cumulative IPC: 3.94785 (Simulation time: 0 hr 8 min 19 sec) 
Heartbeat CPU 0 instructions: 20000003 cycles: 5060272 heartbeat IPC: 3.99338 cumulative IPC: 3.95236 (Simulation time: 0 hr 9 min 10 sec) 
Heartbeat CPU 0 instructions: 22000002 cycles: 5570284 heartbeat IPC: 3.92147 cumulative IPC: 3.94953 (Simulation time: 0 hr 9 min 57 sec) 
Heartbeat CPU 0 instructions: 24000003 cycles: 6077578 heartbeat IPC: 3.94249 cumulative IPC: 3.94894 (Simulation time: 0 hr 10 min 51 sec) 
Heartbeat CPU 0 instructions: 26000002 cycles: 6579210 heartbeat IPC: 3.98698 cumulative IPC: 3.95184 (Simulation time: 0 hr 11 min 40 sec) 
Heartbeat CPU 0 instructions: 28000003 cycles: 7085338 heartbeat IPC: 3.95157 cumulative IPC: 3.95182 (Simulation time: 0 hr 12 min 26 sec) 
Heartbeat CPU 0 instructions: 30000000 cycles: 7593375 heartbeat IPC: 3.93672 cumulative IPC: 3.95081 (Simulation time: 0 hr 13 min 21 sec) 
Heartbeat CPU 0 instructions: 32000001 cycles: 8095463 heartbeat IPC: 3.98337 cumulative IPC: 3.95283 (Simulation time: 0 hr 14 min 11 sec) 
Heartbeat CPU 0 instructions: 34000002 cycles: 8599060 heartbeat IPC: 3.97143 cumulative IPC: 3.95392 (Simulation time: 0 hr 15 min 0 sec) 
Heartbeat CPU 0 instructions: 36000003 cycles: 9108155 heartbeat IPC: 3.92854 cumulative IPC: 3.9525 (Simulation time: 0 hr 15 min 50 sec) 
Heartbeat CPU 0 instructions: 38000002 cycles: 9613087 heartbeat IPC: 3.96093 cumulative IPC: 3.95294 (Simulation time: 0 hr 16 min 45 sec) 
Heartbeat CPU 0 instructions: 40000003 cycles: 10115388 heartbeat IPC: 3.98168 cumulative IPC: 3.95437 (Simulation time: 0 hr 17 min 36 sec) 
Heartbeat CPU 0 instructions: 42000001 cycles: 10624486 heartbeat IPC: 3.92851 cumulative IPC: 3.95313 (Simulation time: 0 hr 18 min 23 sec) 
Heartbeat CPU 0 instructions: 44000002 cycles: 11128559 heartbeat IPC: 3.96768 cumulative IPC: 3.95379 (Simulation time: 0 hr 19 min 18 sec) 
Heartbeat CPU 0 instructions: 46000003 cycles: 11629936 heartbeat IPC: 3.98902 cumulative IPC: 3.95531 (Simulation time: 0 hr 20 min 7 sec) 
Heartbeat CPU 0 instructions: 48000000 cycles: 12140340 heartbeat IPC: 3.91846 cumulative IPC: 3.95376 (Simulation time: 0 hr 20 min 51 sec) 
Heartbeat CPU 0 instructions: 50000001 cycles: 12645211 heartbeat IPC: 3.96141 cumulative IPC: 3.95407 (Simulation time: 0 hr 21 min 43 sec) 

Warmup complete CPU 0 instructions: 50000001 cycles: 12645211 (Simulation time: 0 hr 21 min 43 sec) 

Heartbeat CPU 0 instructions: 52000000 cycles: 13393104 heartbeat IPC: 2.67418 cumulative IPC: 2.67418 (Simulation time: 0 hr 22 min 34 sec) 

Region of Interest Statistics
cpu0_DTLB TOTAL     ACCESS:     252890  HIT:     252200  MISS:        690
cpu0_DTLB LOAD      ACCESS:     179779  HIT:     179329  MISS:        450
cpu0_DTLB RFO       ACCESS:      73111  HIT:      72871  MISS:        240
cpu0_DTLB PREFETCH  ACCESS:          0  HIT:          0  MISS:          0
cpu0_DTLB WRITEBACK ACCESS:          0  HIT:          0  MISS:          0
cpu0_ITLB TOTAL     ACCESS:      65249  HIT:      65234  MISS:         15
cpu0_ITLB LOAD      ACCESS:      65249  HIT:      65234  MISS:         15
cpu0_ITLB RFO       ACCESS:          0  HIT:          0  MISS:          0
cpu0_ITLB PREFETCH  ACCESS:          0  HIT:          0  MISS:          0
cpu0_ITLB WRITEBACK ACCESS:          0  HIT:          0  MISS:          0
cpu0_L1I TOTAL     ACCESS:      56602  HIT:      51937  MISS:       4665
cpu0_L1I LOAD      ACCESS:      56602  HIT:      51937  MISS:       4665
cpu0_L1I RFO       ACCESS:          0  HIT:          0  MISS:          0
cpu0_L1I PREFETCH  ACCESS:          0  HIT:          0  MISS:          0
cpu0_L1I WRITEBACK ACCESS:          0  HIT:          0  MISS:          0
cpu0_STLB TOTAL     ACCESS:        705  HIT:        670  MISS:         35
cpu0_STLB LOAD      ACCESS:        465  HIT:        456  MISS:          9
cpu0_STLB RFO       ACCESS:        240  HIT:        214  MISS:         26
cpu0_STLB PREFETCH  ACCESS:          0  HIT:          0  MISS:          0
cpu0_STLB WRITEBACK ACCESS:          0  HIT:          0  MISS:          0
cpu0_L1D TOTAL     ACCESS:     312080  HIT:     309127  MISS:       2953
cpu0_L1D LOAD      ACCESS:     213770  HIT:     212200  MISS:       1570
cpu0_L1D RFO       ACCESS:      98279  HIT:      96899  MISS:       1380
cpu0_L1D PREFETCH  ACCESS:          0  HIT:          0  MISS:          0
cpu0_L1D WRITEBACK ACCESS:          0  HIT:          0  MISS:          0
cpu0_L2C TOTAL     ACCESS:       9401  HIT:       7971  MISS:       1430
cpu0_L2C LOAD      ACCESS:       6235  HIT:       5930  MISS:        305
cpu0_L2C RFO       ACCESS:       1378  HIT:        259  MISS:       1119
cpu0_L2C PREFETCH  ACCESS:          0  HIT:          0  MISS:          0
cpu0_L2C WRITEBACK ACCESS:       1785  HIT:       1779  MISS:          6
LLC TOTAL     ACCESS:       1982  HIT:         40  MISS:       1942
LLC LOAD      ACCESS:        305  HIT:         18  MISS:        287
LLC RFO       ACCESS:       1119  HIT:         10  MISS:       1109
LLC PREFETCH  ACCESS:          0  HIT:          0  MISS:          0
LLC WRITEBACK ACCESS:        558  HIT:         12  MISS:        546
Heartbeat CPU 0 instructions: 54000000 cycles: 14280547 heartbeat IPC: 2.25367 cumulative IPC: 2.44598 (Simulation time: 0 hr 23 min 30 sec) 

Region of Interest Statistics
cpu0_DTLB TOTAL     ACCESS:     497983  HIT:     494547  MISS:       3436
cpu0_DTLB LOAD      ACCESS:     362663  HIT:     360203  MISS:       2460
cpu0_DTLB RFO       ACCESS:     135320  HIT:     134344  MISS:        976
cpu0_DTLB PREFETCH  ACCESS:          0  HIT:          0  MISS:          0
cpu0_DTLB WRITEBACK ACCESS:          0  HIT:          0  MISS:          0
cpu0_ITLB TOTAL     ACCESS:     182071  HIT:     182030  MISS:         41
cpu0_ITLB LOAD      ACCESS:     182071  HIT:     182030  MISS:         41
cpu0_ITLB RFO       ACCESS:          0  HIT:          0  MISS:          0
cpu0_ITLB PREFETCH  ACCESS:          0  HIT:          0  MISS:          0
cpu0_ITLB WRITEBACK ACCESS:          0  HIT:          0  MISS:          0
cpu0_L1I TOTAL     ACCESS:     159558  HIT:     137715  MISS:      21843
cpu0_L1I LOAD      ACCESS:     159558  HIT:     137715  MISS:      21843
cpu0_L1I RFO       ACCESS:          0  HIT:          0  MISS:          0
cpu0_L1I PREFETCH  ACCESS:          0  HIT:          0  MISS:          0
cpu0_L1I WRITEBACK ACCESS:          0  HIT:          0  MISS:          0
cpu0_STLB TOTAL     ACCESS:       3477  HIT:       3398  MISS:         79
cpu0_STLB LOAD      ACCESS:       2501  HIT:       2450  MISS:         51
cpu0_STLB RFO       ACCESS:        976  HIT:        948  MISS:         28
cpu0_STLB PREFETCH  ACCESS:          0  HIT:          0  MISS:          0
cpu0_STLB WRITEBACK ACCESS:          0  HIT:          0  MISS:          0
cpu0_L1D TOTAL     ACCESS:     626681  HIT:     620738  MISS:       5943
cpu0_L1D LOAD      ACCESS:     382545  HIT:     378630  MISS:       3915
cpu0_L1D RFO       ACCESS:     244061  HIT:     242040  MISS:       2021
cpu0_L1D PREFETCH  ACCESS:          0  HIT:          0  MISS:          0
cpu0_L1D WRITEBACK ACCESS:          0  HIT:          0  MISS:          0
cpu0_L2C TOTAL     ACCESS:      30407  HIT:      27749  MISS:       2658
cpu0_L2C LOAD      ACCESS:      25757  HIT:      24442  MISS:       1315
cpu0_L2C RFO       ACCESS:       2012  HIT:        676  MISS:       1336
cpu0_L2C PREFETCH  ACCESS:          0  HIT:          0  MISS:          0
cpu0_L2C WRITEBACK ACCESS:       2631  HIT:       2625  MISS:          6
LLC TOTAL     ACCESS:       3775  HIT:         69  MISS:       3706
LLC LOAD      ACCESS:       1315  HIT:         29  MISS:       1286
LLC RFO       ACCESS:       1336  HIT:         10  MISS:       1326
LLC PREFETCH  ACCESS:          0  HIT:          0  MISS:          0
LLC WRITEBACK ACCESS:       1123  HIT:         30  MISS:       1093
Heartbeat CPU 0 instructions: 56000004 cycles: 15130526 heartbeat IPC: 2.353 cumulative IPC: 2.41418 (Simulation time: 0 hr 24 min 21 sec) 

Region of Interest Statistics
cpu0_DTLB TOTAL     ACCESS:     734530  HIT:     728333  MISS:       6197
cpu0_DTLB LOAD      ACCESS:     537874  HIT:     533572  MISS:       4302
cpu0_DTLB RFO       ACCESS:     196656  HIT:     194761  MISS:       1895
cpu0_DTLB PREFETCH  ACCESS:          0  HIT:          0  MISS:          0
cpu0_DTLB WRITEBACK ACCESS:          0  HIT:          0  MISS:          0
cpu0_ITLB TOTAL     ACCESS:     292472  HIT:     292422  MISS:         50
cpu0_ITLB LOAD      ACCESS:     292472  HIT:     292422  MISS:         50
cpu0_ITLB RFO       ACCESS:          0  HIT:          0  MISS:          0
cpu0_ITLB PREFETCH  ACCESS:          0  HIT:          0  MISS:          0
cpu0_ITLB WRITEBACK ACCESS:          0  HIT:          0  MISS:          0
cpu0_L1I TOTAL     ACCESS:     268460  HIT:     229818  MISS:      38642
cpu0_L1I LOAD      ACCESS:     268460  HIT:     229818  MISS:      38642
cpu0_L1I RFO       ACCESS:          0  HIT:          0  MISS:          0
cpu0_L1I PREFETCH  ACCESS:          0  HIT:          0  MISS:          0
cpu0_L1I WRITEBACK ACCESS:          0  HIT:          0  MISS:          0
cpu0_STLB TOTAL     ACCESS:       6247  HIT:       6162  MISS:         85
cpu0_STLB LOAD      ACCESS:       4352  HIT:       4295  MISS:         57
cpu0_STLB RFO       ACCESS:       1895  HIT:       1867  MISS:         28
cpu0_STLB PREFETCH  ACCESS:          0  HIT:          0  MISS:          0
cpu0_STLB WRITEBACK ACCESS:          0  HIT:          0  MISS:          0
cpu0_L1D TOTAL     ACCESS:     933145  HIT:     924705  MISS:       8440
cpu0_L1D LOAD      ACCESS:     543950  HIT:     538165  MISS:       5785
cpu0_L1D RFO       ACCESS:     389114  HIT:     386467  MISS:       2647
cpu0_L1D PREFETCH  ACCESS:          0  HIT:          0  MISS:          0
cpu0_L1D WRITEBACK ACCESS:          0  HIT:          0  MISS:          0
cpu0_L2C TOTAL     ACCESS:      50300  HIT:      46403  MISS:       3897
cpu0_L2C LOAD      ACCESS:      44426  HIT:      42168  MISS:       2258
cpu0_L2C RFO       ACCESS:       2631  HIT:       1000  MISS:       1631
cpu0_L2C PREFETCH  ACCESS:          0  HIT:          0  MISS:          0
cpu0_L2C WRITEBACK ACCESS:       3235  HIT:       3228  MISS:          7
LLC TOTAL     ACCESS:       5606  HIT:        120  MISS:       5486
LLC LOAD      ACCESS:       2258  HIT:         36  MISS:       2222
LLC RFO       ACCESS:       1631  HIT:         15  MISS:       1616
LLC PREFETCH  ACCESS:          0  HIT:          0  MISS:          0
LLC WRITEBACK ACCESS:       1716  HIT:         69  MISS:       1647
Heartbeat CPU 0 instructions: 58000002 cycles: 15923379 heartbeat IPC: 2.52253 cumulative IPC: 2.44039 (Simulation time: 0 hr 25 min 10 sec) 

Region of Interest Statistics
cpu0_DTLB TOTAL     ACCESS:     982736  HIT:     975667  MISS:       7069
cpu0_DTLB LOAD      ACCESS:     715690  HIT:     710849  MISS:       4841
cpu0_DTLB RFO       ACCESS:     267046  HIT:     264818  MISS:       2228
cpu0_DTLB PREFETCH  ACCESS:          0  HIT:          0  MISS:          0
cpu0_DTLB WRITEBACK ACCESS:          0  HIT:          0  MISS:          0
cpu0_ITLB TOTAL     ACCESS:     378269  HIT:     378218  MISS:         51
cpu0_ITLB LOAD      ACCESS:     378269  HIT:     378218  MISS:         51
cpu0_ITLB RFO       ACCESS:          0  HIT:          0  MISS:          0
cpu0_ITLB PREFETCH  ACCESS:          0  HIT:          0  MISS:          0
cpu0_ITLB WRITEBACK ACCESS:          0  HIT:          0  MISS:          0
cpu0_L1I TOTAL     ACCESS:     337289  HIT:     291367  MISS:      45922
cpu0_L1I LOAD      ACCESS:     337289  HIT:     291367  MISS:      45922
cpu0_L1I RFO       ACCESS:          0  HIT:          0  MISS:          0
cpu0_L1I PREFETCH  ACCESS:          0  HIT:          0  MISS:          0
cpu0_L1I WRITEBACK ACCESS:          0  HIT:          0  MISS:          0
cpu0_STLB TOTAL     ACCESS:       7120  HIT:       7025  MISS:         95
cpu0_STLB LOAD      ACCESS:       4892  HIT:       4835  MISS:         57
cpu0_STLB RFO       ACCESS:       2228  HIT:       2190  MISS:         38
cpu0_STLB PREFETCH  ACCESS:          0  HIT:          0  MISS:          0
cpu0_STLB WRITEBACK ACCESS:          0  HIT:          0  MISS:          0
cpu0_L1D TOTAL     ACCESS:    1248519  HIT:    1237898  MISS:      10621
cpu0_L1D LOAD      ACCESS:     744413  HIT:     737363  MISS:       7050
cpu0_L1D RFO       ACCESS:     504015  HIT:     500454  MISS:       3561
cpu0_L1D PREFETCH  ACCESS:          0  HIT:          0  MISS:          0
cpu0_L1D WRITEBACK ACCESS:          0  HIT:          0  MISS:          0
cpu0_L2C TOTAL     ACCESS:      60871  HIT:      55865  MISS:       5006
cpu0_L2C LOAD      ACCESS:      52971  HIT:      50402  MISS:       2569
cpu0_L2C RFO       ACCESS:       3545  HIT:       1129  MISS:       2416
cpu0_L2C PREFETCH  ACCESS:          0  HIT:          0  MISS:          0
cpu0_L2C WRITEBACK ACCESS:       4345  HIT:       4325  MISS:         20
LLC TOTAL     ACCESS:       7315  HIT:        204  MISS:       7111
LLC LOAD      ACCESS:       2569  HIT:         83  MISS:       2486
LLC RFO       ACCESS:       2416  HIT:         42  MISS:       2374
LLC PREFETCH  ACCESS:          0  HIT:          0  MISS:          0
LLC WRITEBACK ACCESS:       2329  HIT:         79  MISS:       2250
Heartbeat CPU 0 instructions: 60000004 cycles: 16749054 heartbeat IPC: 2.42226 cumulative IPC: 2.43674 (Simulation time: 0 hr 26 min 4 sec) 

Region of Interest Statistics
cpu0_DTLB TOTAL     ACCESS:    1230227  HIT:    1220560  MISS:       9667
cpu0_DTLB LOAD      ACCESS:     897367  HIT:     890626  MISS:       6741
cpu0_DTLB RFO       ACCESS:     332860  HIT:     329934  MISS:       2926
cpu0_DTLB PREFETCH  ACCESS:          0  HIT:          0  MISS:          0
cpu0_DTLB WRITEBACK ACCESS:          0  HIT:          0  MISS:          0
cpu0_ITLB TOTAL     ACCESS:     474544  HIT:     474483  MISS:         61
cpu0_ITLB LOAD      ACCESS:     474544  HIT:     474483  MISS:         61
cpu0_ITLB RFO       ACCESS:          0  HIT:          0  MISS:          0
cpu0_ITLB PREFETCH  ACCESS:          0  HIT:          0  MISS:          0
cpu0_ITLB WRITEBACK ACCESS:          0  HIT:          0  MISS:          0
cpu0_L1I TOTAL     ACCESS:     426406  HIT:     366978  MISS:      59428
cpu0_L1I LOAD      ACCESS:     426406  HIT:     366978  MISS:      59428
cpu0_L1I RFO       ACCESS:          0  HIT:          0  MISS:          0
cpu0_L1I PREFETCH  ACCESS:          0  HIT:          0  MISS:          0
cpu0_L1I WRITEBACK ACCESS:          0  HIT:          0  MISS:          0
cpu0_STLB TOTAL     ACCESS:       9728  HIT:       9586  MISS:        142
cpu0_STLB LOAD      ACCESS:       6802  HIT:       6712  MISS:         90
cpu0_STLB RFO       ACCESS:       2926  HIT:       2874  MISS:         52
cpu0_STLB PREFETCH  ACCESS:          0  HIT:          0  MISS:          0
cpu0_STLB WRITEBACK ACCESS:          0  HIT:          0  MISS:          0
cpu0_L1D TOTAL     ACCESS:    1558774  HIT:    1545118  MISS:      13656
cpu0_L1D LOAD      ACCESS:     925932  HIT:     916809  MISS:       9123
cpu0_L1D RFO       ACCESS:     632709  HIT:     628190  MISS:       4519
cpu0_L1D PREFETCH  ACCESS:          0  HIT:          0  MISS:          0
cpu0_L1D WRITEBACK ACCESS:          0  HIT:          0  MISS:          0
cpu0_L2C TOTAL     ACCESS:      78742  HIT:      72175  MISS:       6567
cpu0_L2C LOAD      ACCESS:      68550  HIT:      65047  MISS:       3503
cpu0_L2C RFO       ACCESS:       4495  HIT:       1452  MISS:       3043
cpu0_L2C PREFETCH  ACCESS:          0  HIT:          0  MISS:          0
cpu0_L2C WRITEBACK ACCESS:       5683  HIT:       5663  MISS:         20
LLC TOTAL     ACCESS:       9458  HIT:        288  MISS:       9170
LLC LOAD      ACCESS:       3503  HIT:        116  MISS:       3387
LLC RFO       ACCESS:       3043  HIT:         68  MISS:       2975
LLC PREFETCH  ACCESS:          0  HIT:          0  MISS:          0
LLC WRITEBACK ACCESS:       2911  HIT:        104  MISS:       2807
Heartbeat CPU 0 instructions: 62000003 cycles: 17609343 heartbeat IPC: 2.3248 cumulative IPC: 2.41734 (Simulation time: 0 hr 26 min 59 sec) 

Region of Interest Statistics
cpu0_DTLB TOTAL     ACCESS:    1468194  HIT:    1455466  MISS:      12728
cpu0_DTLB LOAD      ACCESS:    1071810  HIT:    1062909  MISS:       8901
cpu0_DTLB RFO       ACCESS:     396384  HIT:     392557  MISS:       3827
cpu0_DTLB PREFETCH  ACCESS:          0  HIT:          0  MISS:          0
cpu0_DTLB WRITEBACK ACCESS:          0  HIT:          0  MISS:          0
cpu0_ITLB TOTAL     ACCESS:     585516  HIT:     585415  MISS:        101
cpu0_ITLB LOAD      ACCESS:     585516  HIT:     585415  MISS:        101
cpu0_ITLB RFO       ACCESS:          0  HIT:          0  MISS:          0
cpu0_ITLB PREFETCH  ACCESS:          0  HIT:          0  MISS:          0
cpu0_ITLB WRITEBACK ACCESS:          0  HIT:          0  MISS:          0
cpu0_L1I TOTAL     ACCESS:     535772  HIT:     460413  MISS:      75359
cpu0_L1I LOAD      ACCESS:     535772  HIT:     460413  MISS:      75359
cpu0_L1I RFO       ACCESS:          0  HIT:          0  MISS:          0
cpu0_L1I PREFETCH  ACCESS:          0  HIT:          0  MISS:          0
cpu0_L1I WRITEBACK ACCESS:          0  HIT:          0  MISS:          0
cpu0_STLB TOTAL     ACCESS:      12829  HIT:      12670  MISS:        159
cpu0_STLB LOAD      ACCESS:       9002  HIT:       8895  MISS:        107
cpu0_STLB RFO       ACCESS:       3827  HIT:       3775  MISS:         52
cpu0_STLB PREFETCH  ACCESS:          0  HIT:          0  MISS:          0
cpu0_STLB WRITEBACK ACCESS:          0  HIT:          0  MISS:          0
cpu0_L1D TOTAL     ACCESS:    1872708  HIT:    1856672  MISS:      16036
cpu0_L1D LOAD      ACCESS:    1090079  HIT:    1079098  MISS:      10981
cpu0_L1D RFO       ACCESS:     782479  HIT:     777438  MISS:       5041
cpu0_L1D PREFETCH  ACCESS:          0  HIT:          0  MISS:          0
cpu0_L1D WRITEBACK ACCESS:          0  HIT:          0  MISS:          0
cpu0_L2C TOTAL     ACCESS:      97571  HIT:      89711  MISS:       7860
cpu0_L2C LOAD      ACCESS:      86340  HIT:      81818  MISS:       4522
cpu0_L2C RFO       ACCESS:       5013  HIT:       1696  MISS:       3317
cpu0_L2C PREFETCH  ACCESS:          0  HIT:          0  MISS:          0
cpu0_L2C WRITEBACK ACCESS:       6204  HIT:       6184  MISS:         20
LLC TOTAL     ACCESS:      11338  HIT:        356  MISS:      10982
LLC LOAD      ACCESS:       4522  HIT:        135  MISS:       4387
LLC RFO       ACCESS:       3317  HIT:         69  MISS:       3248
LLC PREFETCH  ACCESS:          0  HIT:          0  MISS:          0
LLC WRITEBACK ACCESS:       3498  HIT:        152  MISS:       3346
Heartbeat CPU 0 instructions: 64000000 cycles: 18486468 heartbeat IPC: 2.28017 cumulative IPC: 2.39674 (Simulation time: 0 hr 27 min 43 sec) 

Region of Interest Statistics
cpu0_DTLB TOTAL     ACCESS:    1710442  HIT:    1695934  MISS:      14508
cpu0_DTLB LOAD      ACCESS:    1249306  HIT:    1239152  MISS:      10154
cpu0_DTLB RFO       ACCESS:     461136  HIT:     456782  MISS:       4354
cpu0_DTLB PREFETCH  ACCESS:          0  HIT:          0  MISS:          0
cpu0_DTLB WRITEBACK ACCESS:          0  HIT:          0  MISS:          0
cpu0_ITLB TOTAL     ACCESS:     697050  HIT:     696948  MISS:        102
cpu0_ITLB LOAD      ACCESS:     697050  HIT:     696948  MISS:        102
cpu0_ITLB RFO       ACCESS:          0  HIT:          0  MISS:          0
cpu0_ITLB PREFETCH  ACCESS:          0  HIT:          0  MISS:          0
cpu0_ITLB WRITEBACK ACCESS:          0  HIT:          0  MISS:          0
cpu0_L1I TOTAL     ACCESS:     624461  HIT:     537173  MISS:      87288
cpu0_L1I LOAD      ACCESS:     624461  HIT:     537173  MISS:      87288
cpu0_L1I RFO       ACCESS:          0  HIT:          0  MISS:          0
cpu0_L1I PREFETCH  ACCESS:          0  HIT:          0  MISS:          0
cpu0_L1I WRITEBACK ACCESS:          0  HIT:          0  MISS:          0
cpu0_STLB TOTAL     ACCESS:      14610  HIT:      14448  MISS:        162
cpu0_STLB LOAD      ACCESS:      10256  HIT:      10149  MISS:        107
cpu0_STLB RFO       ACCESS:       4354  HIT:       4299  MISS:         55
cpu0_STLB PREFETCH  ACCESS:          0  HIT:          0  MISS:          0
cpu0_STLB WRITEBACK ACCESS:          0  HIT:          0  MISS:          0
cpu0_L1D TOTAL     ACCESS:    2190372  HIT:    2171816  MISS:      18556
cpu0_L1D LOAD      ACCESS:    1271784  HIT:    1259019  MISS:      12765
cpu0_L1D RFO       ACCESS:     918435  HIT:     912659  MISS:       5776
cpu0_L1D PREFETCH  ACCESS:          0  HIT:          0  MISS:          0
cpu0_L1D WRITEBACK ACCESS:          0  HIT:          0  MISS:          0
cpu0_L2C TOTAL     ACCESS:     112958  HIT:     104206  MISS:       8752
cpu0_L2C LOAD      ACCESS:     100052  HIT:      94971  MISS:       5081
cpu0_L2C RFO       ACCESS:       5744  HIT:       2099  MISS:       3645
cpu0_L2C PREFETCH  ACCESS:          0  HIT:          0  MISS:          0
cpu0_L2C WRITEBACK ACCESS:       7147  HIT:       7122  MISS:         25
LLC TOTAL     ACCESS:      12615  HIT:        506  MISS:      12109
LLC LOAD      ACCESS:       5081  HIT:        246  MISS:       4835
LLC RFO       ACCESS:       3645  HIT:         81  MISS:       3564
LLC PREFETCH  ACCESS:          0  HIT:          0  MISS:          0
LLC WRITEBACK ACCESS:       3888  HIT:        179  MISS:       3709
Heartbeat CPU 0 instructions: 66000000 cycles: 19216185 heartbeat IPC: 2.74079 cumulative IPC: 2.43495 (Simulation time: 0 hr 28 min 34 sec) 

Region of Interest Statistics
cpu0_DTLB TOTAL     ACCESS:    1960512  HIT:    1944693  MISS:      15819
cpu0_DTLB LOAD      ACCESS:    1427653  HIT:    1416577  MISS:      11076
cpu0_DTLB RFO       ACCESS:     532859  HIT:     528116  MISS:       4743
cpu0_DTLB PREFETCH  ACCESS:          0  HIT:          0  MISS:          0
cpu0_DTLB WRITEBACK ACCESS:          0  HIT:          0  MISS:          0
cpu0_ITLB TOTAL     ACCESS:     766612  HIT:     766502  MISS:        110
cpu0_ITLB LOAD      ACCESS:     766612  HIT:     766502  MISS:        110
cpu0_ITLB RFO       ACCESS:          0  HIT:          0  MISS:          0
cpu0_ITLB PREFETCH  ACCESS:          0  HIT:          0  MISS:          0
cpu0_ITLB WRITEBACK ACCESS:          0  HIT:          0  MISS:          0
cpu0_L1I TOTAL     ACCESS:     694160  HIT:     597897  MISS:      96263
cpu0_L1I LOAD      ACCESS:     694160  HIT:     597897  MISS:      96263
cpu0_L1I RFO       ACCESS:          0  HIT:          0  MISS:          0
cpu0_L1I PREFETCH  ACCESS:          0  HIT:          0  MISS:          0
cpu0_L1I WRITEBACK ACCESS:          0  HIT:          0  MISS:          0
cpu0_STLB TOTAL     ACCESS:      15929  HIT:      15732  MISS:        197
cpu0_STLB LOAD      ACCESS:      11186  HIT:      11065  MISS:        121
cpu0_STLB RFO       ACCESS:       4743  HIT:       4667  MISS:         76
cpu0_STLB PREFETCH  ACCESS:          0  HIT:          0  MISS:          0
cpu0_STLB WRITEBACK ACCESS:          0  HIT:          0  MISS:          0
cpu0_L1D TOTAL     ACCESS:    2496152  HIT:    2474528  MISS:      21624
cpu0_L1D LOAD      ACCESS:    1469396  HIT:    1454930  MISS:      14466
cpu0_L1D RFO       ACCESS:    1026572  HIT:    1019432  MISS:       7140
cpu0_L1D PREFETCH  ACCESS:          0  HIT:          0  MISS:          0
cpu0_L1D WRITEBACK ACCESS:          0  HIT:          0  MISS:          0
cpu0_L2C TOTAL     ACCESS:     126758  HIT:     116363  MISS:      10395
cpu0_L2C LOAD      ACCESS:     110728  HIT:     105019  MISS:       5709
cpu0_L2C RFO       ACCESS:       7106  HIT:       2446  MISS:       4660
cpu0_L2C PREFETCH  ACCESS:          0  HIT:          0  MISS:          0
cpu0_L2C WRITEBACK ACCESS:       8906  HIT:       8881  MISS:         25
LLC TOTAL     ACCESS:      14929  HIT:        543  MISS:      14386
LLC LOAD      ACCESS:       5709  HIT:        261  MISS:       5448
LLC RFO       ACCESS:       4660  HIT:         89  MISS:       4571
LLC PREFETCH  ACCESS:          0  HIT:          0  MISS:          0
LLC WRITEBACK ACCESS:       4559  HIT:        193  MISS:       4366
Heartbeat CPU 0 instructions: 68000001 cycles: 20110027 heartbeat IPC: 2.23753 cumulative IPC: 2.41131 (Simulation time: 0 hr 29 min 29 sec) 

Region of Interest Statistics
cpu0_DTLB TOTAL     ACCESS:    2206095  HIT:    2187642  MISS:      18453
cpu0_DTLB LOAD      ACCESS:    1606702  HIT:    1593725  MISS:      12977
cpu0_DTLB RFO       ACCESS:     599393  HIT:     593917  MISS:       5476
cpu0_DTLB PREFETCH  ACCESS:          0  HIT:          0  MISS:          0
cpu0_DTLB WRITEBACK ACCESS:          0  HIT:          0  MISS:          0
cpu0_ITLB TOTAL     ACCESS:     881909  HIT:     881748  MISS:        161
cpu0_ITLB LOAD      ACCESS:     881909  HIT:     881748  MISS:        161
cpu0_ITLB RFO       ACCESS:          0  HIT:          0  MISS:          0
cpu0_ITLB PREFETCH  ACCESS:          0  HIT:          0  MISS:          0
cpu0_ITLB WRITEBACK ACCESS:          0  HIT:          0  MISS:          0
cpu0_L1I TOTAL     ACCESS:     802103  HIT:     690535  MISS:     111568
cpu0_L1I LOAD      ACCESS:     802103  HIT:     690535  MISS:     111568
cpu0_L1I RFO       ACCESS:          0  HIT:          0  MISS:          0
cpu0_L1I PREFETCH  ACCESS:          0  HIT:          0  MISS:          0
cpu0_L1I WRITEBACK ACCESS:          0  HIT:          0  MISS:          0
cpu0_STLB TOTAL     ACCESS:      18614  HIT:      18390  MISS:        224
cpu0_STLB LOAD      ACCESS:      13138  HIT:      12991  MISS:        147
cpu0_STLB RFO       ACCESS:       5476  HIT:       5399  MISS:         77
cpu0_STLB PREFETCH  ACCESS:          0  HIT:          0  MISS:          0
cpu0_STLB WRITEBACK ACCESS:          0  HIT:          0  MISS:          0
cpu0_L1D TOTAL     ACCESS:    2820616  HIT:    2796161  MISS:      24455
cpu0_L1D LOAD      ACCESS:    1639654  HIT:    1622963  MISS:      16691
cpu0_L1D RFO       ACCESS:    1180751  HIT:    1173006  MISS:       7745
cpu0_L1D PREFETCH  ACCESS:          0  HIT:          0  MISS:          0
cpu0_L1D WRITEBACK ACCESS:          0  HIT:          0  MISS:          0
cpu0_L2C TOTAL     ACCESS:     145524  HIT:     133839  MISS:      11685
cpu0_L2C LOAD      ACCESS:     128257  HIT:     121503  MISS:       6754
cpu0_L2C RFO       ACCESS:       7697  HIT:       2792  MISS:       4905
cpu0_L2C PREFETCH  ACCESS:          0  HIT:          0  MISS:          0
cpu0_L2C WRITEBACK ACCESS:       9551  HIT:       9526  MISS:         25
LLC TOTAL     ACCESS:      16689  HIT:        596  MISS:      16093
LLC LOAD      ACCESS:       6754  HIT:        282  MISS:       6472
LLC RFO       ACCESS:       4905  HIT:         89  MISS:       4816
LLC PREFETCH  ACCESS:          0  HIT:          0  MISS:          0
LLC WRITEBACK ACCESS:       5029  HIT:        225  MISS:       4804
Heartbeat CPU 0 instructions: 70000002 cycles: 20972595 heartbeat IPC: 2.31866 cumulative IPC: 2.40171 (Simulation time: 0 hr 30 min 19 sec) 

Region of Interest Statistics
cpu0_DTLB TOTAL     ACCESS:    2441903  HIT:    2421103  MISS:      20800
cpu0_DTLB LOAD      ACCESS:    1778726  HIT:    1764129  MISS:      14597
cpu0_DTLB RFO       ACCESS:     663177  HIT:     656974  MISS:       6203
cpu0_DTLB PREFETCH  ACCESS:          0  HIT:          0  MISS:          0
cpu0_DTLB WRITEBACK ACCESS:          0  HIT:          0  MISS:          0
cpu0_ITLB TOTAL     ACCESS:     991021  HIT:     990851  MISS:        170
cpu0_ITLB LOAD      ACCESS:     991021  HIT:     990851  MISS:        170
cpu0_ITLB RFO       ACCESS:          0  HIT:          0  MISS:          0
cpu0_ITLB PREFETCH  ACCESS:          0  HIT:          0  MISS:          0
cpu0_ITLB WRITEBACK ACCESS:          0  HIT:          0  MISS:          0
cpu0_L1I TOTAL     ACCESS:     912392  HIT:     783309  MISS:     129083
cpu0_L1I LOAD      ACCESS:     912392  HIT:     783309  MISS:     129083
cpu0_L1I RFO       ACCESS:          0  HIT:          0  MISS:          0
cpu0_L1I PREFETCH  ACCESS:          0  HIT:          0  MISS:          0
cpu0_L1I WRITEBACK ACCESS:          0  HIT:          0  MISS:          0
cpu0_STLB TOTAL     ACCESS:      20970  HIT:      20723  MISS:        247
cpu0_STLB LOAD      ACCESS:      14767  HIT:      14597  MISS:        170
cpu0_STLB RFO       ACCESS:       6203  HIT:       6126  MISS:         77
cpu0_STLB PREFETCH  ACCESS:          0  HIT:          0  MISS:          0
cpu0_STLB WRITEBACK ACCESS:          0  HIT:          0  MISS:          0
cpu0_L1D TOTAL     ACCESS:    3132719  HIT:    3106465  MISS:      26254
cpu0_L1D LOAD      ACCESS:    1800747  HIT:    1782695  MISS:      18052
cpu0_L1D RFO       ACCESS:    1331738  HIT:    1323556  MISS:       8182
cpu0_L1D PREFETCH  ACCESS:          0  HIT:          0  MISS:          0
cpu0_L1D WRITEBACK ACCESS:          0  HIT:          0  MISS:          0
cpu0_L2C TOTAL     ACCESS:     165275  HIT:     152518  MISS:      12757
cpu0_L2C LOAD      ACCESS:     147133  HIT:     139552  MISS:       7581
cpu0_L2C RFO       ACCESS:       8126  HIT:       2977  MISS:       5149
cpu0_L2C PREFETCH  ACCESS:          0  HIT:          0  MISS:          0
cpu0_L2C WRITEBACK ACCESS:       9996  HIT:       9970  MISS:         26
LLC TOTAL     ACCESS:      18233  HIT:        640  MISS:      17593
LLC LOAD      ACCESS:       7581  HIT:        300  MISS:       7281
LLC RFO       ACCESS:       5149  HIT:         89  MISS:       5060
LLC PREFETCH  ACCESS:          0  HIT:          0  MISS:          0
LLC WRITEBACK ACCESS:       5502  HIT:        251  MISS:       5251
Heartbeat CPU 0 instructions: 72000004 cycles: 21724033 heartbeat IPC: 2.66157 cumulative IPC: 2.42322 (Simulation time: 0 hr 31 min 4 sec) 

Region of Interest Statistics
cpu0_DTLB TOTAL     ACCESS:    2694865  HIT:    2673568  MISS:      21297
cpu0_DTLB LOAD      ACCESS:    1959167  HIT:    1944261  MISS:      14906
cpu0_DTLB RFO       ACCESS:     735698  HIT:     729307  MISS:       6391
cpu0_DTLB PREFETCH  ACCESS:          0  HIT:          0  MISS:          0
cpu0_DTLB WRITEBACK ACCESS:          0  HIT:          0  MISS:          0
cpu0_ITLB TOTAL     ACCESS:    1060595  HIT:    1060414  MISS:        181
cpu0_ITLB LOAD      ACCESS:    1060595  HIT:    1060414  MISS:        181
cpu0_ITLB RFO       ACCESS:          0  HIT:          0  MISS:          0
cpu0_ITLB PREFETCH  ACCESS:          0  HIT:          0  MISS:          0
cpu0_ITLB WRITEBACK ACCESS:          0  HIT:          0  MISS:          0
cpu0_L1I TOTAL     ACCESS:     962098  HIT:     829510  MISS:     132588
cpu0_L1I LOAD      ACCESS:     962098  HIT:     829510  MISS:     132588
cpu0_L1I RFO       ACCESS:          0  HIT:          0  MISS:          0
cpu0_L1I PREFETCH  ACCESS:          0  HIT:          0  MISS:          0
cpu0_L1I WRITEBACK ACCESS:          0  HIT:          0  MISS:          0
cpu0_STLB TOTAL     ACCESS:      21478  HIT:      21199  MISS:        279
cpu0_STLB LOAD      ACCESS:      15087  HIT:      14910  MISS:        177
cpu0_STLB RFO       ACCESS:       6391  HIT:       6289  MISS:        102
cpu0_STLB PREFETCH  ACCESS:          0  HIT:          0  MISS:          0
cpu0_STLB WRITEBACK ACCESS:          0  HIT:          0  MISS:          0
cpu0_L1D TOTAL     ACCESS:    3444089  HIT:    3415106  MISS:      28983
cpu0_L1D LOAD      ACCESS:    2017677  HIT:    1998230  MISS:      19447
cpu0_L1D RFO       ACCESS:    1426152  HIT:    1416639  MISS:       9513
cpu0_L1D PREFETCH  ACCESS:          0  HIT:          0  MISS:          0
cpu0_L1D WRITEBACK ACCESS:          0  HIT:          0  MISS:          0
cpu0_L2C TOTAL     ACCESS:     173220  HIT:     159082  MISS:      14138
cpu0_L2C LOAD      ACCESS:     152033  HIT:     144183  MISS:       7850
cpu0_L2C RFO       ACCESS:       9457  HIT:       3202  MISS:       6255
cpu0_L2C PREFETCH  ACCESS:          0  HIT:          0  MISS:          0
cpu0_L2C WRITEBACK ACCESS:      11707  HIT:      11677  MISS:         30
LLC TOTAL     ACCESS:      20176  HIT:        721  MISS:      19455
LLC LOAD      ACCESS:       7850  HIT:        355  MISS:       7495
LLC RFO       ACCESS:       6255  HIT:        101  MISS:       6154
LLC PREFETCH  ACCESS:          0  HIT:          0  MISS:          0
LLC WRITEBACK ACCESS:       6068  HIT:        265  MISS:       5803
Heartbeat CPU 0 instructions: 74000000 cycles: 22650044 heartbeat IPC: 2.1598 cumulative IPC: 2.39884 (Simulation time: 0 hr 31 min 51 sec) 

Region of Interest Statistics
cpu0_DTLB TOTAL     ACCESS:    2947859  HIT:    2923993  MISS:      23866
cpu0_DTLB LOAD      ACCESS:    2143071  HIT:    2126312  MISS:      16759
cpu0_DTLB RFO       ACCESS:     804788  HIT:     797681  MISS:       7107
cpu0_DTLB PREFETCH  ACCESS:          0  HIT:          0  MISS:          0
cpu0_DTLB WRITEBACK ACCESS:          0  HIT:          0  MISS:          0
cpu0_ITLB TOTAL     ACCESS:    1179062  HIT:    1178843  MISS:        219
cpu0_ITLB LOAD      ACCESS:    1179062  HIT:    1178843  MISS:        219
cpu0_ITLB RFO       ACCESS:          0  HIT:          0  MISS:          0
cpu0_ITLB PREFETCH  ACCESS:          0  HIT:          0  MISS:          0
cpu0_ITLB WRITEBACK ACCESS:          0  HIT:          0  MISS:          0
cpu0_L1I TOTAL     ACCESS:    1072401  HIT:     923866  MISS:     148535
cpu0_L1I LOAD      ACCESS:    1072401  HIT:     923866  MISS:     148535
cpu0_L1I RFO       ACCESS:          0  HIT:          0  MISS:          0
cpu0_L1I PREFETCH  ACCESS:          0  HIT:          0  MISS:          0
cpu0_L1I WRITEBACK ACCESS:          0  HIT:          0  MISS:          0
cpu0_STLB TOTAL     ACCESS:      24085  HIT:      23756  MISS:        329
cpu0_STLB LOAD      ACCESS:      16978  HIT:      16754  MISS:        224
cpu0_STLB RFO       ACCESS:       7107  HIT:       7002  MISS:        105
cpu0_STLB PREFETCH  ACCESS:          0  HIT:          0  MISS:          0
cpu0_STLB WRITEBACK ACCESS:          0  HIT:          0  MISS:          0
cpu0_L1D TOTAL     ACCESS:    3775282  HIT:    3743571  MISS:      31711
cpu0_L1D LOAD      ACCESS:    2190990  HIT:    2169274  MISS:      21716
cpu0_L1D RFO       ACCESS:    1583984  HIT:    1574018  MISS:       9966
cpu0_L1D PREFETCH  ACCESS:          0  HIT:          0  MISS:          0
cpu0_L1D WRITEBACK ACCESS:          0  HIT:          0  MISS:          0
cpu0_L2C TOTAL     ACCESS:     192566  HIT:     176994  MISS:      15572
cpu0_L2C LOAD      ACCESS:     170249  HIT:     161166  MISS:       9083
cpu0_L2C RFO       ACCESS:       9909  HIT:       3456  MISS:       6453
cpu0_L2C PREFETCH  ACCESS:          0  HIT:          0  MISS:          0
cpu0_L2C WRITEBACK ACCESS:      12379  HIT:      12349  MISS:         30
LLC TOTAL     ACCESS:      22099  HIT:        746  MISS:      21353
LLC LOAD      ACCESS:       9083  HIT:        360  MISS:       8723
LLC RFO       ACCESS:       6453  HIT:        101  MISS:       6352
LLC PREFETCH  ACCESS:          0  HIT:          0  MISS:          0
LLC WRITEBACK ACCESS:       6557  HIT:        285  MISS:       6272
Heartbeat CPU 0 instructions: 76000004 cycles: 23518188 heartbeat IPC: 2.30377 cumulative IPC: 2.39125 (Simulation time: 0 hr 32 min 30 sec) 

Region of Interest Statistics
cpu0_DTLB TOTAL     ACCESS:    3186641  HIT:    3159819  MISS:      26822
cpu0_DTLB LOAD      ACCESS:    2319649  HIT:    2300817  MISS:      18832
cpu0_DTLB RFO       ACCESS:     866992  HIT:     859002  MISS:       7990
cpu0_DTLB PREFETCH  ACCESS:          0  HIT:          0  MISS:          0
cpu0_DTLB WRITEBACK ACCESS:          0  HIT:          0  MISS:          0
cpu0_ITLB TOTAL     ACCESS:    1291098  HIT:    1290857  MISS:        241
cpu0_ITLB LOAD      ACCESS:    1291098  HIT:    1290857  MISS:        241
cpu0_ITLB RFO       ACCESS:          0  HIT:          0  MISS:          0
cpu0_ITLB PREFETCH  ACCESS:          0  HIT:          0  MISS:          0
cpu0_ITLB WRITEBACK ACCESS:          0  HIT:          0  MISS:          0
cpu0_L1I TOTAL     ACCESS:    1179664  HIT:    1015090  MISS:     164574
cpu0_L1I LOAD      ACCESS:    1179664  HIT:    1015090  MISS:     164574
cpu0_L1I RFO       ACCESS:          0  HIT:          0  MISS:          0
cpu0_L1I PREFETCH  ACCESS:          0  HIT:          0  MISS:          0
cpu0_L1I WRITEBACK ACCESS:          0  HIT:          0  MISS:          0
cpu0_STLB TOTAL     ACCESS:      27063  HIT:      26716  MISS:        347
cpu0_STLB LOAD      ACCESS:      19073  HIT:      18831  MISS:        242
cpu0_STLB RFO       ACCESS:       7990  HIT:       7885  MISS:        105
cpu0_STLB PREFETCH  ACCESS:          0  HIT:          0  MISS:          0
cpu0_STLB WRITEBACK ACCESS:          0  HIT:          0  MISS:          0
cpu0_L1D TOTAL     ACCESS:    4085395  HIT:    4051027  MISS:      34368
cpu0_L1D LOAD      ACCESS:    2355101  HIT:    2331336  MISS:      23765
cpu0_L1D RFO       ACCESS:    1729968  HIT:    1719395  MISS:      10573
cpu0_L1D PREFETCH  ACCESS:          0  HIT:          0  MISS:          0
cpu0_L1D WRITEBACK ACCESS:          0  HIT:          0  MISS:          0
cpu0_L2C TOTAL     ACCESS:     211853  HIT:     194901  MISS:      16952
cpu0_L2C LOAD      ACCESS:     188337  HIT:     178169  MISS:      10168
cpu0_L2C RFO       ACCESS:      10514  HIT:       3769  MISS:       6745
cpu0_L2C PREFETCH  ACCESS:          0  HIT:          0  MISS:          0
cpu0_L2C WRITEBACK ACCESS:      12972  HIT:      12939  MISS:         33
LLC TOTAL     ACCESS:      24032  HIT:        789  MISS:      23243
LLC LOAD      ACCESS:      10168  HIT:        371  MISS:       9797
LLC RFO       ACCESS:       6745  HIT:        101  MISS:       6644
LLC PREFETCH  ACCESS:          0  HIT:          0  MISS:          0
LLC WRITEBACK ACCESS:       7113  HIT:        317  MISS:       6796
Heartbeat CPU 0 instructions: 78000003 cycles: 24356688 heartbeat IPC: 2.38521 cumulative IPC: 2.39082 (Simulation time: 0 hr 33 min 20 sec) 

Region of Interest Statistics
cpu0_DTLB TOTAL     ACCESS:    3430837  HIT:    3402742  MISS:      28095
cpu0_DTLB LOAD      ACCESS:    2497280  HIT:    2477570  MISS:      19710
cpu0_DTLB RFO       ACCESS:     933557  HIT:     925172  MISS:       8385
cpu0_DTLB PREFETCH  ACCESS:          0  HIT:          0  MISS:          0
cpu0_DTLB WRITEBACK ACCESS:          0  HIT:          0  MISS:          0
cpu0_ITLB TOTAL     ACCESS:    1391050  HIT:    1390808  MISS:        242
cpu0_ITLB LOAD      ACCESS:    1391050  HIT:    1390808  MISS:        242
cpu0_ITLB RFO       ACCESS:          0  HIT:          0  MISS:          0
cpu0_ITLB PREFETCH  ACCESS:          0  HIT:          0  MISS:          0
cpu0_ITLB WRITEBACK ACCESS:          0  HIT:          0  MISS:          0
cpu0_L1I TOTAL     ACCESS:    1255432  HIT:    1081608  MISS:     173824
cpu0_L1I LOAD      ACCESS:    1255432  HIT:    1081608  MISS:     173824
cpu0_L1I RFO       ACCESS:          0  HIT:          0  MISS:          0
cpu0_L1I PREFETCH  ACCESS:          0  HIT:          0  MISS:          0
cpu0_L1I WRITEBACK ACCESS:          0  HIT:          0  MISS:          0
cpu0_STLB TOTAL     ACCESS:      28337  HIT:      27983  MISS:        354
cpu0_STLB LOAD      ACCESS:      19952  HIT:      19710  MISS:        242
cpu0_STLB RFO       ACCESS:       8385  HIT:       8273  MISS:        112
cpu0_STLB PREFETCH  ACCESS:          0  HIT:          0  MISS:          0
cpu0_STLB WRITEBACK ACCESS:          0  HIT:          0  MISS:          0
cpu0_L1D TOTAL     ACCESS:    4400467  HIT:    4364031  MISS:      36436
cpu0_L1D LOAD      ACCESS:    2547804  HIT:    2522676  MISS:      25128
cpu0_L1D RFO       ACCESS:    1852330  HIT:    1841054  MISS:      11276
cpu0_L1D PREFETCH  ACCESS:          0  HIT:          0  MISS:          0
cpu0_L1D WRITEBACK ACCESS:          0  HIT:          0  MISS:          0
cpu0_L2C TOTAL     ACCESS:     224089  HIT:     206094  MISS:      17995
cpu0_L2C LOAD      ACCESS:     198950  HIT:     188279  MISS:      10671
cpu0_L2C RFO       ACCESS:      11216  HIT:       3938  MISS:       7278
cpu0_L2C PREFETCH  ACCESS:          0  HIT:          0  MISS:          0
cpu0_L2C WRITEBACK ACCESS:      13891  HIT:      13851  MISS:         40
LLC TOTAL     ACCESS:      25468  HIT:        902  MISS:      24566
LLC LOAD      ACCESS:      10671  HIT:        460  MISS:      10211
LLC RFO       ACCESS:       7278  HIT:        107  MISS:       7171
LLC PREFETCH  ACCESS:          0  HIT:          0  MISS:          0
LLC WRITEBACK ACCESS:       7513  HIT:        335  MISS:       7178
Heartbeat CPU 0 instructions: 80000002 cycles: 25141653 heartbeat IPC: 2.54788 cumulative IPC: 2.40068 (Simulation time: 0 hr 34 min 10 sec) 

Region of Interest Statistics
cpu0_DTLB TOTAL     ACCESS:    3677540  HIT:    3647669  MISS:      29871
cpu0_DTLB LOAD      ACCESS:    2672908  HIT:    2651872  MISS:      21036
cpu0_DTLB RFO       ACCESS:    1004632  HIT:     995797  MISS:       8835
cpu0_DTLB PREFETCH  ACCESS:          0  HIT:          0  MISS:          0
cpu0_DTLB WRITEBACK ACCESS:          0  HIT:          0  MISS:          0
cpu0_ITLB TOTAL     ACCESS:    1472368  HIT:    1472098  MISS:        270
cpu0_ITLB LOAD      ACCESS:    1472368  HIT:    1472098  MISS:        270
cpu0_ITLB RFO       ACCESS:          0  HIT:          0  MISS:          0
cpu0_ITLB PREFETCH  ACCESS:          0  HIT:          0  MISS:          0
cpu0_ITLB WRITEBACK ACCESS:          0  HIT:          0  MISS:          0
cpu0_L1I TOTAL     ACCESS:    1338798  HIT:    1153179  MISS:     185619
cpu0_L1I LOAD      ACCESS:    1338798  HIT:    1153179  MISS:     185619
cpu0_L1I RFO       ACCESS:          0  HIT:          0  MISS:          0
cpu0_L1I PREFETCH  ACCESS:          0  HIT:          0  MISS:          0
cpu0_L1I WRITEBACK ACCESS:          0  HIT:          0  MISS:          0
cpu0_STLB TOTAL     ACCESS:      30141  HIT:      29759  MISS:        382
cpu0_STLB LOAD      ACCESS:      21306  HIT:      21054  MISS:        252
cpu0_STLB RFO       ACCESS:       8835  HIT:       8705  MISS:        130
cpu0_STLB PREFETCH  ACCESS:          0  HIT:          0  MISS:          0
cpu0_STLB WRITEBACK ACCESS:          0  HIT:          0  MISS:          0
cpu0_L1D TOTAL     ACCESS:    4711738  HIT:    4672490  MISS:      39248
cpu0_L1D LOAD      ACCESS:    2734572  HIT:    2707766  MISS:      26806
cpu0_L1D RFO       ACCESS:    1976812  HIT:    1964406  MISS:      12406
cpu0_L1D PREFETCH  ACCESS:          0  HIT:          0  MISS:          0
cpu0_L1D WRITEBACK ACCESS:          0  HIT:          0  MISS:          0
cpu0_L2C TOTAL     ACCESS:     240175  HIT:     220663  MISS:      19512
cpu0_L2C LOAD      ACCESS:     212423  HIT:     201035  MISS:      11388
cpu0_L2C RFO       ACCESS:      12341  HIT:       4267  MISS:       8074
cpu0_L2C PREFETCH  ACCESS:          0  HIT:          0  MISS:          0
cpu0_L2C WRITEBACK ACCESS:      15375  HIT:      15333  MISS:         42
LLC TOTAL     ACCESS:      27449  HIT:        943  MISS:      26506
LLC LOAD      ACCESS:      11388  HIT:        466  MISS:      10922
LLC RFO       ACCESS:       8074  HIT:        119  MISS:       7955
LLC PREFETCH  ACCESS:          0  HIT:          0  MISS:          0
LLC WRITEBACK ACCESS:       7979  HIT:        358  MISS:       7621
Heartbeat CPU 0 instructions: 82000000 cycles: 26038123 heartbeat IPC: 2.23097 cumulative IPC: 2.38932 (Simulation time: 0 hr 35 min 4 sec) 

Region of Interest Statistics
cpu0_DTLB TOTAL     ACCESS:    3922976  HIT:    3890176  MISS:      32800
cpu0_DTLB LOAD      ACCESS:    2854173  HIT:    2830970  MISS:      23203
cpu0_DTLB RFO       ACCESS:    1068803  HIT:    1059206  MISS:       9597
cpu0_DTLB PREFETCH  ACCESS:          0  HIT:          0  MISS:          0
cpu0_DTLB WRITEBACK ACCESS:          0  HIT:          0  MISS:          0
cpu0_ITLB TOTAL     ACCESS:    1588480  HIT:    1588154  MISS:        326
cpu0_ITLB LOAD      ACCESS:    1588480  HIT:    1588154  MISS:        326
cpu0_ITLB RFO       ACCESS:          0  HIT:          0  MISS:          0
cpu0_ITLB PREFETCH  ACCESS:          0  HIT:          0  MISS:          0
cpu0_ITLB WRITEBACK ACCESS:          0  HIT:          0  MISS:          0
cpu0_L1I TOTAL     ACCESS:    1445300  HIT:    1244509  MISS:     200791
cpu0_L1I LOAD      ACCESS:    1445300  HIT:    1244509  MISS:     200791
cpu0_L1I RFO       ACCESS:          0  HIT:          0  MISS:          0
cpu0_L1I PREFETCH  ACCESS:          0  HIT:          0  MISS:          0
cpu0_L1I WRITEBACK ACCESS:          0  HIT:          0  MISS:          0
cpu0_STLB TOTAL     ACCESS:      33126  HIT:      32739  MISS:        387
cpu0_STLB LOAD      ACCESS:      23529  HIT:      23273  MISS:        256
cpu0_STLB RFO       ACCESS:       9597  HIT:       9466  MISS:        131
cpu0_STLB PREFETCH  ACCESS:          0  HIT:          0  MISS:          0
cpu0_STLB WRITEBACK ACCESS:          0  HIT:          0  MISS:          0
cpu0_L1D TOTAL     ACCESS:    5030643  HIT:    4988306  MISS:      42337
cpu0_L1D LOAD      ACCESS:    2904536  HIT:    2875130  MISS:      29406
cpu0_L1D RFO       ACCESS:    2125748  HIT:    2112855  MISS:      12893
cpu0_L1D PREFETCH  ACCESS:          0  HIT:          0  MISS:          0
cpu0_L1D WRITEBACK ACCESS:          0  HIT:          0  MISS:          0
cpu0_L2C TOTAL     ACCESS:     258990  HIT:     237933  MISS:      21057
cpu0_L2C LOAD      ACCESS:     230195  HIT:     217489  MISS:      12706
cpu0_L2C RFO       ACCESS:      12825  HIT:       4525  MISS:       8300
cpu0_L2C PREFETCH  ACCESS:          0  HIT:          0  MISS:          0
cpu0_L2C WRITEBACK ACCESS:      15932  HIT:      15890  MISS:         42
LLC TOTAL     ACCESS:      29615  HIT:       1042  MISS:      28573
LLC LOAD      ACCESS:      12706  HIT:        497  MISS:      12209
LLC RFO       ACCESS:       8300  HIT:        119  MISS:       8181
LLC PREFETCH  ACCESS:          0  HIT:          0  MISS:          0
LLC WRITEBACK ACCESS:       8600  HIT:        426  MISS:       8174
Heartbeat CPU 0 instructions: 84000001 cycles: 26900153 heartbeat IPC: 2.32011 cumulative IPC: 2.38514 (Simulation time: 0 hr 35 min 55 sec) 

Region of Interest Statistics
cpu0_DTLB TOTAL     ACCESS:    4157977  HIT:    4122122  MISS:      35855
cpu0_DTLB LOAD      ACCESS:    3025897  HIT:    3000478  MISS:      25419
cpu0_DTLB RFO       ACCESS:    1132080  HIT:    1121644  MISS:      10436
cpu0_DTLB PREFETCH  ACCESS:          0  HIT:          0  MISS:          0
cpu0_DTLB WRITEBACK ACCESS:          0  HIT:          0  MISS:          0
cpu0_ITLB TOTAL     ACCESS:    1696896  HIT:    1696555  MISS:        341
cpu0_ITLB LOAD      ACCESS:    1696896  HIT:    1696555  MISS:        341
cpu0_ITLB RFO       ACCESS:          0  HIT:          0  MISS:          0
cpu0_ITLB PREFETCH  ACCESS:          0  HIT:          0  MISS:          0
cpu0_ITLB WRITEBACK ACCESS:          0  HIT:          0  MISS:          0
cpu0_L1I TOTAL     ACCESS:    1555620  HIT:    1337557  MISS:     218063
cpu0_L1I LOAD      ACCESS:    1555620  HIT:    1337557  MISS:     218063
cpu0_L1I RFO       ACCESS:          0  HIT:          0  MISS:          0
cpu0_L1I PREFETCH  ACCESS:          0  HIT:          0  MISS:          0
cpu0_L1I WRITEBACK ACCESS:          0  HIT:          0  MISS:          0
cpu0_STLB TOTAL     ACCESS:      36196  HIT:      35809  MISS:        387
cpu0_STLB LOAD      ACCESS:      25760  HIT:      25504  MISS:        256
cpu0_STLB RFO       ACCESS:      10436  HIT:      10305  MISS:        131
cpu0_STLB PREFETCH  ACCESS:          0  HIT:          0  MISS:          0
cpu0_STLB WRITEBACK ACCESS:          0  HIT:          0  MISS:          0
cpu0_L1D TOTAL     ACCESS:    5341958  HIT:    5297575  MISS:      44383
cpu0_L1D LOAD      ACCESS:    3065466  HIT:    3034493  MISS:      30973
cpu0_L1D RFO       ACCESS:    2276133  HIT:    2262761  MISS:      13372
cpu0_L1D PREFETCH  ACCESS:          0  HIT:          0  MISS:          0
cpu0_L1D WRITEBACK ACCESS:          0  HIT:          0  MISS:          0
cpu0_L2C TOTAL     ACCESS:     278747  HIT:     256543  MISS:      22204
cpu0_L2C LOAD      ACCESS:     249034  HIT:     235438  MISS:      13596
cpu0_L2C RFO       ACCESS:      13302  HIT:       4745  MISS:       8557
cpu0_L2C PREFETCH  ACCESS:          0  HIT:          0  MISS:          0
cpu0_L2C WRITEBACK ACCESS:      16373  HIT:      16331  MISS:         42
LLC TOTAL     ACCESS:      31334  HIT:       1087  MISS:      30247
LLC LOAD      ACCESS:      13596  HIT:        513  MISS:      13083
LLC RFO       ACCESS:       8557  HIT:        119  MISS:       8438
LLC PREFETCH  ACCESS:          0  HIT:          0  MISS:          0
LLC WRITEBACK ACCESS:       9172  HIT:        455  MISS:       8717
Heartbeat CPU 0 instructions: 86000003 cycles: 27659727 heartbeat IPC: 2.63306 cumulative IPC: 2.39768 (Simulation time: 0 hr 36 min 46 sec) 

Region of Interest Statistics
cpu0_DTLB TOTAL     ACCESS:    4411664  HIT:    4375339  MISS:      36325
cpu0_DTLB LOAD      ACCESS:    3207414  HIT:    3181672  MISS:      25742
cpu0_DTLB RFO       ACCESS:    1204250  HIT:    1193667  MISS:      10583
cpu0_DTLB PREFETCH  ACCESS:          0  HIT:          0  MISS:          0
cpu0_DTLB WRITEBACK ACCESS:          0  HIT:          0  MISS:          0
cpu0_ITLB TOTAL     ACCESS:    1768627  HIT:    1768271  MISS:        356
cpu0_ITLB LOAD      ACCESS:    1768627  HIT:    1768271  MISS:        356
cpu0_ITLB RFO       ACCESS:          0  HIT:          0  MISS:          0
cpu0_ITLB PREFETCH  ACCESS:          0  HIT:          0  MISS:          0
cpu0_ITLB WRITEBACK ACCESS:          0  HIT:          0  MISS:          0
cpu0_L1I TOTAL     ACCESS:    1601960  HIT:    1380551  MISS:     221409
cpu0_L1I LOAD      ACCESS:    1601960  HIT:    1380551  MISS:     221409
cpu0_L1I RFO       ACCESS:          0  HIT:          0  MISS:          0
cpu0_L1I PREFETCH  ACCESS:          0  HIT:          0  MISS:          0
cpu0_L1I WRITEBACK ACCESS:          0  HIT:          0  MISS:          0
cpu0_STLB TOTAL     ACCESS:      36682  HIT:      36265  MISS:        417
cpu0_STLB LOAD      ACCESS:      26099  HIT:      25836  MISS:        263
cpu0_STLB RFO       ACCESS:      10583  HIT:      10429  MISS:        154
cpu0_STLB PREFETCH  ACCESS:          0  HIT:          0  MISS:          0
cpu0_STLB WRITEBACK ACCESS:          0  HIT:          0  MISS:          0
cpu0_L1D TOTAL     ACCESS:    5652869  HIT:    5605747  MISS:      47122
cpu0_L1D LOAD      ACCESS:    3283340  HIT:    3250930  MISS:      32410
cpu0_L1D RFO       ACCESS:    2369147  HIT:    2354476  MISS:      14671
cpu0_L1D PREFETCH  ACCESS:          0  HIT:          0  MISS:          0
cpu0_L1D WRITEBACK ACCESS:          0  HIT:          0  MISS:          0
cpu0_L2C TOTAL     ACCESS:     286576  HIT:     262827  MISS:      23749
cpu0_L2C LOAD      ACCESS:     253817  HIT:     239771  MISS:      14046
cpu0_L2C RFO       ACCESS:      14601  HIT:       4955  MISS:       9646
cpu0_L2C PREFETCH  ACCESS:          0  HIT:          0  MISS:          0
cpu0_L2C WRITEBACK ACCESS:      18117  HIT:      18071  MISS:         46
LLC TOTAL     ACCESS:      33528  HIT:       1240  MISS:      32288
LLC LOAD      ACCESS:      14046  HIT:        639  MISS:      13407
LLC RFO       ACCESS:       9646  HIT:        137  MISS:       9509
LLC PREFETCH  ACCESS:          0  HIT:          0  MISS:          0
LLC WRITEBACK ACCESS:       9825  HIT:        464  MISS:       9361
Heartbeat CPU 0 instructions: 88000003 cycles: 28557940 heartbeat IPC: 2.22664 cumulative IPC: 2.38803 (Simulation time: 0 hr 37 min 39 sec) 

Region of Interest Statistics
cpu0_DTLB TOTAL     ACCESS:    4661161  HIT:    4622299  MISS:      38862
cpu0_DTLB LOAD      ACCESS:    3390076  HIT:    3362421  MISS:      27655
cpu0_DTLB RFO       ACCESS:    1271085  HIT:    1259878  MISS:      11207
cpu0_DTLB PREFETCH  ACCESS:          0  HIT:          0  MISS:          0
cpu0_DTLB WRITEBACK ACCESS:          0  HIT:          0  MISS:          0
cpu0_ITLB TOTAL     ACCESS:    1885965  HIT:    1885555  MISS:        410
cpu0_ITLB LOAD      ACCESS:    1885965  HIT:    1885555  MISS:        410
cpu0_ITLB RFO       ACCESS:          0  HIT:          0  MISS:          0
cpu0_ITLB PREFETCH  ACCESS:          0  HIT:          0  MISS:          0
cpu0_ITLB WRITEBACK ACCESS:          0  HIT:          0  MISS:          0
cpu0_L1I TOTAL     ACCESS:    1710242  HIT:    1472604  MISS:     237638
cpu0_L1I LOAD      ACCESS:    1710242  HIT:    1472604  MISS:     237638
cpu0_L1I RFO       ACCESS:          0  HIT:          0  MISS:          0
cpu0_L1I PREFETCH  ACCESS:          0  HIT:          0  MISS:          0
cpu0_L1I WRITEBACK ACCESS:          0  HIT:          0  MISS:          0
cpu0_STLB TOTAL     ACCESS:      39272  HIT:      38852  MISS:        420
cpu0_STLB LOAD      ACCESS:      28065  HIT:      27801  MISS:        264
cpu0_STLB RFO       ACCESS:      11207  HIT:      11051  MISS:        156
cpu0_STLB PREFETCH  ACCESS:          0  HIT:          0  MISS:          0
cpu0_STLB WRITEBACK ACCESS:          0  HIT:          0  MISS:          0
cpu0_L1D TOTAL     ACCESS:    5978295  HIT:    5928358  MISS:      49937
cpu0_L1D LOAD      ACCESS:    3454903  HIT:    3420223  MISS:      34680
cpu0_L1D RFO       ACCESS:    2523007  HIT:    2507794  MISS:      15213
cpu0_L1D PREFETCH  ACCESS:          0  HIT:          0  MISS:          0
cpu0_L1D WRITEBACK ACCESS:          0  HIT:          0  MISS:          0
cpu0_L2C TOTAL     ACCESS:     306336  HIT:     281451  MISS:      24885
cpu0_L2C LOAD      ACCESS:     272316  HIT:     257346  MISS:      14970
cpu0_L2C RFO       ACCESS:      15133  HIT:       5276  MISS:       9857
cpu0_L2C PREFETCH  ACCESS:          0  HIT:          0  MISS:          0
cpu0_L2C WRITEBACK ACCESS:      18843  HIT:      18797  MISS:         46
LLC TOTAL     ACCESS:      34951  HIT:       1264  MISS:      33687
LLC LOAD      ACCESS:      14970  HIT:        654  MISS:      14316
LLC RFO       ACCESS:       9857  HIT:        138  MISS:       9719
LLC PREFETCH  ACCESS:          0  HIT:          0  MISS:          0
LLC WRITEBACK ACCESS:      10112  HIT:        472  MISS:       9640
Heartbeat CPU 0 instructions: 90000003 cycles: 29438181 heartbeat IPC: 2.2721 cumulative IPC: 2.38195 (Simulation time: 0 hr 38 min 33 sec) 

Region of Interest Statistics
cpu0_DTLB TOTAL     ACCESS:    4902271  HIT:    4860859  MISS:      41412
cpu0_DTLB LOAD      ACCESS:    3569091  HIT:    3539611  MISS:      29480
cpu0_DTLB RFO       ACCESS:    1333180  HIT:    1321248  MISS:      11932
cpu0_DTLB PREFETCH  ACCESS:          0  HIT:          0  MISS:          0
cpu0_DTLB WRITEBACK ACCESS:          0  HIT:          0  MISS:          0
cpu0_ITLB TOTAL     ACCESS:    1999542  HIT:    1999091  MISS:        451
cpu0_ITLB LOAD      ACCESS:    1999542  HIT:    1999091  MISS:        451
cpu0_ITLB RFO       ACCESS:          0  HIT:          0  MISS:          0
cpu0_ITLB PREFETCH  ACCESS:          0  HIT:          0  MISS:          0
cpu0_ITLB WRITEBACK ACCESS:          0  HIT:          0  MISS:          0
cpu0_L1I TOTAL     ACCESS:    1816406  HIT:    1562883  MISS:     253523
cpu0_L1I LOAD      ACCESS:    1816406  HIT:    1562883  MISS:     253523
cpu0_L1I RFO       ACCESS:          0  HIT:          0  MISS:          0
cpu0_L1I PREFETCH  ACCESS:          0  HIT:          0  MISS:          0
cpu0_L1I WRITEBACK ACCESS:          0  HIT:          0  MISS:          0
cpu0_STLB TOTAL     ACCESS:      41863  HIT:      41440  MISS:        423
cpu0_STLB LOAD      ACCESS:      29931  HIT:      29665  MISS:        266
cpu0_STLB RFO       ACCESS:      11932  HIT:      11775  MISS:        157
cpu0_STLB PREFETCH  ACCESS:          0  HIT:          0  MISS:          0
cpu0_STLB WRITEBACK ACCESS:          0  HIT:          0  MISS:          0
cpu0_L1D TOTAL     ACCESS:    6291020  HIT:    6237680  MISS:      53340
cpu0_L1D LOAD      ACCESS:    3621315  HIT:    3583931  MISS:      37384
cpu0_L1D RFO       ACCESS:    2669317  HIT:    2653407  MISS:      15910
cpu0_L1D PREFETCH  ACCESS:          0  HIT:          0  MISS:          0
cpu0_L1D WRITEBACK ACCESS:          0  HIT:          0  MISS:          0
cpu0_L2C TOTAL     ACCESS:     326363  HIT:     299948  MISS:      26415
cpu0_L2C LOAD      ACCESS:     290905  HIT:     274651  MISS:      16254
cpu0_L2C RFO       ACCESS:      15823  HIT:       5722  MISS:      10101
cpu0_L2C PREFETCH  ACCESS:          0  HIT:          0  MISS:          0
cpu0_L2C WRITEBACK ACCESS:      19589  HIT:      19542  MISS:         47
LLC TOTAL     ACCESS:      37066  HIT:       1323  MISS:      35743
LLC LOAD      ACCESS:      16254  HIT:        672  MISS:      15582
LLC RFO       ACCESS:      10101  HIT:        138  MISS:       9963
LLC PREFETCH  ACCESS:          0  HIT:          0  MISS:          0
LLC WRITEBACK ACCESS:      10698  HIT:        513  MISS:      10185
Heartbeat CPU 0 instructions: 92000001 cycles: 30328041 heartbeat IPC: 2.24754 cumulative IPC: 2.37519 (Simulation time: 0 hr 39 min 16 sec) 

Region of Interest Statistics
cpu0_DTLB TOTAL     ACCESS:    5140285  HIT:    5097366  MISS:      42919
cpu0_DTLB LOAD      ACCESS:    3745499  HIT:    3714994  MISS:      30505
cpu0_DTLB RFO       ACCESS:    1394786  HIT:    1382372  MISS:      12414
cpu0_DTLB PREFETCH  ACCESS:          0  HIT:          0  MISS:          0
cpu0_DTLB WRITEBACK ACCESS:          0  HIT:          0  MISS:          0
cpu0_ITLB TOTAL     ACCESS:    2122134  HIT:    2121682  MISS:        452
cpu0_ITLB LOAD      ACCESS:    2122134  HIT:    2121682  MISS:        452
cpu0_ITLB RFO       ACCESS:          0  HIT:          0  MISS:          0
cpu0_ITLB PREFETCH  ACCESS:          0  HIT:          0  MISS:          0
cpu0_ITLB WRITEBACK ACCESS:          0  HIT:          0  MISS:          0
cpu0_L1I TOTAL     ACCESS:    1906725  HIT:    1639208  MISS:     267517
cpu0_L1I LOAD      ACCESS:    1906725  HIT:    1639208  MISS:     267517
cpu0_L1I RFO       ACCESS:          0  HIT:          0  MISS:          0
cpu0_L1I PREFETCH  ACCESS:          0  HIT:          0  MISS:          0
cpu0_L1I WRITEBACK ACCESS:          0  HIT:          0  MISS:          0
cpu0_STLB TOTAL     ACCESS:      43371  HIT:      42948  MISS:        423
cpu0_STLB LOAD      ACCESS:      30957  HIT:      30691  MISS:        266
cpu0_STLB RFO       ACCESS:      12414  HIT:      12257  MISS:        157
cpu0_STLB PREFETCH  ACCESS:          0  HIT:          0  MISS:          0
cpu0_STLB WRITEBACK ACCESS:          0  HIT:          0  MISS:          0
cpu0_L1D TOTAL     ACCESS:    6605463  HIT:    6550288  MISS:      55175
cpu0_L1D LOAD      ACCESS:    3796457  HIT:    3757623  MISS:      38834
cpu0_L1D RFO       ACCESS:    2808618  HIT:    2792323  MISS:      16295
cpu0_L1D PREFETCH  ACCESS:          0  HIT:          0  MISS:          0
cpu0_L1D WRITEBACK ACCESS:          0  HIT:          0  MISS:          0
cpu0_L2C TOTAL     ACCESS:     342684  HIT:     315488  MISS:      27196
cpu0_L2C LOAD      ACCESS:     306349  HIT:     289486  MISS:      16863
cpu0_L2C RFO       ACCESS:      16204  HIT:       5933  MISS:      10271
cpu0_L2C PREFETCH  ACCESS:          0  HIT:          0  MISS:          0
cpu0_L2C WRITEBACK ACCESS:      20085  HIT:      20036  MISS:         49
LLC TOTAL     ACCESS:      38214  HIT:       1362  MISS:      36852
LLC LOAD      ACCESS:      16863  HIT:        697  MISS:      16166
LLC RFO       ACCESS:      10271  HIT:        141  MISS:      10130
LLC PREFETCH  ACCESS:          0  HIT:          0  MISS:          0
LLC WRITEBACK ACCESS:      11067  HIT:        524  MISS:      10543
Heartbeat CPU 0 instructions: 94000002 cycles: 31049088 heartbeat IPC: 2.77375 cumulative IPC: 2.3908 (Simulation time: 0 hr 40 min 8 sec) 

Region of Interest Statistics
cpu0_DTLB TOTAL     ACCESS:    5392367  HIT:    5348516  MISS:      43851
cpu0_DTLB LOAD      ACCESS:    3923919  HIT:    3892736  MISS:      31183
cpu0_DTLB RFO       ACCESS:    1468448  HIT:    1455780  MISS:      12668
cpu0_DTLB PREFETCH  ACCESS:          0  HIT:          0  MISS:          0
cpu0_DTLB WRITEBACK ACCESS:          0  HIT:          0  MISS:          0
cpu0_ITLB TOTAL     ACCESS:    2182429  HIT:    2181958  MISS:        471
cpu0_ITLB LOAD      ACCESS:    2182429  HIT:    2181958  MISS:        471
cpu0_ITLB RFO       ACCESS:          0  HIT:          0  MISS:          0
cpu0_ITLB PREFETCH  ACCESS:          0  HIT:          0  MISS:          0
cpu0_ITLB WRITEBACK ACCESS:          0  HIT:          0  MISS:          0
cpu0_L1I TOTAL     ACCESS:    1968238  HIT:    1694183  MISS:     274055
cpu0_L1I LOAD      ACCESS:    1968238  HIT:    1694183  MISS:     274055
cpu0_L1I RFO       ACCESS:          0  HIT:          0  MISS:          0
cpu0_L1I PREFETCH  ACCESS:          0  HIT:          0  MISS:          0
cpu0_L1I WRITEBACK ACCESS:          0  HIT:          0  MISS:          0
cpu0_STLB TOTAL     ACCESS:      44322  HIT:      43868  MISS:        454
cpu0_STLB LOAD      ACCESS:      31654  HIT:      31381  MISS:        273
cpu0_STLB RFO       ACCESS:      12668  HIT:      12487  MISS:        181
cpu0_STLB PREFETCH  ACCESS:          0  HIT:          0  MISS:          0
cpu0_STLB WRITEBACK ACCESS:          0  HIT:          0  MISS:          0
cpu0_L1D TOTAL     ACCESS:    6913213  HIT:    6855253  MISS:      57960
cpu0_L1D LOAD      ACCESS:    4003250  HIT:    3963006  MISS:      40244
cpu0_L1D RFO       ACCESS:    2909551  HIT:    2891884  MISS:      17667
cpu0_L1D PREFETCH  ACCESS:          0  HIT:          0  MISS:          0
cpu0_L1D WRITEBACK ACCESS:          0  HIT:          0  MISS:          0
cpu0_L2C TOTAL     ACCESS:     353858  HIT:     324953  MISS:      28905
cpu0_L2C LOAD      ACCESS:     314297  HIT:     296873  MISS:      17424
cpu0_L2C RFO       ACCESS:      17575  HIT:       6164  MISS:      11411
cpu0_L2C PREFETCH  ACCESS:          0  HIT:          0  MISS:          0
cpu0_L2C WRITEBACK ACCESS:      21937  HIT:      21881  MISS:         56
LLC TOTAL     ACCESS:      40527  HIT:       1412  MISS:      39115
LLC LOAD      ACCESS:      17424  HIT:        735  MISS:      16689
LLC RFO       ACCESS:      11411  HIT:        143  MISS:      11268
LLC PREFETCH  ACCESS:          0  HIT:          0  MISS:          0
LLC WRITEBACK ACCESS:      11678  HIT:        534  MISS:      11144
Heartbeat CPU 0 instructions: 96000002 cycles: 31945141 heartbeat IPC: 2.23201 cumulative IPC: 2.38343 (Simulation time: 0 hr 40 min 58 sec) 

Region of Interest Statistics
cpu0_DTLB TOTAL     ACCESS:    5639546  HIT:    5593098  MISS:      46448
cpu0_DTLB LOAD      ACCESS:    4104465  HIT:    4071361  MISS:      33104
cpu0_DTLB RFO       ACCESS:    1535081  HIT:    1521737  MISS:      13344
cpu0_DTLB PREFETCH  ACCESS:          0  HIT:          0  MISS:          0
cpu0_DTLB WRITEBACK ACCESS:          0  HIT:          0  MISS:          0
cpu0_ITLB TOTAL     ACCESS:    2298383  HIT:    2297842  MISS:        541
cpu0_ITLB LOAD      ACCESS:    2298383  HIT:    2297842  MISS:        541
cpu0_ITLB RFO       ACCESS:          0  HIT:          0  MISS:          0
cpu0_ITLB PREFETCH  ACCESS:          0  HIT:          0  MISS:          0
cpu0_ITLB WRITEBACK ACCESS:          0  HIT:          0  MISS:          0
cpu0_L1I TOTAL     ACCESS:    2077455  HIT:    1787562  MISS:     289893
cpu0_L1I LOAD      ACCESS:    2077455  HIT:    1787562  MISS:     289893
cpu0_L1I RFO       ACCESS:          0  HIT:          0  MISS:          0
cpu0_L1I PREFETCH  ACCESS:          0  HIT:          0  MISS:          0
cpu0_L1I WRITEBACK ACCESS:          0  HIT:          0  MISS:          0
cpu0_STLB TOTAL     ACCESS:      46989  HIT:      46533  MISS:        456
cpu0_STLB LOAD      ACCESS:      33645  HIT:      33371  MISS:        274
cpu0_STLB RFO       ACCESS:      13344  HIT:      13162  MISS:        182
cpu0_STLB PREFETCH  ACCESS:          0  HIT:          0  MISS:          0
cpu0_STLB WRITEBACK ACCESS:          0  HIT:          0  MISS:          0
cpu0_L1D TOTAL     ACCESS:    7239024  HIT:    7178262  MISS:      60762
cpu0_L1D LOAD      ACCESS:    4173708  HIT:    4131079  MISS:      42629
cpu0_L1D RFO       ACCESS:    3064902  HIT:    3046820  MISS:      18082
cpu0_L1D PREFETCH  ACCESS:          0  HIT:          0  MISS:          0
cpu0_L1D WRITEBACK ACCESS:          0  HIT:          0  MISS:          0
cpu0_L2C TOTAL     ACCESS:     372949  HIT:     342802  MISS:      30147
cpu0_L2C LOAD      ACCESS:     332520  HIT:     314067  MISS:      18453
cpu0_L2C RFO       ACCESS:      17986  HIT:       6362  MISS:      11624
cpu0_L2C PREFETCH  ACCESS:          0  HIT:          0  MISS:          0
cpu0_L2C WRITEBACK ACCESS:      22392  HIT:      22336  MISS:         56
LLC TOTAL     ACCESS:      42218  HIT:       1514  MISS:      40704
LLC LOAD      ACCESS:      18453  HIT:        741  MISS:      17712
LLC RFO       ACCESS:      11624  HIT:        143  MISS:      11481
LLC PREFETCH  ACCESS:          0  HIT:          0  MISS:          0
LLC WRITEBACK ACCESS:      12127  HIT:        630  MISS:      11497
Heartbeat CPU 0 instructions: 98000004 cycles: 32808176 heartbeat IPC: 2.31741 cumulative IPC: 2.3806 (Simulation time: 0 hr 41 min 50 sec) 

Region of Interest Statistics
cpu0_DTLB TOTAL     ACCESS:    5879485  HIT:    5830238  MISS:      49247
cpu0_DTLB LOAD      ACCESS:    4284096  HIT:    4248978  MISS:      35118
cpu0_DTLB RFO       ACCESS:    1595389  HIT:    1581260  MISS:      14129
cpu0_DTLB PREFETCH  ACCESS:          0  HIT:          0  MISS:          0
cpu0_DTLB WRITEBACK ACCESS:          0  HIT:          0  MISS:          0
cpu0_ITLB TOTAL     ACCESS:    2411596  HIT:    2411015  MISS:        581
cpu0_ITLB LOAD      ACCESS:    2411596  HIT:    2411015  MISS:        581
cpu0_ITLB RFO       ACCESS:          0  HIT:          0  MISS:          0
cpu0_ITLB PREFETCH  ACCESS:          0  HIT:          0  MISS:          0
cpu0_ITLB WRITEBACK ACCESS:          0  HIT:          0  MISS:          0
cpu0_L1I TOTAL     ACCESS:    2181611  HIT:    1874941  MISS:     306670
cpu0_L1I LOAD      ACCESS:    2181611  HIT:    1874941  MISS:     306670
cpu0_L1I RFO       ACCESS:          0  HIT:          0  MISS:          0
cpu0_L1I PREFETCH  ACCESS:          0  HIT:          0  MISS:          0
cpu0_L1I WRITEBACK ACCESS:          0  HIT:          0  MISS:          0
cpu0_STLB TOTAL     ACCESS:      49828  HIT:      49364  MISS:        464
cpu0_STLB LOAD      ACCESS:      35699  HIT:      35420  MISS:        279
cpu0_STLB RFO       ACCESS:      14129  HIT:      13944  MISS:        185
cpu0_STLB PREFETCH  ACCESS:          0  HIT:          0  MISS:          0
cpu0_STLB WRITEBACK ACCESS:          0  HIT:          0  MISS:          0
cpu0_L1D TOTAL     ACCESS:    7547949  HIT:    7484457  MISS:      63492
cpu0_L1D LOAD      ACCESS:    4339512  HIT:    4294770  MISS:      44742
cpu0_L1D RFO       ACCESS:    3208016  HIT:    3189321  MISS:      18695
cpu0_L1D PREFETCH  ACCESS:          0  HIT:          0  MISS:          0
cpu0_L1D WRITEBACK ACCESS:          0  HIT:          0  MISS:          0
cpu0_L2C TOTAL     ACCESS:     393077  HIT:     361774  MISS:      31303
cpu0_L2C LOAD      ACCESS:     351410  HIT:     332033  MISS:      19377
cpu0_L2C RFO       ACCESS:      18591  HIT:       6737  MISS:      11854
cpu0_L2C PREFETCH  ACCESS:          0  HIT:          0  MISS:          0
cpu0_L2C WRITEBACK ACCESS:      23021  HIT:      22963  MISS:         58
LLC TOTAL     ACCESS:      43899  HIT:       1661  MISS:      42238
LLC LOAD      ACCESS:      19377  HIT:        759  MISS:      18618
LLC RFO       ACCESS:      11854  HIT:        143  MISS:      11711
LLC PREFETCH  ACCESS:          0  HIT:          0  MISS:          0
LLC WRITEBACK ACCESS:      12654  HIT:        759  MISS:      11895
Heartbeat CPU 0 instructions: 100000003 cycles: 33634156 heartbeat IPC: 2.42137 cumulative IPC: 2.38221 (Simulation time: 0 hr 42 min 36 sec) 

Region of Interest Statistics
cpu0_DTLB TOTAL     ACCESS:    6127002  HIT:    6076556  MISS:      50446
cpu0_DTLB LOAD      ACCESS:    4465055  HIT:    4429123  MISS:      35932
cpu0_DTLB RFO       ACCESS:    1661947  HIT:    1647433  MISS:      14514
cpu0_DTLB PREFETCH  ACCESS:          0  HIT:          0  MISS:          0
cpu0_DTLB WRITEBACK ACCESS:          0  HIT:          0  MISS:          0
cpu0_ITLB TOTAL     ACCESS:    2516028  HIT:    2515446  MISS:        582
cpu0_ITLB LOAD      ACCESS:    2516028  HIT:    2515446  MISS:        582
cpu0_ITLB RFO       ACCESS:          0  HIT:          0  MISS:          0
cpu0_ITLB PREFETCH  ACCESS:          0  HIT:          0  MISS:          0
cpu0_ITLB WRITEBACK ACCESS:          0  HIT:          0  MISS:          0
cpu0_L1I TOTAL     ACCESS:    2249085  HIT:    1933857  MISS:     315228
cpu0_L1I LOAD      ACCESS:    2249085  HIT:    1933857  MISS:     315228
cpu0_L1I RFO       ACCESS:          0  HIT:          0  MISS:          0
cpu0_L1I PREFETCH  ACCESS:          0  HIT:          0  MISS:          0
cpu0_L1I WRITEBACK ACCESS:          0  HIT:          0  MISS:          0
cpu0_STLB TOTAL     ACCESS:      51028  HIT:      50557  MISS:        471
cpu0_STLB LOAD      ACCESS:      36514  HIT:      36235  MISS:        279
cpu0_STLB RFO       ACCESS:      14514  HIT:      14322  MISS:        192
cpu0_STLB PREFETCH  ACCESS:          0  HIT:          0  MISS:          0
cpu0_STLB WRITEBACK ACCESS:          0  HIT:          0  MISS:          0
cpu0_L1D TOTAL     ACCESS:    7864708  HIT:    7798939  MISS:      65769
cpu0_L1D LOAD      ACCESS:    4537223  HIT:    4490958  MISS:      46265
cpu0_L1D RFO       ACCESS:    3327057  HIT:    3307609  MISS:      19448
cpu0_L1D PREFETCH  ACCESS:          0  HIT:          0  MISS:          0
cpu0_L1D WRITEBACK ACCESS:          0  HIT:          0  MISS:          0
cpu0_L2C TOTAL     ACCESS:     404930  HIT:     372565  MISS:      32365
cpu0_L2C LOAD      ACCESS:     361491  HIT:     341590  MISS:      19901
cpu0_L2C RFO       ACCESS:      19340  HIT:       6962  MISS:      12378
cpu0_L2C PREFETCH  ACCESS:          0  HIT:          0  MISS:          0
cpu0_L2C WRITEBACK ACCESS:      24043  HIT:      23971  MISS:         72
LLC TOTAL     ACCESS:      45280  HIT:       1889  MISS:      43391
LLC LOAD      ACCESS:      19901  HIT:        923  MISS:      18978
LLC RFO       ACCESS:      12378  HIT:        153  MISS:      12225
LLC PREFETCH  ACCESS:          0  HIT:          0  MISS:          0
LLC WRITEBACK ACCESS:      12987  HIT:        813  MISS:      12174
Heartbeat CPU 0 instructions: 102000003 cycles: 34397592 heartbeat IPC: 2.61974 cumulative IPC: 2.39054 (Simulation time: 0 hr 43 min 19 sec) 

Region of Interest Statistics
cpu0_DTLB TOTAL     ACCESS:    6370705  HIT:    6318425  MISS:      52280
cpu0_DTLB LOAD      ACCESS:    4640572  HIT:    4603285  MISS:      37287
cpu0_DTLB RFO       ACCESS:    1730133  HIT:    1715140  MISS:      14993
cpu0_DTLB PREFETCH  ACCESS:          0  HIT:          0  MISS:          0
cpu0_DTLB WRITEBACK ACCESS:          0  HIT:          0  MISS:          0
cpu0_ITLB TOTAL     ACCESS:    2596721  HIT:    2596093  MISS:        628
cpu0_ITLB LOAD      ACCESS:    2596721  HIT:    2596093  MISS:        628
cpu0_ITLB RFO       ACCESS:          0  HIT:          0  MISS:          0
cpu0_ITLB PREFETCH  ACCESS:          0  HIT:          0  MISS:          0
cpu0_ITLB WRITEBACK ACCESS:          0  HIT:          0  MISS:          0
cpu0_L1I TOTAL     ACCESS:    2331090  HIT:    2004582  MISS:     326508
cpu0_L1I LOAD      ACCESS:    2331090  HIT:    2004582  MISS:     326508
cpu0_L1I RFO       ACCESS:          0  HIT:          0  MISS:          0
cpu0_L1I PREFETCH  ACCESS:          0  HIT:          0  MISS:          0
cpu0_L1I WRITEBACK ACCESS:          0  HIT:          0  MISS:          0
cpu0_STLB TOTAL     ACCESS:      52908  HIT:      52413  MISS:        495
cpu0_STLB LOAD      ACCESS:      37915  HIT:      37629  MISS:        286
cpu0_STLB RFO       ACCESS:      14993  HIT:      14784  MISS:        209
cpu0_STLB PREFETCH  ACCESS:          0  HIT:          0  MISS:          0
cpu0_STLB WRITEBACK ACCESS:          0  HIT:          0  MISS:          0
cpu0_L1D TOTAL     ACCESS:    8170888  HIT:    8102013  MISS:      68875
cpu0_L1D LOAD      ACCESS:    4723090  HIT:    4674843  MISS:      48247
cpu0_L1D RFO       ACCESS:    3447350  HIT:    3426780  MISS:      20570
cpu0_L1D PREFETCH  ACCESS:          0  HIT:          0  MISS:          0
cpu0_L1D WRITEBACK ACCESS:          0  HIT:          0  MISS:          0
cpu0_L2C TOTAL     ACCESS:     420838  HIT:     386982  MISS:      33856
cpu0_L2C LOAD      ACCESS:     374753  HIT:     354145  MISS:      20608
cpu0_L2C RFO       ACCESS:      20461  HIT:       7299  MISS:      13162
cpu0_L2C PREFETCH  ACCESS:          0  HIT:          0  MISS:          0
cpu0_L2C WRITEBACK ACCESS:      25566  HIT:      25494  MISS:         72
LLC TOTAL     ACCESS:      47263  HIT:       1976  MISS:      45287
LLC LOAD      ACCESS:      20608  HIT:        949  MISS:      19659
LLC RFO       ACCESS:      13162  HIT:        162  MISS:      13000
LLC PREFETCH  ACCESS:          0  HIT:          0  MISS:          0
LLC WRITEBACK ACCESS:      13479  HIT:        865  MISS:      12614
Heartbeat CPU 0 instructions: 104000002 cycles: 35274010 heartbeat IPC: 2.28202 cumulative IPC: 2.38634 (Simulation time: 0 hr 44 min 0 sec) 

Region of Interest Statistics
cpu0_DTLB TOTAL     ACCESS:    6614341  HIT:    6559203  MISS:      55138
cpu0_DTLB LOAD      ACCESS:    4819679  HIT:    4780321  MISS:      39358
cpu0_DTLB RFO       ACCESS:    1794662  HIT:    1778882  MISS:      15780
cpu0_DTLB PREFETCH  ACCESS:          0  HIT:          0  MISS:          0
cpu0_DTLB WRITEBACK ACCESS:          0  HIT:          0  MISS:          0
cpu0_ITLB TOTAL     ACCESS:    2711144  HIT:    2710445  MISS:        699
cpu0_ITLB LOAD      ACCESS:    2711144  HIT:    2710445  MISS:        699
cpu0_ITLB RFO       ACCESS:          0  HIT:          0  MISS:          0
cpu0_ITLB PREFETCH  ACCESS:          0  HIT:          0  MISS:          0
cpu0_ITLB WRITEBACK ACCESS:          0  HIT:          0  MISS:          0
cpu0_L1I TOTAL     ACCESS:    2439762  HIT:    2097942  MISS:     341820
cpu0_L1I LOAD      ACCESS:    2439762  HIT:    2097942  MISS:     341820
cpu0_L1I RFO       ACCESS:          0  HIT:          0  MISS:          0
cpu0_L1I PREFETCH  ACCESS:          0  HIT:          0  MISS:          0
cpu0_L1I WRITEBACK ACCESS:          0  HIT:          0  MISS:          0
cpu0_STLB TOTAL     ACCESS:      55837  HIT:      55341  MISS:        496
cpu0_STLB LOAD      ACCESS:      40057  HIT:      39771  MISS:        286
cpu0_STLB RFO       ACCESS:      15780  HIT:      15570  MISS:        210
cpu0_STLB PREFETCH  ACCESS:          0  HIT:          0  MISS:          0
cpu0_STLB WRITEBACK ACCESS:          0  HIT:          0  MISS:          0
cpu0_L1D TOTAL     ACCESS:    8490532  HIT:    8419035  MISS:      71497
cpu0_L1D LOAD      ACCESS:    4890488  HIT:    4840124  MISS:      50364
cpu0_L1D RFO       ACCESS:    3599595  HIT:    3578521  MISS:      21074
cpu0_L1D PREFETCH  ACCESS:          0  HIT:          0  MISS:          0
cpu0_L1D WRITEBACK ACCESS:          0  HIT:          0  MISS:          0
cpu0_L2C TOTAL     ACCESS:     439275  HIT:     404192  MISS:      35083
cpu0_L2C LOAD      ACCESS:     392182  HIT:     370611  MISS:      21571
cpu0_L2C RFO       ACCESS:      20964  HIT:       7540  MISS:      13424
cpu0_L2C PREFETCH  ACCESS:          0  HIT:          0  MISS:          0
cpu0_L2C WRITEBACK ACCESS:      26070  HIT:      25996  MISS:         74
LLC TOTAL     ACCESS:      49055  HIT:       2139  MISS:      46916
LLC LOAD      ACCESS:      21571  HIT:        976  MISS:      20595
LLC RFO       ACCESS:      13424  HIT:        162  MISS:      13262
LLC PREFETCH  ACCESS:          0  HIT:          0  MISS:          0
LLC WRITEBACK ACCESS:      14046  HIT:       1001  MISS:      13045
Heartbeat CPU 0 instructions: 106000003 cycles: 36126973 heartbeat IPC: 2.34477 cumulative IPC: 2.38483 (Simulation time: 0 hr 44 min 45 sec) 

Region of Interest Statistics
cpu0_DTLB TOTAL     ACCESS:    6851504  HIT:    6793488  MISS:      58016
cpu0_DTLB LOAD      ACCESS:    4995763  HIT:    4954242  MISS:      41521
cpu0_DTLB RFO       ACCESS:    1855741  HIT:    1839246  MISS:      16495
cpu0_DTLB PREFETCH  ACCESS:          0  HIT:          0  MISS:          0
cpu0_DTLB WRITEBACK ACCESS:          0  HIT:          0  MISS:          0
cpu0_ITLB TOTAL     ACCESS:    2821632  HIT:    2820926  MISS:        706
cpu0_ITLB LOAD      ACCESS:    2821632  HIT:    2820926  MISS:        706
cpu0_ITLB RFO       ACCESS:          0  HIT:          0  MISS:          0
cpu0_ITLB PREFETCH  ACCESS:          0  HIT:          0  MISS:          0
cpu0_ITLB WRITEBACK ACCESS:          0  HIT:          0  MISS:          0
cpu0_L1I TOTAL     ACCESS:    2544547  HIT:    2184426  MISS:     360121
cpu0_L1I LOAD      ACCESS:    2544547  HIT:    2184426  MISS:     360121
cpu0_L1I RFO       ACCESS:          0  HIT:          0  MISS:          0
cpu0_L1I PREFETCH  ACCESS:          0  HIT:          0  MISS:          0
cpu0_L1I WRITEBACK ACCESS:          0  HIT:          0  MISS:          0
cpu0_STLB TOTAL     ACCESS:      58722  HIT:      58225  MISS:        497
cpu0_STLB LOAD      ACCESS:      42227  HIT:      41940  MISS:        287
cpu0_STLB RFO       ACCESS:      16495  HIT:      16285  MISS:        210
cpu0_STLB PREFETCH  ACCESS:          0  HIT:          0  MISS:          0
cpu0_STLB WRITEBACK ACCESS:          0  HIT:          0  MISS:          0
cpu0_L1D TOTAL     ACCESS:    8798726  HIT:    8724912  MISS:      73814
cpu0_L1D LOAD      ACCESS:    5054111  HIT:    5002047  MISS:      52064
cpu0_L1D RFO       ACCESS:    3744165  HIT:    3722475  MISS:      21690
cpu0_L1D PREFETCH  ACCESS:          0  HIT:          0  MISS:          0
cpu0_L1D WRITEBACK ACCESS:          0  HIT:          0  MISS:          0
cpu0_L2C TOTAL     ACCESS:     460529  HIT:     424487  MISS:      36042
cpu0_L2C LOAD      ACCESS:     412183  HIT:     389876  MISS:      22307
cpu0_L2C RFO       ACCESS:      21573  HIT:       7928  MISS:      13645
cpu0_L2C PREFETCH  ACCESS:          0  HIT:          0  MISS:          0
cpu0_L2C WRITEBACK ACCESS:      26713  HIT:      26638  MISS:         75
[...]
cpu0_DTLB LOAD      ACCESS:  140068427  HIT:  138915488  MISS:    1152939
cpu0_DTLB RFO       ACCESS:   52575518  HIT:   52119861  MISS:     455657
cpu0_DTLB PREFETCH  ACCESS:          0  HIT:          0  MISS:          0
cpu0_DTLB WRITEBACK ACCESS:          0  HIT:          0  MISS:          0
cpu0_ITLB TOTAL     ACCESS:   82222913  HIT:   82217521  MISS:       5392
cpu0_ITLB LOAD      ACCESS:   82222913  HIT:   82217521  MISS:       5392
cpu0_ITLB RFO       ACCESS:          0  HIT:          0  MISS:          0
cpu0_ITLB PREFETCH  ACCESS:          0  HIT:          0  MISS:          0
cpu0_ITLB WRITEBACK ACCESS:          0  HIT:          0  MISS:          0
cpu0_L1I TOTAL     ACCESS:   56628434  HIT:   52376229  MISS:    4252205
cpu0_L1I LOAD      ACCESS:   56628434  HIT:   52376229  MISS:    4252205
cpu0_L1I RFO       ACCESS:          0  HIT:          0  MISS:          0
cpu0_L1I PREFETCH  ACCESS:          0  HIT:          0  MISS:          0
cpu0_L1I WRITEBACK ACCESS:          0  HIT:          0  MISS:          0
cpu0_STLB TOTAL     ACCESS:    1613988  HIT:    1589835  MISS:      24153
cpu0_STLB LOAD      ACCESS:    1158331  HIT:    1142789  MISS:      15542
cpu0_STLB RFO       ACCESS:     455657  HIT:     447046  MISS:       8611
cpu0_STLB PREFETCH  ACCESS:          0  HIT:          0  MISS:          0
cpu0_STLB WRITEBACK ACCESS:          0  HIT:          0  MISS:          0
cpu0_L1D TOTAL     ACCESS:  224717039  HIT:  221768149  MISS:    2948890
cpu0_L1D LOAD      ACCESS:  125345413  HIT:  123210566  MISS:    2134847
cpu0_L1D RFO       ACCESS:   99348763  HIT:   98537244  MISS:     811519
cpu0_L1D PREFETCH  ACCESS:          0  HIT:          0  MISS:          0
cpu0_L1D WRITEBACK ACCESS:          0  HIT:          0  MISS:          0
cpu0_L2C TOTAL     ACCESS:    8187184  HIT:    6362673  MISS:    1824511
cpu0_L2C LOAD      ACCESS:    6386997  HIT:    5118483  MISS:    1268514
cpu0_L2C RFO       ACCESS:     806922  HIT:     253615  MISS:     553307
cpu0_L2C PREFETCH  ACCESS:          0  HIT:          0  MISS:          0
cpu0_L2C WRITEBACK ACCESS:     990741  HIT:     988396  MISS:       2345
LLC TOTAL     ACCESS:    2481043  HIT:      47548  MISS:    2433495
LLC LOAD      ACCESS:    1268491  HIT:      22028  MISS:    1246463
LLC RFO       ACCESS:     553301  HIT:       4488  MISS:     548813
LLC PREFETCH  ACCESS:          0  HIT:          0  MISS:          0
LLC WRITEBACK ACCESS:     658906  HIT:      21030  MISS:     637876
Heartbeat CPU 0 instructions: 1550000002 cycles: 690234870 heartbeat IPC: 2.40961 cumulative IPC: 2.21373 (Simulation time: 11 hr 48 min 29 sec) 

Region of Interest Statistics
cpu0_DTLB TOTAL     ACCESS:  192898237  HIT:  191285001  MISS:    1613236
cpu0_DTLB LOAD      ACCESS:  140249686  HIT:  139093374  MISS:    1156312
cpu0_DTLB RFO       ACCESS:   52648551  HIT:   52191627  MISS:     456924
cpu0_DTLB PREFETCH  ACCESS:          0  HIT:          0  MISS:          0
cpu0_DTLB WRITEBACK ACCESS:          0  HIT:          0  MISS:          0
cpu0_ITLB TOTAL     ACCESS:   82336411  HIT:   82331019  MISS:       5392
cpu0_ITLB LOAD      ACCESS:   82336411  HIT:   82331019  MISS:       5392
cpu0_ITLB RFO       ACCESS:          0  HIT:          0  MISS:          0
cpu0_ITLB PREFETCH  ACCESS:          0  HIT:          0  MISS:          0
cpu0_ITLB WRITEBACK ACCESS:          0  HIT:          0  MISS:          0
cpu0_L1I TOTAL     ACCESS:   56728174  HIT:   52465958  MISS:    4262216
cpu0_L1I LOAD      ACCESS:   56728174  HIT:   52465958  MISS:    4262216
cpu0_L1I RFO       ACCESS:          0  HIT:          0  MISS:          0
cpu0_L1I PREFETCH  ACCESS:          0  HIT:          0  MISS:          0
cpu0_L1I WRITEBACK ACCESS:          0  HIT:          0  MISS:          0
cpu0_STLB TOTAL     ACCESS:    1618628  HIT:    1594444  MISS:      24184
cpu0_STLB LOAD      ACCESS:    1161704  HIT:    1146140  MISS:      15564
cpu0_STLB RFO       ACCESS:     456924  HIT:     448304  MISS:       8620
cpu0_STLB PREFETCH  ACCESS:          0  HIT:          0  MISS:          0
cpu0_STLB WRITEBACK ACCESS:          0  HIT:          0  MISS:          0
cpu0_L1D TOTAL     ACCESS:  225041250  HIT:  222087634  MISS:    2953616
cpu0_L1D LOAD      ACCESS:  125507862  HIT:  123369479  MISS:    2138383
cpu0_L1D RFO       ACCESS:   99510499  HIT:   98697795  MISS:     812704
cpu0_L1D PREFETCH  ACCESS:          0  HIT:          0  MISS:          0
cpu0_L1D WRITEBACK ACCESS:          0  HIT:          0  MISS:          0
cpu0_L2C TOTAL     ACCESS:    8203060  HIT:    6376596  MISS:    1826464
cpu0_L2C LOAD      ACCESS:    6400544  HIT:    5130586  MISS:    1269958
cpu0_L2C RFO       ACCESS:     808089  HIT:     254281  MISS:     553808
cpu0_L2C PREFETCH  ACCESS:          0  HIT:          0  MISS:          0
cpu0_L2C WRITEBACK ACCESS:     991898  HIT:     989545  MISS:       2353
LLC TOTAL     ACCESS:    2483571  HIT:      47573  MISS:    2435998
LLC LOAD      ACCESS:    1269935  HIT:      22039  MISS:    1247896
LLC RFO       ACCESS:     553802  HIT:       4491  MISS:     549311
LLC PREFETCH  ACCESS:          0  HIT:          0  MISS:          0
LLC WRITEBACK ACCESS:     659489  HIT:      21041  MISS:     638448
Finished CPU 0 instructions: 1500000001 cycles: 677589659 cumulative IPC: 2.21373 (Simulation time: 11 hr 48 min 29 sec) 

ChampSim completed all CPUs

Region of Interest Statistics

CPU 0 cumulative IPC: 2.21373 instructions: 1500000001 cycles: 677589659
cpu0_DTLB TOTAL     ACCESS:  192898237  HIT:  191285001  MISS:    1613236
cpu0_DTLB LOAD      ACCESS:  140249686  HIT:  139093374  MISS:    1156312
cpu0_DTLB RFO       ACCESS:   52648551  HIT:   52191627  MISS:     456924
cpu0_DTLB PREFETCH  ACCESS:          0  HIT:          0  MISS:          0
cpu0_DTLB WRITEBACK ACCESS:          0  HIT:          0  MISS:          0
cpu0_DTLB TRANSLATION ACCESS:          0  HIT:          0  MISS:          0
cpu0_DTLB PREFETCH  REQUESTED:          0  ISSUED:          0  USEFUL:          0  USELESS:          0
cpu0_DTLB AVERAGE MISS LATENCY: 11.3937 cycles
cpu0_ITLB TOTAL     ACCESS:   82336411  HIT:   82331019  MISS:       5392
cpu0_ITLB LOAD      ACCESS:   82336411  HIT:   82331019  MISS:       5392
cpu0_ITLB RFO       ACCESS:          0  HIT:          0  MISS:          0
cpu0_ITLB PREFETCH  ACCESS:          0  HIT:          0  MISS:          0
cpu0_ITLB WRITEBACK ACCESS:          0  HIT:          0  MISS:          0
cpu0_ITLB TRANSLATION ACCESS:          0  HIT:          0  MISS:          0
cpu0_ITLB PREFETCH  REQUESTED:          0  ISSUED:          0  USEFUL:          0  USELESS:          0
cpu0_ITLB AVERAGE MISS LATENCY: 14.4783 cycles
cpu0_L1I TOTAL     ACCESS:   56728174  HIT:   52465958  MISS:    4262216
cpu0_L1I LOAD      ACCESS:   56728174  HIT:   52465958  MISS:    4262216
cpu0_L1I RFO       ACCESS:          0  HIT:          0  MISS:          0
cpu0_L1I PREFETCH  ACCESS:          0  HIT:          0  MISS:          0
cpu0_L1I WRITEBACK ACCESS:          0  HIT:          0  MISS:          0
cpu0_L1I TRANSLATION ACCESS:          0  HIT:          0  MISS:          0
cpu0_L1I PREFETCH  REQUESTED:          0  ISSUED:          0  USEFUL:          0  USELESS:          0
cpu0_L1I AVERAGE MISS LATENCY: 12.456 cycles
cpu0_STLB TOTAL     ACCESS:    1618628  HIT:    1594444  MISS:      24184
cpu0_STLB LOAD      ACCESS:    1161704  HIT:    1146140  MISS:      15564
cpu0_STLB RFO       ACCESS:     456924  HIT:     448304  MISS:       8620
cpu0_STLB PREFETCH  ACCESS:          0  HIT:          0  MISS:          0
cpu0_STLB WRITEBACK ACCESS:          0  HIT:          0  MISS:          0
cpu0_STLB TRANSLATION ACCESS:          0  HIT:          0  MISS:          0
cpu0_STLB PREFETCH  REQUESTED:          0  ISSUED:          0  USEFUL:          0  USELESS:          0
cpu0_STLB AVERAGE MISS LATENCY: 157.92 cycles
cpu0_L1D TOTAL     ACCESS:  225041250  HIT:  222087634  MISS:    2953616
cpu0_L1D LOAD      ACCESS:  125507862  HIT:  123369479  MISS:    2138383
cpu0_L1D RFO       ACCESS:   99510499  HIT:   98697795  MISS:     812704
cpu0_L1D PREFETCH  ACCESS:          0  HIT:          0  MISS:          0
cpu0_L1D WRITEBACK ACCESS:          0  HIT:          0  MISS:          0
cpu0_L1D TRANSLATION ACCESS:      22889  HIT:      20360  MISS:       2529
cpu0_L1D PREFETCH  REQUESTED:          0  ISSUED:          0  USEFUL:          0  USELESS:          0
cpu0_L1D AVERAGE MISS LATENCY: 226.012 cycles
cpu0_L2C TOTAL     ACCESS:    8203060  HIT:    6376596  MISS:    1826464
cpu0_L2C LOAD      ACCESS:    6400544  HIT:    5130586  MISS:    1269958
cpu0_L2C RFO       ACCESS:     808089  HIT:     254281  MISS:     553808
cpu0_L2C PREFETCH  ACCESS:          0  HIT:          0  MISS:          0
cpu0_L2C WRITEBACK ACCESS:     991898  HIT:     989545  MISS:       2353
cpu0_L2C TRANSLATION ACCESS:       2529  HIT:       2184  MISS:        345
cpu0_L2C PREFETCH  REQUESTED:          0  ISSUED:          0  USEFUL:          0  USELESS:          0
cpu0_L2C AVERAGE MISS LATENCY: 350.95 cycles
LLC TOTAL     ACCESS:    2483571  HIT:      47573  MISS:    2435998
LLC LOAD      ACCESS:    1269935  HIT:      22039  MISS:    1247896
LLC RFO       ACCESS:     553802  HIT:       4491  MISS:     549311
LLC PREFETCH  ACCESS:          0  HIT:          0  MISS:          0
LLC WRITEBACK ACCESS:     659489  HIT:      21041  MISS:     638448
LLC TRANSLATION ACCESS:        345  HIT:          2  MISS:        343
LLC PREFETCH  REQUESTED:          0  ISSUED:          0  USEFUL:          0  USELESS:          0
LLC AVERAGE MISS LATENCY: 247.411 cycles
~~~~~~~~~~Reuse Distance Profiler output~~~~~~~~~~
0	0	0
1	0	0
2	0	0
3	0	0
4	0	0
5	0	0
6	0	0
7	0	0
8	0	0
9	0	0
10	0	0
11	0	0
12	0	0
13	0	0
14	0	0
15	0	0
16	0	0
17	0	0
18	0	0
19	0	0
20	0	0
21	0	0
22	0	0
23	0	0
24	0	0
25	0	0
26	0	0
27	0	0
28	0	0
29	0	0
30	0	0
31	0	0
32	0	0
33	0	0
34	0	0
35	0	0
36	0	0
37	0	0
38	0	0
39	0	0
40	0	0
41	0	0
42	0	0
43	0	0
44	0	0
45	0	0
46	0	0
47	0	0
48	0	0
49	0	0
50	0	0
51	0	0
52	0	0
53	0	0
54	0	0
55	0	0
56	0	0
57	0	0
58	0	0
59	0	0
60	0	0
61	0	0
62	0	0
63	0	0
64	0	0
66	0	0
68	0	0
70	0	0
72	0	0
74	0	0
76	0	0
78	0	0
80	0	0
82	0	0
84	0	0
86	0	0
88	0	0
90	0	0
92	0	0
94	0	0
96	0	0
98	0	0
100	0	0
102	0	0
104	0	0
106	0	0
108	0	0
110	0	0
112	0	0
114	0	0
116	0	0
118	0	0
120	0	0
122	0	0
124	0	0
126	0	0
128	0	0
132	0	0
136	0	0
140	0	0
144	0	0
148	0	0
152	0	0
156	0	0
160	0	0
164	0	0
168	0	0
172	0	0
176	0	0
180	0	0
184	0	0
188	0	0
192	0	0
196	0	0
200	0	0
204	0	0
208	0	0
212	0	0
216	0	0
220	0	0
224	0	0
228	0	0
232	0	0
236	0	0
240	0	0
244	0	0
248	0	0
252	0	0
256	0	0
264	0	0
272	0	0
280	0	0
288	0	0
296	0	0
304	0	0
312	0	0
320	0	0
328	0	0
336	0	0
344	0	0
352	0	0
360	0	0
368	0	0
376	0	0
384	0	0
392	0	0
400	0	0
408	0	0
416	0	0
424	0	0
432	0	0
440	0	0
448	0	0
456	0	0
464	0	0
472	0	0
480	0	0
488	0	0
496	0	0
504	0	0
512	0	0
528	0	0
544	0	0
560	0	0
576	0	0
592	0	0
608	0	0
624	0	0
640	0	0
656	0	0
672	0	0
688	0	0
704	0	0
720	0	0
736	0	0
752	0	0
768	0	0
784	0	0
800	0	0
816	0	0
832	0	0
848	0	0
864	0	0
880	0	0
896	0	0
912	0	0
928	0	0
944	0	0
960	0	0
976	0	0
992	0	0
1008	0	0
1024	0	0
1056	0	0
1088	0	0
1120	0	0
1152	0	0
1184	0	0
1216	0	0
1248	0	0
1280	0	0
1312	0	0
1344	0	0
1376	0	0
1408	0	0
1440	0	0
1472	0	0
1504	0	0
1536	0	0
1568	0	0
1600	0	0
1632	0	0
1664	0	0
1696	0	0
1728	0	0
1760	0	0
1792	0	0
1824	0	0
1856	0	0
1888	0	0
1920	0	0
1952	0	0
1984	0	0
2016	0	0
2048	0	0
2112	0	0
2176	0	0
2240	0	0
2304	0	0
2368	0	0
2432	0	0
2496	0	0
2560	0	0
2624	0	0
2688	0	0
2752	0	0
2816	0	0
2880	0	0
2944	0	0
3008	0	0
3072	0	0
3136	0	0
3200	0	0
3264	0	0
3328	0	0
3392	0	0
3456	0	0
3520	0	0
3584	0	0
3648	0	0
3712	0	0
3776	0	0
3840	0	0
3904	0	0
3968	0	0
4032	0	0
4096	0	0
4224	0	0
4352	0	0
4480	0	0
4608	0	0
4736	0	0
4864	0	0
4992	0	0
5120	0	0
5248	0	0
5376	0	0
5504	0	0
5632	0	0
5760	0	0
5888	0	0
6016	0	0
6144	0	0
6272	0	0
6400	0	0
6528	0	0
6656	0	0
6784	0	0
6912	0	0
7040	0	0
7168	0	0
7296	0	0
7424	0	0
7552	0	0
7680	0	0
7808	0	0
7936	0	0
8064	0	0
8192	0	0
8448	0	0
8704	0	0
8960	0	0
9216	0	0
9472	0	0
9728	0	0
9984	0	0
10240	0	0
10496	0	0
10752	0	0
11008	0	0
11264	0	0
11520	0	0
11776	0	0
12032	0	0
12288	0	0
12544	0	0
12800	0	0
13056	0	0
13312	0	0
13568	0	0
13824	0	0
14080	0	0
14336	0	0
14592	0	0
14848	0	0
15104	0	0
15360	0	0
15616	0	0
15872	0	0
16128	0	0
16384	0	0
16896	0	0
17408	0	0
17920	0	0
18432	0	0
18944	0	0
19456	0	0
19968	0	0
20480	0	0
20992	0	0
21504	0	0
22016	0	0
22528	0	0
23040	0	0
23552	0	0
24064	0	0
24576	0	0
25088	0	0
25600	0	0
26112	0	0
26624	0	0
27136	0	0
27648	0	0
28160	0	0
28672	0	0
29184	0	0
29696	0	0
30208	0	0
30720	0	0
31232	0	0
31744	0	0
32256	0	0
32768	0	0
33792	0	0
34816	0	0
35840	0	0
36864	0	0
37888	0	0
38912	0	0
39936	0	0
40960	0	0
41984	0	0
43008	0	0
44032	0	0
45056	0	0
46080	0	0
47104	0	0
48128	0	0
49152	0	0
50176	0	0
51200	0	0
52224	0	0
53248	0	0
54272	0	0
55296	0	0
56320	0	0
57344	0	0
58368	0	0
59392	0	0
60416	0	0
61440	0	0
62464	0	0
63488	0	0
64512	0	0
65536	0	0
67584	0	0
69632	0	0
71680	0	0
73728	0	0
75776	0	0
77824	0	0
79872	0	0
81920	0	0
83968	0	0
86016	0	0
88064	0	0
90112	0	0
92160	0	0
94208	0	0
96256	0	0
98304	0	0
100352	0	0
102400	0	0
104448	0	0
106496	0	0
108544	0	0
110592	0	0
112640	0	0
114688	0	0
116736	0	0
118784	0	0
120832	0	0
122880	0	0
124928	0	0
126976	0	0
129024	0	0
131072	0	0
135168	0	0
139264	0	0
143360	0	0
147456	0	0
151552	0	0
155648	0	0
159744	0	0
163840	0	0
167936	0	0
172032	0	0
176128	0	0
180224	0	0
184320	0	0
188416	0	0
192512	0	0
196608	0	0
200704	0	0
204800	0	0
208896	0	0
212992	0	0
217088	0	0
221184	0	0
225280	0	0
229376	0	0
233472	0	0
237568	0	0
241664	0	0
245760	0	0
249856	0	0
253952	0	0
258048	0	0
262144	0	0
270336	0	0
278528	0	0
286720	0	0
294912	0	0
303104	0	0
311296	0	0
319488	0	0
327680	0	0
335872	0	0
344064	0	0
352256	0	0
360448	0	0
368640	0	0
376832	0	0
385024	0	0
393216	0	0
401408	0	0
409600	0	0
417792	0	0
425984	0	0
434176	0	0
442368	0	0
450560	0	0
458752	0	0
466944	0	0
475136	0	0
483328	0	0
491520	0	0
499712	0	0
507904	0	0
516096	0	0
524288	0	0
540672	0	0
557056	0	0
573440	0	0
589824	0	0
606208	0	0
622592	0	0
638976	0	0
655360	0	0
671744	0	0
688128	0	0
704512	0	0
720896	0	0
737280	0	0
753664	0	0
770048	0	0
786432	0	0
802816	0	0
819200	0	0
835584	0	0
851968	0	0
868352	0	0
884736	0	0
901120	0	0
917504	0	0
933888	0	0
950272	0	0
966656	0	0
983040	0	0
999424	0	0
1015808	0	0
1032192	0	0
1048576	0	0
1081344	0	0
1114112	0	0
1146880	0	0
1179648	0	0
1212416	0	0
1245184	0	0
1277952	0	0
1310720	0	0
1343488	0	0
1376256	0	0
1409024	0	0
1441792	0	0
1474560	0	0
1507328	0	0
1540096	0	0
1572864	0	0
1605632	0	0
1638400	0	0
1671168	0	0
1703936	0	0
1736704	0	0
1769472	0	0
1802240	0	0
1835008	0	0
1867776	0	0
1900544	0	0
1933312	0	0
1966080	0	0
1998848	0	0
2031616	0	0
2064384	0	0
2097152	0	0
2162688	0	0
2228224	0	0
2293760	0	0
2359296	0	0
2424832	0	0
2490368	0	0
2555904	0	0
2621440	0	0
2686976	0	0
2752512	0	0
2818048	0	0
2883584	0	0
2949120	0	0
3014656	0	0
3080192	0	0
3145728	0	0
3211264	0	0
3276800	0	0
3342336	0	0
3407872	0	0
3473408	0	0
3538944	0	0
3604480	0	0
3670016	0	0
3735552	0	0
3801088	0	0
3866624	0	0
3932160	0	0
3997696	0	0
4063232	0	0
4128768	0	0
4194304	0	0
4325376	0	0
4456448	0	0
4587520	0	0
4718592	0	0
4849664	0	0
4980736	0	0
5111808	0	0
5242880	0	0
5373952	0	0
5505024	0	0
5636096	0	0
5767168	0	0
5898240	0	0
6029312	0	0
6160384	0	0
6291456	0	0
6422528	0	0
6553600	0	0
6684672	0	0
6815744	0	0
6946816	0	0
7077888	0	0
7208960	0	0
7340032	0	0
7471104	0	0
7602176	0	0
7733248	0	0
7864320	0	0
7995392	0	0
8126464	0	0
8257536	0	0
8388608	0	0
8650752	0	0
8912896	0	0
9175040	0	0
9437184	0	0
9699328	0	0
9961472	0	0
10223616	0	0
10485760	0	0
10747904	0	0
11010048	0	0
11272192	0	0
11534336	0	0
11796480	0	0
12058624	0	0
12320768	0	0
12582912	0	0
12845056	0	0
13107200	0	0
13369344	0	0
13631488	0	0
13893632	0	0
14155776	0	0
14417920	0	0
14680064	0	0
14942208	0	0
15204352	0	0
15466496	0	0
15728640	0	0
15990784	0	0
16252928	0	0
16515072	0	0
16777216	0	0
17301504	0	0
17825792	0	0
18350080	0	0
18874368	0	0
19398656	0	0
19922944	0	0
20447232	0	0
20971520	0	0
21495808	0	0
22020096	0	0
22544384	0	0
23068672	0	0
23592960	0	0
24117248	0	0
24641536	0	0
25165824	0	0
25690112	0	0
26214400	0	0
26738688	0	0
27262976	0	0
27787264	0	0
28311552	0	0
28835840	0	0
29360128	0	0
29884416	0	0
30408704	0	0
30932992	0	0
31457280	0	0
31981568	0	0
32505856	0	0
33030144	0	0
33554432	0	0
34603008	0	0
35651584	0	0
36700160	0	0
37748736	0	0
38797312	0	0
39845888	0	0
40894464	0	0
41943040	0	0
42991616	0	0
44040192	0	0
45088768	0	0
46137344	0	0
47185920	0	0
48234496	0	0
49283072	0	0
50331648	0	0
51380224	0	0
52428800	0	0
53477376	0	0
54525952	0	0
55574528	0	0
56623104	0	0
57671680	0	0
58720256	0	0
59768832	0	0
60817408	0	0
61865984	0	0
62914560	0	0
63963136	0	0
65011712	0	0
66060288	0	0
67108864	0	0
69206016	0	0
71303168	0	0
73400320	0	0
75497472	0	0
77594624	0	0
79691776	0	0
81788928	0	0
83886080	0	0
85983232	0	0
88080384	0	0
90177536	0	0
92274688	0	0
94371840	0	0
96468992	0	0
98566144	0	0
100663296	0	0
102760448	0	0
104857600	0	0
106954752	0	0
109051904	0	0
111149056	0	0
113246208	0	0
115343360	0	0
117440512	0	0
119537664	0	0
121634816	0	0
123731968	0	0
125829120	0	0
127926272	0	0
130023424	0	0
132120576	0	0
134217728	0	0
138412032	0	0
142606336	0	0
146800640	0	0
150994944	0	0
155189248	0	0
159383552	0	0
163577856	0	0
167772160	0	0
171966464	0	0
176160768	0	0
180355072	0	0
184549376	0	0
188743680	0	0
192937984	0	0
197132288	0	0
201326592	0	0
205520896	0	0
209715200	0	0
213909504	0	0
218103808	0	0
222298112	0	0
226492416	0	0
230686720	0	0
234881024	0	0
239075328	0	0
243269632	0	0
247463936	0	0
251658240	0	0
255852544	0	0
260046848	0	0
264241152	0	0
268435456	0	0
276824064	0	0
285212672	0	0
293601280	0	0
301989888	0	0
310378496	0	0
318767104	0	0
327155712	0	0
335544320	0	0
343932928	0	0
352321536	0	0
360710144	0	0
369098752	0	0
377487360	0	0
385875968	0	0
394264576	0	0
402653184	0	0
411041792	0	0
419430400	0	0
427819008	0	0
436207616	0	0
444596224	0	0
452984832	0	0
461373440	0	0
469762048	0	0
478150656	0	0
486539264	0	0
494927872	0	0
503316480	0	0
511705088	0	0
520093696	0	0
528482304	0	0
536870912	0	0
553648128	0	0
570425344	0	0
587202560	0	0
603979776	0	0
620756992	0	0
637534208	0	0
654311424	0	0
671088640	0	0
687865856	0	0
704643072	0	0
721420288	0	0
738197504	0	0
754974720	0	0
771751936	0	0
788529152	0	0
805306368	0	0
822083584	0	0
838860800	0	0
855638016	0	0
872415232	0	0
889192448	0	0
905969664	0	0
922746880	0	0
939524096	0	0
956301312	0	0
973078528	0	0
989855744	0	0
1006632960	0	0
1023410176	0	0
1040187392	0	0
1056964608	0	0
1073741824	0	0
1107296256	0	0
1140850688	0	0
1174405120	0	0
1207959552	0	0
1241513984	0	0
1275068416	0	0
1308622848	0	0
1342177280	0	0
1375731712	0	0
1409286144	0	0
1442840576	0	0
1476395008	0	0
1509949440	0	0
1543503872	0	0
1577058304	0	0
1610612736	0	0
1644167168	0	0
1677721600	0	0
1711276032	0	0
1744830464	0	0
1778384896	0	0
1811939328	0	0
1845493760	0	0
1879048192	0	0
1912602624	0	0
1946157056	0	0
1979711488	0	0
2013265920	0	0
2046820352	0	0
2080374784	0	0
2113929216	0	0
2147483648	0	0
2214592512	0	0
2281701376	0	0
2348810240	0	0
2415919104	0	0
2483027968	0	0
2550136832	0	0
2617245696	0	0
2684354560	0	0
2751463424	0	0
2818572288	0	0
2885681152	0	0
2952790016	0	0
3019898880	0	0
3087007744	0	0
3154116608	0	0
3221225472	0	0
3288334336	0	0
3355443200	0	0
3422552064	0	0
3489660928	0	0
3556769792	0	0
3623878656	0	0
3690987520	0	0
3758096384	0	0
3825205248	0	0
3892314112	0	0
3959422976	0	0
4026531840	0	0
4093640704	0	0
4160749568	0	0
4227858432	0	0
~~~~~~~~~~Reuse Distance Profiler output end~~~~~~~~~~


DRAM Statistics
 CHANNEL 0
 RQ ROW_BUFFER_HIT:     129407  ROW_BUFFER_MISS:    1668089
 DBUS AVG_CONGESTED_CYCLE:    3.94197
 WQ ROW_BUFFER_HIT:     105311  ROW_BUFFER_MISS:     553674  FULL:          0


CPU 0 Branch Prediction Accuracy: 86.2373% MPKI: 5.69618 Average ROB Occupancy at Mispredict: 89.0322
Branch type MPKI
BRANCH_DIRECT_JUMP: 0.000114
BRANCH_INDIRECT: 0.00154467
BRANCH_CONDITIONAL: 5.59207
BRANCH_DIRECT_CALL: 0.000199333
BRANCH_INDIRECT_CALL: 0.0317653
BRANCH_RETURN: 0.070492

