
*** ChampSim Multicore Out-of-Order Simulator ***

Warmup Instructions: 50000000
Simulation Instructions: 1500000000
Number of CPUs: 1
Off-chip DRAM Size: 4 GiB Channels: 1 Width: 64-bit Data Rate: 3200 MT/s

VirtualMemory physical capacity: 8588881920 num_ppages: 2096895
VirtualMemory page size: 4096 log2_page_size: 12

CPU 0 runs traces/628.pop2_s-17B.champsimtrace.xz
CPU 0 Bimodal branch predictor
Basic BTB sets: 1024 ways: 8 indirect buffer size: 4096 RAS size: 64
Initializing LRU.
Initializing LRU.
Initializing LRU.
Initializing LRU.
Initializing rdLRU.
Initializing LRU.
Initializing LRU.
Heartbeat CPU 0 instructions: 2000000 cycles: 562089 heartbeat IPC: 3.55816 cumulative IPC: 3.55816 (Simulation time: 0 hr 1 min 17 sec) 
Heartbeat CPU 0 instructions: 4000003 cycles: 1124497 heartbeat IPC: 3.55614 cumulative IPC: 3.55715 (Simulation time: 0 hr 2 min 11 sec) 
Heartbeat CPU 0 instructions: 6000000 cycles: 1683078 heartbeat IPC: 3.5805 cumulative IPC: 3.5649 (Simulation time: 0 hr 3 min 12 sec) 
Heartbeat CPU 0 instructions: 8000003 cycles: 2253675 heartbeat IPC: 3.50511 cumulative IPC: 3.54976 (Simulation time: 0 hr 4 min 22 sec) 
Heartbeat CPU 0 instructions: 10000000 cycles: 2813131 heartbeat IPC: 3.5749 cumulative IPC: 3.55476 (Simulation time: 0 hr 5 min 31 sec) 
Heartbeat CPU 0 instructions: 12000000 cycles: 3375519 heartbeat IPC: 3.55626 cumulative IPC: 3.55501 (Simulation time: 0 hr 6 min 39 sec) 
Heartbeat CPU 0 instructions: 14000002 cycles: 3935911 heartbeat IPC: 3.56893 cumulative IPC: 3.55699 (Simulation time: 0 hr 7 min 44 sec) 
Heartbeat CPU 0 instructions: 16000001 cycles: 4495713 heartbeat IPC: 3.57269 cumulative IPC: 3.55895 (Simulation time: 0 hr 8 min 55 sec) 
Heartbeat CPU 0 instructions: 18000003 cycles: 5066925 heartbeat IPC: 3.50133 cumulative IPC: 3.55245 (Simulation time: 0 hr 10 min 2 sec) 
Heartbeat CPU 0 instructions: 20000002 cycles: 5625743 heartbeat IPC: 3.57898 cumulative IPC: 3.55509 (Simulation time: 0 hr 10 min 54 sec) 
Heartbeat CPU 0 instructions: 22000002 cycles: 6188188 heartbeat IPC: 3.5559 cumulative IPC: 3.55516 (Simulation time: 0 hr 11 min 46 sec) 
Heartbeat CPU 0 instructions: 24000003 cycles: 6746612 heartbeat IPC: 3.58151 cumulative IPC: 3.55734 (Simulation time: 0 hr 12 min 31 sec) 
Heartbeat CPU 0 instructions: 26000000 cycles: 7308432 heartbeat IPC: 3.55985 cumulative IPC: 3.55753 (Simulation time: 0 hr 13 min 29 sec) 
Heartbeat CPU 0 instructions: 28000002 cycles: 7879378 heartbeat IPC: 3.50296 cumulative IPC: 3.55358 (Simulation time: 0 hr 13 min 59 sec) 
Heartbeat CPU 0 instructions: 30000004 cycles: 8437700 heartbeat IPC: 3.58217 cumulative IPC: 3.55547 (Simulation time: 0 hr 14 min 51 sec) 
Heartbeat CPU 0 instructions: 32000000 cycles: 9000318 heartbeat IPC: 3.5548 cumulative IPC: 3.55543 (Simulation time: 0 hr 15 min 46 sec) 
Heartbeat CPU 0 instructions: 34000002 cycles: 9558716 heartbeat IPC: 3.58168 cumulative IPC: 3.55696 (Simulation time: 0 hr 16 min 32 sec) 
Heartbeat CPU 0 instructions: 36000000 cycles: 10120258 heartbeat IPC: 3.56162 cumulative IPC: 3.55722 (Simulation time: 0 hr 17 min 26 sec) 
Heartbeat CPU 0 instructions: 38000002 cycles: 10690764 heartbeat IPC: 3.50566 cumulative IPC: 3.55447 (Simulation time: 0 hr 18 min 22 sec) 
Heartbeat CPU 0 instructions: 40000003 cycles: 11248261 heartbeat IPC: 3.58747 cumulative IPC: 3.55611 (Simulation time: 0 hr 19 min 10 sec) 
Heartbeat CPU 0 instructions: 42000001 cycles: 11810154 heartbeat IPC: 3.55939 cumulative IPC: 3.55626 (Simulation time: 0 hr 19 min 55 sec) 
Heartbeat CPU 0 instructions: 44000001 cycles: 12369123 heartbeat IPC: 3.57802 cumulative IPC: 3.55725 (Simulation time: 0 hr 20 min 42 sec) 
Heartbeat CPU 0 instructions: 46000003 cycles: 12929697 heartbeat IPC: 3.56778 cumulative IPC: 3.5577 (Simulation time: 0 hr 21 min 36 sec) 
Heartbeat CPU 0 instructions: 48000000 cycles: 13500344 heartbeat IPC: 3.50479 cumulative IPC: 3.55546 (Simulation time: 0 hr 22 min 34 sec) 
Heartbeat CPU 0 instructions: 50000001 cycles: 14057792 heartbeat IPC: 3.58778 cumulative IPC: 3.55675 (Simulation time: 0 hr 23 min 26 sec) 

Warmup complete CPU 0 instructions: 50000001 cycles: 14057792 (Simulation time: 0 hr 23 min 26 sec) 

Heartbeat CPU 0 instructions: 52000004 cycles: 15538812 heartbeat IPC: 1.35042 cumulative IPC: 1.35042 (Simulation time: 0 hr 24 min 53 sec) 

Region of Interest Statistics
cpu0_DTLB TOTAL     ACCESS:     405194  HIT:     403651  MISS:       1543
cpu0_DTLB LOAD      ACCESS:     321861  HIT:     320524  MISS:       1337
cpu0_DTLB RFO       ACCESS:      83333  HIT:      83127  MISS:        206
cpu0_DTLB PREFETCH  ACCESS:          0  HIT:          0  MISS:          0
cpu0_DTLB WRITEBACK ACCESS:          0  HIT:          0  MISS:          0
cpu0_ITLB TOTAL     ACCESS:     163707  HIT:     163622  MISS:         85
cpu0_ITLB LOAD      ACCESS:     163707  HIT:     163622  MISS:         85
cpu0_ITLB RFO       ACCESS:          0  HIT:          0  MISS:          0
cpu0_ITLB PREFETCH  ACCESS:          0  HIT:          0  MISS:          0
cpu0_ITLB WRITEBACK ACCESS:          0  HIT:          0  MISS:          0
cpu0_L1I TOTAL     ACCESS:      16435  HIT:      14377  MISS:       2058
cpu0_L1I LOAD      ACCESS:      16435  HIT:      14377  MISS:       2058
cpu0_L1I RFO       ACCESS:          0  HIT:          0  MISS:          0
cpu0_L1I PREFETCH  ACCESS:          0  HIT:          0  MISS:          0
cpu0_L1I WRITEBACK ACCESS:          0  HIT:          0  MISS:          0
cpu0_STLB TOTAL     ACCESS:       1628  HIT:       1542  MISS:         86
cpu0_STLB LOAD      ACCESS:       1422  HIT:       1340  MISS:         82
cpu0_STLB RFO       ACCESS:        206  HIT:        202  MISS:          4
cpu0_STLB PREFETCH  ACCESS:          0  HIT:          0  MISS:          0
cpu0_STLB WRITEBACK ACCESS:          0  HIT:          0  MISS:          0
cpu0_L1D TOTAL     ACCESS:     373219  HIT:     336112  MISS:      37107
cpu0_L1D LOAD      ACCESS:     249103  HIT:     222414  MISS:      26689
cpu0_L1D RFO       ACCESS:     124034  HIT:     113670  MISS:      10364
cpu0_L1D PREFETCH  ACCESS:          0  HIT:          0  MISS:          0
cpu0_L1D WRITEBACK ACCESS:          0  HIT:          0  MISS:          0
cpu0_L2C TOTAL     ACCESS:      53933  HIT:      38431  MISS:      15502
cpu0_L2C LOAD      ACCESS:      28735  HIT:      16772  MISS:      11963
cpu0_L2C RFO       ACCESS:      10364  HIT:       6855  MISS:       3509
cpu0_L2C PREFETCH  ACCESS:          0  HIT:          0  MISS:          0
cpu0_L2C WRITEBACK ACCESS:      14780  HIT:      14780  MISS:          0
LLC TOTAL     ACCESS:      20690  HIT:        497  MISS:      20193
LLC LOAD      ACCESS:      11963  HIT:        117  MISS:      11846
LLC RFO       ACCESS:       3509  HIT:        380  MISS:       3129
LLC PREFETCH  ACCESS:          0  HIT:          0  MISS:          0
LLC WRITEBACK ACCESS:       5188  HIT:          0  MISS:       5188
Heartbeat CPU 0 instructions: 54000003 cycles: 17197554 heartbeat IPC: 1.20573 cumulative IPC: 1.27398 (Simulation time: 0 hr 26 min 23 sec) 

Region of Interest Statistics
cpu0_DTLB TOTAL     ACCESS:     810138  HIT:     806957  MISS:       3181
cpu0_DTLB LOAD      ACCESS:     643435  HIT:     640694  MISS:       2741
cpu0_DTLB RFO       ACCESS:     166703  HIT:     166263  MISS:        440
cpu0_DTLB PREFETCH  ACCESS:          0  HIT:          0  MISS:          0
cpu0_DTLB WRITEBACK ACCESS:          0  HIT:          0  MISS:          0
cpu0_ITLB TOTAL     ACCESS:     322819  HIT:     322627  MISS:        192
cpu0_ITLB LOAD      ACCESS:     322819  HIT:     322627  MISS:        192
cpu0_ITLB RFO       ACCESS:          0  HIT:          0  MISS:          0
cpu0_ITLB PREFETCH  ACCESS:          0  HIT:          0  MISS:          0
cpu0_ITLB WRITEBACK ACCESS:          0  HIT:          0  MISS:          0
cpu0_L1I TOTAL     ACCESS:      38128  HIT:      33646  MISS:       4482
cpu0_L1I LOAD      ACCESS:      38128  HIT:      33646  MISS:       4482
cpu0_L1I RFO       ACCESS:          0  HIT:          0  MISS:          0
cpu0_L1I PREFETCH  ACCESS:          0  HIT:          0  MISS:          0
cpu0_L1I WRITEBACK ACCESS:          0  HIT:          0  MISS:          0
cpu0_STLB TOTAL     ACCESS:       3373  HIT:       3181  MISS:        192
cpu0_STLB LOAD      ACCESS:       2933  HIT:       2753  MISS:        180
cpu0_STLB RFO       ACCESS:        440  HIT:        428  MISS:         12
cpu0_STLB PREFETCH  ACCESS:          0  HIT:          0  MISS:          0
cpu0_STLB WRITEBACK ACCESS:          0  HIT:          0  MISS:          0
cpu0_L1D TOTAL     ACCESS:     745037  HIT:     668041  MISS:      76996
cpu0_L1D LOAD      ACCESS:     500253  HIT:     444530  MISS:      55723
cpu0_L1D RFO       ACCESS:     244603  HIT:     223452  MISS:      21151
cpu0_L1D PREFETCH  ACCESS:          0  HIT:          0  MISS:          0
cpu0_L1D WRITEBACK ACCESS:          0  HIT:          0  MISS:          0
cpu0_L2C TOTAL     ACCESS:     112051  HIT:      78908  MISS:      33143
cpu0_L2C LOAD      ACCESS:      60190  HIT:      34189  MISS:      26001
cpu0_L2C RFO       ACCESS:      21150  HIT:      14086  MISS:       7064
cpu0_L2C PREFETCH  ACCESS:          0  HIT:          0  MISS:          0
cpu0_L2C WRITEBACK ACCESS:      30589  HIT:      30588  MISS:          1
LLC TOTAL     ACCESS:      45033  HIT:        988  MISS:      44045
LLC LOAD      ACCESS:      26001  HIT:        278  MISS:      25723
LLC RFO       ACCESS:       7064  HIT:        710  MISS:       6354
LLC PREFETCH  ACCESS:          0  HIT:          0  MISS:          0
LLC WRITEBACK ACCESS:      11891  HIT:          0  MISS:      11891
Heartbeat CPU 0 instructions: 56000004 cycles: 18858157 heartbeat IPC: 1.20438 cumulative IPC: 1.24991 (Simulation time: 0 hr 28 min 4 sec) 

Region of Interest Statistics
cpu0_DTLB TOTAL     ACCESS:    1224412  HIT:    1219399  MISS:       5013
cpu0_DTLB LOAD      ACCESS:     975820  HIT:     971507  MISS:       4313
cpu0_DTLB RFO       ACCESS:     248592  HIT:     247892  MISS:        700
cpu0_DTLB PREFETCH  ACCESS:          0  HIT:          0  MISS:          0
cpu0_DTLB WRITEBACK ACCESS:          0  HIT:          0  MISS:          0
cpu0_ITLB TOTAL     ACCESS:     479981  HIT:     479683  MISS:        298
cpu0_ITLB LOAD      ACCESS:     479981  HIT:     479683  MISS:        298
cpu0_ITLB RFO       ACCESS:          0  HIT:          0  MISS:          0
cpu0_ITLB PREFETCH  ACCESS:          0  HIT:          0  MISS:          0
cpu0_ITLB WRITEBACK ACCESS:          0  HIT:          0  MISS:          0
cpu0_L1I TOTAL     ACCESS:      55663  HIT:      48877  MISS:       6786
cpu0_L1I LOAD      ACCESS:      55663  HIT:      48877  MISS:       6786
cpu0_L1I RFO       ACCESS:          0  HIT:          0  MISS:          0
cpu0_L1I PREFETCH  ACCESS:          0  HIT:          0  MISS:          0
cpu0_L1I WRITEBACK ACCESS:          0  HIT:          0  MISS:          0
cpu0_STLB TOTAL     ACCESS:       5311  HIT:       5014  MISS:        297
cpu0_STLB LOAD      ACCESS:       4611  HIT:       4334  MISS:        277
cpu0_STLB RFO       ACCESS:        700  HIT:        680  MISS:         20
cpu0_STLB PREFETCH  ACCESS:          0  HIT:          0  MISS:          0
cpu0_STLB WRITEBACK ACCESS:          0  HIT:          0  MISS:          0
cpu0_L1D TOTAL     ACCESS:    1116946  HIT:     998120  MISS:     118826
cpu0_L1D LOAD      ACCESS:     750940  HIT:     665742  MISS:      85198
cpu0_L1D RFO       ACCESS:     365727  HIT:     332291  MISS:      33436
cpu0_L1D PREFETCH  ACCESS:          0  HIT:          0  MISS:          0
cpu0_L1D WRITEBACK ACCESS:          0  HIT:          0  MISS:          0
cpu0_L2C TOTAL     ACCESS:     173574  HIT:     121540  MISS:      52034
cpu0_L2C LOAD      ACCESS:      91964  HIT:      51733  MISS:      40231
cpu0_L2C RFO       ACCESS:      33435  HIT:      21752  MISS:      11683
cpu0_L2C PREFETCH  ACCESS:          0  HIT:          0  MISS:          0
cpu0_L2C WRITEBACK ACCESS:      47983  HIT:      47981  MISS:          2
LLC TOTAL     ACCESS:      70705  HIT:       1658  MISS:      69047
LLC LOAD      ACCESS:      40231  HIT:        459  MISS:      39772
LLC RFO       ACCESS:      11683  HIT:       1199  MISS:      10484
LLC PREFETCH  ACCESS:          0  HIT:          0  MISS:          0
LLC WRITEBACK ACCESS:      18673  HIT:          0  MISS:      18673
Heartbeat CPU 0 instructions: 58000003 cycles: 20461526 heartbeat IPC: 1.24737 cumulative IPC: 1.24927 (Simulation time: 0 hr 29 min 35 sec) 

Region of Interest Statistics
cpu0_DTLB TOTAL     ACCESS:    1645025  HIT:    1638437  MISS:       6588
cpu0_DTLB LOAD      ACCESS:    1314560  HIT:    1308881  MISS:       5679
cpu0_DTLB RFO       ACCESS:     330465  HIT:     329556  MISS:        909
cpu0_DTLB PREFETCH  ACCESS:          0  HIT:          0  MISS:          0
cpu0_DTLB WRITEBACK ACCESS:          0  HIT:          0  MISS:          0
cpu0_ITLB TOTAL     ACCESS:     632831  HIT:     632443  MISS:        388
cpu0_ITLB LOAD      ACCESS:     632831  HIT:     632443  MISS:        388
cpu0_ITLB RFO       ACCESS:          0  HIT:          0  MISS:          0
cpu0_ITLB PREFETCH  ACCESS:          0  HIT:          0  MISS:          0
cpu0_ITLB WRITEBACK ACCESS:          0  HIT:          0  MISS:          0
cpu0_L1I TOTAL     ACCESS:      76538  HIT:      67406  MISS:       9132
cpu0_L1I LOAD      ACCESS:      76538  HIT:      67406  MISS:       9132
cpu0_L1I RFO       ACCESS:          0  HIT:          0  MISS:          0
cpu0_L1I PREFETCH  ACCESS:          0  HIT:          0  MISS:          0
cpu0_L1I WRITEBACK ACCESS:          0  HIT:          0  MISS:          0
cpu0_STLB TOTAL     ACCESS:       6976  HIT:       6594  MISS:        382
cpu0_STLB LOAD      ACCESS:       6067  HIT:       5710  MISS:        357
cpu0_STLB RFO       ACCESS:        909  HIT:        884  MISS:         25
cpu0_STLB PREFETCH  ACCESS:          0  HIT:          0  MISS:          0
cpu0_STLB WRITEBACK ACCESS:          0  HIT:          0  MISS:          0
cpu0_L1D TOTAL     ACCESS:    1507553  HIT:    1348013  MISS:     159540
cpu0_L1D LOAD      ACCESS:    1023138  HIT:     907743  MISS:     115395
cpu0_L1D RFO       ACCESS:     484056  HIT:     440158  MISS:      43898
cpu0_L1D PREFETCH  ACCESS:          0  HIT:          0  MISS:          0
cpu0_L1D WRITEBACK ACCESS:          0  HIT:          0  MISS:          0
cpu0_L2C TOTAL     ACCESS:     231517  HIT:     163061  MISS:      68456
cpu0_L2C LOAD      ACCESS:     124502  HIT:      71361  MISS:      53141
cpu0_L2C RFO       ACCESS:      43897  HIT:      28737  MISS:      15160
cpu0_L2C PREFETCH  ACCESS:          0  HIT:          0  MISS:          0
cpu0_L2C WRITEBACK ACCESS:      62871  HIT:      62869  MISS:          2
LLC TOTAL     ACCESS:      93197  HIT:       2067  MISS:      91130
LLC LOAD      ACCESS:      53141  HIT:        621  MISS:      52520
LLC RFO       ACCESS:      15160  HIT:       1446  MISS:      13714
LLC PREFETCH  ACCESS:          0  HIT:          0  MISS:          0
LLC WRITEBACK ACCESS:      24743  HIT:          0  MISS:      24743
Heartbeat CPU 0 instructions: 60000002 cycles: 22106777 heartbeat IPC: 1.21562 cumulative IPC: 1.24239 (Simulation time: 0 hr 31 min 7 sec) 

Region of Interest Statistics
cpu0_DTLB TOTAL     ACCESS:    2052403  HIT:    2044125  MISS:       8278
cpu0_DTLB LOAD      ACCESS:    1640673  HIT:    1633555  MISS:       7118
cpu0_DTLB RFO       ACCESS:     411730  HIT:     410570  MISS:       1160
cpu0_DTLB PREFETCH  ACCESS:          0  HIT:          0  MISS:          0
cpu0_DTLB WRITEBACK ACCESS:          0  HIT:          0  MISS:          0
cpu0_ITLB TOTAL     ACCESS:     787579  HIT:     787083  MISS:        496
cpu0_ITLB LOAD      ACCESS:     787579  HIT:     787083  MISS:        496
cpu0_ITLB RFO       ACCESS:          0  HIT:          0  MISS:          0
cpu0_ITLB PREFETCH  ACCESS:          0  HIT:          0  MISS:          0
cpu0_ITLB WRITEBACK ACCESS:          0  HIT:          0  MISS:          0
cpu0_L1I TOTAL     ACCESS:      97309  HIT:      85761  MISS:      11548
cpu0_L1I LOAD      ACCESS:      97309  HIT:      85761  MISS:      11548
cpu0_L1I RFO       ACCESS:          0  HIT:          0  MISS:          0
cpu0_L1I PREFETCH  ACCESS:          0  HIT:          0  MISS:          0
cpu0_L1I WRITEBACK ACCESS:          0  HIT:          0  MISS:          0
cpu0_STLB TOTAL     ACCESS:       8774  HIT:       8276  MISS:        498
cpu0_STLB LOAD      ACCESS:       7614  HIT:       7148  MISS:        466
cpu0_STLB RFO       ACCESS:       1160  HIT:       1128  MISS:         32
cpu0_STLB PREFETCH  ACCESS:          0  HIT:          0  MISS:          0
cpu0_STLB WRITEBACK ACCESS:          0  HIT:          0  MISS:          0
cpu0_L1D TOTAL     ACCESS:    1881032  HIT:    1680685  MISS:     200347
cpu0_L1D LOAD      ACCESS:    1275835  HIT:    1130957  MISS:     144878
cpu0_L1D RFO       ACCESS:     604729  HIT:     549579  MISS:      55150
cpu0_L1D PREFETCH  ACCESS:          0  HIT:          0  MISS:          0
cpu0_L1D WRITEBACK ACCESS:          0  HIT:          0  MISS:          0
cpu0_L2C TOTAL     ACCESS:     291064  HIT:     204945  MISS:      86119
cpu0_L2C LOAD      ACCESS:     156395  HIT:      89251  MISS:      67144
cpu0_L2C RFO       ACCESS:      55149  HIT:      36366  MISS:      18783
cpu0_L2C PREFETCH  ACCESS:          0  HIT:          0  MISS:          0
cpu0_L2C WRITEBACK ACCESS:      79201  HIT:      79199  MISS:          2
LLC TOTAL     ACCESS:     117357  HIT:       2471  MISS:     114886
LLC LOAD      ACCESS:      67144  HIT:        682  MISS:      66462
LLC RFO       ACCESS:      18783  HIT:       1789  MISS:      16994
LLC PREFETCH  ACCESS:          0  HIT:          0  MISS:          0
LLC WRITEBACK ACCESS:      31240  HIT:          0  MISS:      31240
Heartbeat CPU 0 instructions: 62000002 cycles: 23592814 heartbeat IPC: 1.34586 cumulative IPC: 1.25852 (Simulation time: 0 hr 32 min 40 sec) 

Region of Interest Statistics
cpu0_DTLB TOTAL     ACCESS:    2458797  HIT:    2448938  MISS:       9859
cpu0_DTLB LOAD      ACCESS:    1961908  HIT:    1953419  MISS:       8489
cpu0_DTLB RFO       ACCESS:     496889  HIT:     495519  MISS:       1370
cpu0_DTLB PREFETCH  ACCESS:          0  HIT:          0  MISS:          0
cpu0_DTLB WRITEBACK ACCESS:          0  HIT:          0  MISS:          0
cpu0_ITLB TOTAL     ACCESS:     950211  HIT:     949625  MISS:        586
cpu0_ITLB LOAD      ACCESS:     950211  HIT:     949625  MISS:        586
cpu0_ITLB RFO       ACCESS:          0  HIT:          0  MISS:          0
cpu0_ITLB PREFETCH  ACCESS:          0  HIT:          0  MISS:          0
cpu0_ITLB WRITEBACK ACCESS:          0  HIT:          0  MISS:          0
cpu0_L1I TOTAL     ACCESS:     113663  HIT:     100061  MISS:      13602
cpu0_L1I LOAD      ACCESS:     113663  HIT:     100061  MISS:      13602
cpu0_L1I RFO       ACCESS:          0  HIT:          0  MISS:          0
cpu0_L1I PREFETCH  ACCESS:          0  HIT:          0  MISS:          0
cpu0_L1I WRITEBACK ACCESS:          0  HIT:          0  MISS:          0
cpu0_STLB TOTAL     ACCESS:      10445  HIT:       9866  MISS:        579
cpu0_STLB LOAD      ACCESS:       9075  HIT:       8533  MISS:        542
cpu0_STLB RFO       ACCESS:       1370  HIT:       1333  MISS:         37
cpu0_STLB PREFETCH  ACCESS:          0  HIT:          0  MISS:          0
cpu0_STLB WRITEBACK ACCESS:          0  HIT:          0  MISS:          0
cpu0_L1D TOTAL     ACCESS:    2253384  HIT:    2015775  MISS:     237609
cpu0_L1D LOAD      ACCESS:    1523890  HIT:    1352433  MISS:     171457
cpu0_L1D RFO       ACCESS:     728949  HIT:     663171  MISS:      65778
cpu0_L1D PREFETCH  ACCESS:          0  HIT:          0  MISS:          0
cpu0_L1D WRITEBACK ACCESS:          0  HIT:          0  MISS:          0
cpu0_L2C TOTAL     ACCESS:     345313  HIT:     243578  MISS:     101735
cpu0_L2C LOAD      ACCESS:     185023  HIT:     106092  MISS:      78931
cpu0_L2C RFO       ACCESS:      65777  HIT:      43200  MISS:      22577
cpu0_L2C PREFETCH  ACCESS:          0  HIT:          0  MISS:          0
cpu0_L2C WRITEBACK ACCESS:      94139  HIT:      94137  MISS:          2
LLC TOTAL     ACCESS:     138844  HIT:       3043  MISS:     135801
LLC LOAD      ACCESS:      78931  HIT:        878  MISS:      78053
LLC RFO       ACCESS:      22577  HIT:       2165  MISS:      20412
LLC PREFETCH  ACCESS:          0  HIT:          0  MISS:          0
LLC WRITEBACK ACCESS:      37111  HIT:          0  MISS:      37111
Heartbeat CPU 0 instructions: 64000000 cycles: 25227374 heartbeat IPC: 1.22357 cumulative IPC: 1.2534 (Simulation time: 0 hr 34 min 19 sec) 

Region of Interest Statistics
cpu0_DTLB TOTAL     ACCESS:    2861440  HIT:    2850015  MISS:      11425
cpu0_DTLB LOAD      ACCESS:    2281743  HIT:    2271911  MISS:       9832
cpu0_DTLB RFO       ACCESS:     579697  HIT:     578104  MISS:       1593
cpu0_DTLB PREFETCH  ACCESS:          0  HIT:          0  MISS:          0
cpu0_DTLB WRITEBACK ACCESS:          0  HIT:          0  MISS:          0
cpu0_ITLB TOTAL     ACCESS:    1106124  HIT:    1105435  MISS:        689
cpu0_ITLB LOAD      ACCESS:    1106124  HIT:    1105435  MISS:        689
cpu0_ITLB RFO       ACCESS:          0  HIT:          0  MISS:          0
cpu0_ITLB PREFETCH  ACCESS:          0  HIT:          0  MISS:          0
cpu0_ITLB WRITEBACK ACCESS:          0  HIT:          0  MISS:          0
cpu0_L1I TOTAL     ACCESS:     134902  HIT:     118879  MISS:      16023
cpu0_L1I LOAD      ACCESS:     134902  HIT:     118879  MISS:      16023
cpu0_L1I RFO       ACCESS:          0  HIT:          0  MISS:          0
cpu0_L1I PREFETCH  ACCESS:          0  HIT:          0  MISS:          0
cpu0_L1I WRITEBACK ACCESS:          0  HIT:          0  MISS:          0
cpu0_STLB TOTAL     ACCESS:      12114  HIT:      11426  MISS:        688
cpu0_STLB LOAD      ACCESS:      10521  HIT:       9879  MISS:        642
cpu0_STLB RFO       ACCESS:       1593  HIT:       1547  MISS:         46
cpu0_STLB PREFETCH  ACCESS:          0  HIT:          0  MISS:          0
cpu0_STLB WRITEBACK ACCESS:          0  HIT:          0  MISS:          0
cpu0_L1D TOTAL     ACCESS:    2623121  HIT:    2345930  MISS:     277191
cpu0_L1D LOAD      ACCESS:    1776360  HIT:    1576251  MISS:     200109
cpu0_L1D RFO       ACCESS:     846114  HIT:     769473  MISS:      76641
cpu0_L1D PREFETCH  ACCESS:          0  HIT:          0  MISS:          0
cpu0_L1D WRITEBACK ACCESS:          0  HIT:          0  MISS:          0
cpu0_L2C TOTAL     ACCESS:     402846  HIT:     283574  MISS:     119272
cpu0_L2C LOAD      ACCESS:     216091  HIT:     123469  MISS:      92622
cpu0_L2C RFO       ACCESS:      76640  HIT:      50259  MISS:      26381
cpu0_L2C PREFETCH  ACCESS:          0  HIT:          0  MISS:          0
cpu0_L2C WRITEBACK ACCESS:     109674  HIT:     109672  MISS:          2
LLC TOTAL     ACCESS:     163234  HIT:       3537  MISS:     159697
LLC LOAD      ACCESS:      92622  HIT:       1004  MISS:      91618
LLC RFO       ACCESS:      26381  HIT:       2533  MISS:      23848
LLC PREFETCH  ACCESS:          0  HIT:          0  MISS:          0
LLC WRITEBACK ACCESS:      43964  HIT:          0  MISS:      43964
Heartbeat CPU 0 instructions: 66000003 cycles: 26853847 heartbeat IPC: 1.22966 cumulative IPC: 1.25039 (Simulation time: 0 hr 35 min 48 sec) 

Region of Interest Statistics
cpu0_DTLB TOTAL     ACCESS:    3278824  HIT:    3265605  MISS:      13219
cpu0_DTLB LOAD      ACCESS:    2615655  HIT:    2604288  MISS:      11367
cpu0_DTLB RFO       ACCESS:     663169  HIT:     661317  MISS:       1852
cpu0_DTLB PREFETCH  ACCESS:          0  HIT:          0  MISS:          0
cpu0_DTLB WRITEBACK ACCESS:          0  HIT:          0  MISS:          0
cpu0_ITLB TOTAL     ACCESS:    1260535  HIT:    1259740  MISS:        795
cpu0_ITLB LOAD      ACCESS:    1260535  HIT:    1259740  MISS:        795
cpu0_ITLB RFO       ACCESS:          0  HIT:          0  MISS:          0
cpu0_ITLB PREFETCH  ACCESS:          0  HIT:          0  MISS:          0
cpu0_ITLB WRITEBACK ACCESS:          0  HIT:          0  MISS:          0
cpu0_L1I TOTAL     ACCESS:     153531  HIT:     135219  MISS:      18312
cpu0_L1I LOAD      ACCESS:     153531  HIT:     135219  MISS:      18312
cpu0_L1I RFO       ACCESS:          0  HIT:          0  MISS:          0
cpu0_L1I PREFETCH  ACCESS:          0  HIT:          0  MISS:          0
cpu0_L1I WRITEBACK ACCESS:          0  HIT:          0  MISS:          0
cpu0_STLB TOTAL     ACCESS:      14014  HIT:      13227  MISS:        787
cpu0_STLB LOAD      ACCESS:      12162  HIT:      11430  MISS:        732
cpu0_STLB RFO       ACCESS:       1852  HIT:       1797  MISS:         55
cpu0_STLB PREFETCH  ACCESS:          0  HIT:          0  MISS:          0
cpu0_STLB WRITEBACK ACCESS:          0  HIT:          0  MISS:          0
cpu0_L1D TOTAL     ACCESS:    2996181  HIT:    2677230  MISS:     318951
cpu0_L1D LOAD      ACCESS:    2028013  HIT:    1798353  MISS:     229660
cpu0_L1D RFO       ACCESS:     967430  HIT:     878645  MISS:      88785
cpu0_L1D PREFETCH  ACCESS:          0  HIT:          0  MISS:          0
cpu0_L1D WRITEBACK ACCESS:          0  HIT:          0  MISS:          0
cpu0_L2C TOTAL     ACCESS:     464235  HIT:     326326  MISS:     137909
cpu0_L2C LOAD      ACCESS:     247928  HIT:     141254  MISS:     106674
cpu0_L2C RFO       ACCESS:      88784  HIT:      57855  MISS:      30929
cpu0_L2C PREFETCH  ACCESS:          0  HIT:          0  MISS:          0
cpu0_L2C WRITEBACK ACCESS:     127017  HIT:     127015  MISS:          2
LLC TOTAL     ACCESS:     188640  HIT:       4154  MISS:     184486
LLC LOAD      ACCESS:     106674  HIT:       1158  MISS:     105516
LLC RFO       ACCESS:      30929  HIT:       2996  MISS:      27933
LLC PREFETCH  ACCESS:          0  HIT:          0  MISS:          0
LLC WRITEBACK ACCESS:      50733  HIT:          0  MISS:      50733
Heartbeat CPU 0 instructions: 68000003 cycles: 28390814 heartbeat IPC: 1.30126 cumulative IPC: 1.25584 (Simulation time: 0 hr 37 min 10 sec) 

Region of Interest Statistics
cpu0_DTLB TOTAL     ACCESS:    3697666  HIT:    3682856  MISS:      14810
cpu0_DTLB LOAD      ACCESS:    2951075  HIT:    2938330  MISS:      12745
cpu0_DTLB RFO       ACCESS:     746591  HIT:     744526  MISS:       2065
cpu0_DTLB PREFETCH  ACCESS:          0  HIT:          0  MISS:          0
cpu0_DTLB WRITEBACK ACCESS:          0  HIT:          0  MISS:          0
cpu0_ITLB TOTAL     ACCESS:    1414484  HIT:    1413598  MISS:        886
cpu0_ITLB LOAD      ACCESS:    1414484  HIT:    1413598  MISS:        886
cpu0_ITLB RFO       ACCESS:          0  HIT:          0  MISS:          0
cpu0_ITLB PREFETCH  ACCESS:          0  HIT:          0  MISS:          0
cpu0_ITLB WRITEBACK ACCESS:          0  HIT:          0  MISS:          0
cpu0_L1I TOTAL     ACCESS:     173585  HIT:     152931  MISS:      20654
cpu0_L1I LOAD      ACCESS:     173585  HIT:     152931  MISS:      20654
cpu0_L1I RFO       ACCESS:          0  HIT:          0  MISS:          0
cpu0_L1I PREFETCH  ACCESS:          0  HIT:          0  MISS:          0
cpu0_L1I WRITEBACK ACCESS:          0  HIT:          0  MISS:          0
cpu0_STLB TOTAL     ACCESS:      15696  HIT:      14821  MISS:        875
cpu0_STLB LOAD      ACCESS:      13631  HIT:      12813  MISS:        818
cpu0_STLB RFO       ACCESS:       2065  HIT:       2008  MISS:         57
cpu0_STLB PREFETCH  ACCESS:          0  HIT:          0  MISS:          0
cpu0_STLB WRITEBACK ACCESS:          0  HIT:          0  MISS:          0
cpu0_L1D TOTAL     ACCESS:    3384253  HIT:    3024714  MISS:     359539
cpu0_L1D LOAD      ACCESS:    2295351  HIT:    2035912  MISS:     259439
cpu0_L1D RFO       ACCESS:    1088081  HIT:     988545  MISS:      99536
cpu0_L1D PREFETCH  ACCESS:          0  HIT:          0  MISS:          0
cpu0_L1D WRITEBACK ACCESS:          0  HIT:          0  MISS:          0
cpu0_L2C TOTAL     ACCESS:     522479  HIT:     368071  MISS:     154408
cpu0_L2C LOAD      ACCESS:     280043  HIT:     160496  MISS:     119547
cpu0_L2C RFO       ACCESS:      99535  HIT:      65012  MISS:      34523
cpu0_L2C PREFETCH  ACCESS:          0  HIT:          0  MISS:          0
cpu0_L2C WRITEBACK ACCESS:     142337  HIT:     142335  MISS:          2
LLC TOTAL     ACCESS:     211112  HIT:       4712  MISS:     206400
LLC LOAD      ACCESS:     119547  HIT:       1315  MISS:     118232
LLC RFO       ACCESS:      34523  HIT:       3397  MISS:      31126
LLC PREFETCH  ACCESS:          0  HIT:          0  MISS:          0
LLC WRITEBACK ACCESS:      56706  HIT:          0  MISS:      56706
Heartbeat CPU 0 instructions: 70000003 cycles: 29909524 heartbeat IPC: 1.31691 cumulative IPC: 1.26169 (Simulation time: 0 hr 38 min 46 sec) 

Region of Interest Statistics
cpu0_DTLB TOTAL     ACCESS:    4088748  HIT:    4072430  MISS:      16318
cpu0_DTLB LOAD      ACCESS:    3252886  HIT:    3238874  MISS:      14012
cpu0_DTLB RFO       ACCESS:     835862  HIT:     833556  MISS:       2306
cpu0_DTLB PREFETCH  ACCESS:          0  HIT:          0  MISS:          0
cpu0_DTLB WRITEBACK ACCESS:          0  HIT:          0  MISS:          0
cpu0_ITLB TOTAL     ACCESS:    1581704  HIT:    1580712  MISS:        992
cpu0_ITLB LOAD      ACCESS:    1581704  HIT:    1580712  MISS:        992
cpu0_ITLB RFO       ACCESS:          0  HIT:          0  MISS:          0
cpu0_ITLB PREFETCH  ACCESS:          0  HIT:          0  MISS:          0
cpu0_ITLB WRITEBACK ACCESS:          0  HIT:          0  MISS:          0
cpu0_L1I TOTAL     ACCESS:     192506  HIT:     169603  MISS:      22903
cpu0_L1I LOAD      ACCESS:     192506  HIT:     169603  MISS:      22903
cpu0_L1I RFO       ACCESS:          0  HIT:          0  MISS:          0
cpu0_L1I PREFETCH  ACCESS:          0  HIT:          0  MISS:          0
cpu0_L1I WRITEBACK ACCESS:          0  HIT:          0  MISS:          0
cpu0_STLB TOTAL     ACCESS:      17310  HIT:      16342  MISS:        968
cpu0_STLB LOAD      ACCESS:      15004  HIT:      14101  MISS:        903
cpu0_STLB RFO       ACCESS:       2306  HIT:       2241  MISS:         65
cpu0_STLB PREFETCH  ACCESS:          0  HIT:          0  MISS:          0
cpu0_STLB WRITEBACK ACCESS:          0  HIT:          0  MISS:          0
cpu0_L1D TOTAL     ACCESS:    3741808  HIT:    3346585  MISS:     395223
cpu0_L1D LOAD      ACCESS:    2527111  HIT:    2242850  MISS:     284261
cpu0_L1D RFO       ACCESS:    1213788  HIT:    1103445  MISS:     110343
cpu0_L1D PREFETCH  ACCESS:          0  HIT:          0  MISS:          0
cpu0_L1D WRITEBACK ACCESS:          0  HIT:          0  MISS:          0
cpu0_L2C TOTAL     ACCESS:     575890  HIT:     405814  MISS:     170076
cpu0_L2C LOAD      ACCESS:     307113  HIT:     175564  MISS:     131549
cpu0_L2C RFO       ACCESS:     110342  HIT:      72190  MISS:      38152
cpu0_L2C PREFETCH  ACCESS:          0  HIT:          0  MISS:          0
cpu0_L2C WRITEBACK ACCESS:     157816  HIT:     157814  MISS:          2
LLC TOTAL     ACCESS:     232884  HIT:       5253  MISS:     227631
LLC LOAD      ACCESS:     131549  HIT:       1432  MISS:     130117
LLC RFO       ACCESS:      38152  HIT:       3819  MISS:      34333
LLC PREFETCH  ACCESS:          0  HIT:          0  MISS:          0
LLC WRITEBACK ACCESS:      62810  HIT:          2  MISS:      62808
Heartbeat CPU 0 instructions: 72000002 cycles: 30848611 heartbeat IPC: 2.12973 cumulative IPC: 1.31024 (Simulation time: 0 hr 39 min 41 sec) 

Region of Interest Statistics
cpu0_DTLB TOTAL     ACCESS:    4454436  HIT:    4437343  MISS:      17093
cpu0_DTLB LOAD      ACCESS:    3528439  HIT:    3513782  MISS:      14657
cpu0_DTLB RFO       ACCESS:     925997  HIT:     923561  MISS:       2436
cpu0_DTLB PREFETCH  ACCESS:          0  HIT:          0  MISS:          0
cpu0_DTLB WRITEBACK ACCESS:          0  HIT:          0  MISS:          0
cpu0_ITLB TOTAL     ACCESS:    1756949  HIT:    1755913  MISS:       1036
cpu0_ITLB LOAD      ACCESS:    1756949  HIT:    1755913  MISS:       1036
cpu0_ITLB RFO       ACCESS:          0  HIT:          0  MISS:          0
cpu0_ITLB PREFETCH  ACCESS:          0  HIT:          0  MISS:          0
cpu0_ITLB WRITEBACK ACCESS:          0  HIT:          0  MISS:          0
cpu0_L1I TOTAL     ACCESS:     198572  HIT:     175024  MISS:      23548
cpu0_L1I LOAD      ACCESS:     198572  HIT:     175024  MISS:      23548
cpu0_L1I RFO       ACCESS:          0  HIT:          0  MISS:          0
cpu0_L1I PREFETCH  ACCESS:          0  HIT:          0  MISS:          0
cpu0_L1I WRITEBACK ACCESS:          0  HIT:          0  MISS:          0
cpu0_STLB TOTAL     ACCESS:      18129  HIT:      17079  MISS:       1050
cpu0_STLB LOAD      ACCESS:      15693  HIT:      14733  MISS:        960
cpu0_STLB RFO       ACCESS:       2436  HIT:       2346  MISS:         90
cpu0_STLB PREFETCH  ACCESS:          0  HIT:          0  MISS:          0
cpu0_STLB WRITEBACK ACCESS:          0  HIT:          0  MISS:          0
cpu0_L1D TOTAL     ACCESS:    4070802  HIT:    3652918  MISS:     417884
cpu0_L1D LOAD      ACCESS:    2732318  HIT:    2435548  MISS:     296770
cpu0_L1D RFO       ACCESS:    1337494  HIT:    1217047  MISS:     120447
cpu0_L1D PREFETCH  ACCESS:          0  HIT:          0  MISS:          0
cpu0_L1D WRITEBACK ACCESS:          0  HIT:          0  MISS:          0
cpu0_L2C TOTAL     ACCESS:     611617  HIT:     433694  MISS:     177923
cpu0_L2C LOAD      ACCESS:     320262  HIT:     183888  MISS:     136374
cpu0_L2C RFO       ACCESS:     120446  HIT:      79280  MISS:      41166
cpu0_L2C PREFETCH  ACCESS:          0  HIT:          0  MISS:          0
cpu0_L2C WRITEBACK ACCESS:     170242  HIT:     170240  MISS:          2
LLC TOTAL     ACCESS:     243875  HIT:       5549  MISS:     238326
LLC LOAD      ACCESS:     136374  HIT:       1521  MISS:     134853
LLC RFO       ACCESS:      41166  HIT:       4025  MISS:      37141
LLC PREFETCH  ACCESS:          0  HIT:          0  MISS:          0
LLC WRITEBACK ACCESS:      65954  HIT:          3  MISS:      65951
Heartbeat CPU 0 instructions: 74000004 cycles: 31572956 heartbeat IPC: 2.76112 cumulative IPC: 1.37024 (Simulation time: 0 hr 40 min 33 sec) 

Region of Interest Statistics
cpu0_DTLB TOTAL     ACCESS:    4807405  HIT:    4790208  MISS:      17197
cpu0_DTLB LOAD      ACCESS:    3789824  HIT:    3775105  MISS:      14719
cpu0_DTLB RFO       ACCESS:    1017581  HIT:    1015103  MISS:       2478
cpu0_DTLB PREFETCH  ACCESS:          0  HIT:          0  MISS:          0
cpu0_DTLB WRITEBACK ACCESS:          0  HIT:          0  MISS:          0
cpu0_ITLB TOTAL     ACCESS:    1938923  HIT:    1937887  MISS:       1036
cpu0_ITLB LOAD      ACCESS:    1938923  HIT:    1937887  MISS:       1036
cpu0_ITLB RFO       ACCESS:          0  HIT:          0  MISS:          0
cpu0_ITLB PREFETCH  ACCESS:          0  HIT:          0  MISS:          0
cpu0_ITLB WRITEBACK ACCESS:          0  HIT:          0  MISS:          0
cpu0_L1I TOTAL     ACCESS:     202108  HIT:     178560  MISS:      23548
cpu0_L1I LOAD      ACCESS:     202108  HIT:     178560  MISS:      23548
cpu0_L1I RFO       ACCESS:          0  HIT:          0  MISS:          0
cpu0_L1I PREFETCH  ACCESS:          0  HIT:          0  MISS:          0
cpu0_L1I WRITEBACK ACCESS:          0  HIT:          0  MISS:          0
cpu0_STLB TOTAL     ACCESS:      18233  HIT:      17120  MISS:       1113
cpu0_STLB LOAD      ACCESS:      15755  HIT:      14764  MISS:        991
cpu0_STLB RFO       ACCESS:       2478  HIT:       2356  MISS:        122
cpu0_STLB PREFETCH  ACCESS:          0  HIT:          0  MISS:          0
cpu0_STLB WRITEBACK ACCESS:          0  HIT:          0  MISS:          0
cpu0_L1D TOTAL     ACCESS:    4391501  HIT:    3957577  MISS:     433924
cpu0_L1D LOAD      ACCESS:    2933482  HIT:    2629144  MISS:     304338
cpu0_L1D RFO       ACCESS:    1456966  HIT:    1328089  MISS:     128877
cpu0_L1D PREFETCH  ACCESS:          0  HIT:          0  MISS:          0
cpu0_L1D WRITEBACK ACCESS:          0  HIT:          0  MISS:          0
cpu0_L2C TOTAL     ACCESS:     636661  HIT:     454677  MISS:     181984
cpu0_L2C LOAD      ACCESS:     327827  HIT:     189444  MISS:     138383
cpu0_L2C RFO       ACCESS:     128876  HIT:      85658  MISS:      43218
cpu0_L2C PREFETCH  ACCESS:          0  HIT:          0  MISS:          0
cpu0_L2C WRITEBACK ACCESS:     179249  HIT:     179247  MISS:          2
LLC TOTAL     ACCESS:     250013  HIT:       5549  MISS:     244464
LLC LOAD      ACCESS:     138383  HIT:       1521  MISS:     136862
LLC RFO       ACCESS:      43218  HIT:       4025  MISS:      39193
LLC PREFETCH  ACCESS:          0  HIT:          0  MISS:          0
LLC WRITEBACK ACCESS:      68031  HIT:          3  MISS:      68028
Heartbeat CPU 0 instructions: 76000004 cycles: 32298467 heartbeat IPC: 2.75668 cumulative IPC: 1.42539 (Simulation time: 0 hr 41 min 28 sec) 

Region of Interest Statistics
cpu0_DTLB TOTAL     ACCESS:    5158915  HIT:    5141621  MISS:      17294
cpu0_DTLB LOAD      ACCESS:    4050058  HIT:    4035281  MISS:      14777
cpu0_DTLB RFO       ACCESS:    1108857  HIT:    1106340  MISS:       2517
cpu0_DTLB PREFETCH  ACCESS:          0  HIT:          0  MISS:          0
cpu0_DTLB WRITEBACK ACCESS:          0  HIT:          0  MISS:          0
cpu0_ITLB TOTAL     ACCESS:    2120055  HIT:    2119019  MISS:       1036
cpu0_ITLB LOAD      ACCESS:    2120055  HIT:    2119019  MISS:       1036
cpu0_ITLB RFO       ACCESS:          0  HIT:          0  MISS:          0
cpu0_ITLB PREFETCH  ACCESS:          0  HIT:          0  MISS:          0
cpu0_ITLB WRITEBACK ACCESS:          0  HIT:          0  MISS:          0
cpu0_L1I TOTAL     ACCESS:     205665  HIT:     182117  MISS:      23548
cpu0_L1I LOAD      ACCESS:     205665  HIT:     182117  MISS:      23548
cpu0_L1I RFO       ACCESS:          0  HIT:          0  MISS:          0
cpu0_L1I PREFETCH  ACCESS:          0  HIT:          0  MISS:          0
cpu0_L1I WRITEBACK ACCESS:          0  HIT:          0  MISS:          0
cpu0_STLB TOTAL     ACCESS:      18330  HIT:      17156  MISS:       1174
cpu0_STLB LOAD      ACCESS:      15813  HIT:      14791  MISS:       1022
cpu0_STLB RFO       ACCESS:       2517  HIT:       2365  MISS:        152
cpu0_STLB PREFETCH  ACCESS:          0  HIT:          0  MISS:          0
cpu0_STLB WRITEBACK ACCESS:          0  HIT:          0  MISS:          0
cpu0_L1D TOTAL     ACCESS:    4710708  HIT:    4260826  MISS:     449882
cpu0_L1D LOAD      ACCESS:    3132753  HIT:    2820927  MISS:     311826
cpu0_L1D RFO       ACCESS:    1576841  HIT:    1439535  MISS:     137306
cpu0_L1D PREFETCH  ACCESS:          0  HIT:          0  MISS:          0
cpu0_L1D WRITEBACK ACCESS:          0  HIT:          0  MISS:          0
cpu0_L2C TOTAL     ACCESS:     661747  HIT:     475858  MISS:     185889
cpu0_L2C LOAD      ACCESS:     335315  HIT:     194976  MISS:     140339
cpu0_L2C RFO       ACCESS:     137304  HIT:      92142  MISS:      45162
cpu0_L2C PREFETCH  ACCESS:          0  HIT:          0  MISS:          0
cpu0_L2C WRITEBACK ACCESS:     188378  HIT:     188371  MISS:          7
LLC TOTAL     ACCESS:     256035  HIT:       5549  MISS:     250486
LLC LOAD      ACCESS:     140339  HIT:       1521  MISS:     138818
LLC RFO       ACCESS:      45162  HIT:       4025  MISS:      41137
LLC PREFETCH  ACCESS:          0  HIT:          0  MISS:          0
LLC WRITEBACK ACCESS:      70153  HIT:          3  MISS:      70150
Heartbeat CPU 0 instructions: 78000003 cycles: 33234953 heartbeat IPC: 2.13564 cumulative IPC: 1.46007 (Simulation time: 0 hr 42 min 31 sec) 

Region of Interest Statistics
cpu0_DTLB TOTAL     ACCESS:    5552750  HIT:    5535161  MISS:      17589
cpu0_DTLB LOAD      ACCESS:    4367593  HIT:    4352588  MISS:      15005
cpu0_DTLB RFO       ACCESS:    1185157  HIT:    1182573  MISS:       2584
cpu0_DTLB PREFETCH  ACCESS:          0  HIT:          0  MISS:          0
cpu0_DTLB WRITEBACK ACCESS:          0  HIT:          0  MISS:          0
cpu0_ITLB TOTAL     ACCESS:    2299221  HIT:    2298183  MISS:       1038
cpu0_ITLB LOAD      ACCESS:    2299221  HIT:    2298183  MISS:       1038
cpu0_ITLB RFO       ACCESS:          0  HIT:          0  MISS:          0
cpu0_ITLB PREFETCH  ACCESS:          0  HIT:          0  MISS:          0
cpu0_ITLB WRITEBACK ACCESS:          0  HIT:          0  MISS:          0
cpu0_L1I TOTAL     ACCESS:     209354  HIT:     185777  MISS:      23577
cpu0_L1I LOAD      ACCESS:     209354  HIT:     185777  MISS:      23577
cpu0_L1I RFO       ACCESS:          0  HIT:          0  MISS:          0
cpu0_L1I PREFETCH  ACCESS:          0  HIT:          0  MISS:          0
cpu0_L1I WRITEBACK ACCESS:          0  HIT:          0  MISS:          0
cpu0_STLB TOTAL     ACCESS:      18627  HIT:      17271  MISS:       1356
cpu0_STLB LOAD      ACCESS:      16043  HIT:      14902  MISS:       1141
cpu0_STLB RFO       ACCESS:       2584  HIT:       2369  MISS:        215
cpu0_STLB PREFETCH  ACCESS:          0  HIT:          0  MISS:          0
cpu0_STLB WRITEBACK ACCESS:          0  HIT:          0  MISS:          0
cpu0_L1D TOTAL     ACCESS:    5035619  HIT:    4557084  MISS:     478535
cpu0_L1D LOAD      ACCESS:    3357689  HIT:    3025564  MISS:     332125
cpu0_L1D RFO       ACCESS:    1676640  HIT:    1531060  MISS:     145580
cpu0_L1D PREFETCH  ACCESS:          0  HIT:          0  MISS:          0
cpu0_L1D WRITEBACK ACCESS:          0  HIT:          0  MISS:          0
cpu0_L2C TOTAL     ACCESS:     699374  HIT:     499502  MISS:     199872
cpu0_L2C LOAD      ACCESS:     355643  HIT:     205419  MISS:     150224
cpu0_L2C RFO       ACCESS:     145562  HIT:      96401  MISS:      49161
cpu0_L2C PREFETCH  ACCESS:          0  HIT:          0  MISS:          0
cpu0_L2C WRITEBACK ACCESS:     197339  HIT:     197237  MISS:        102
LLC TOTAL     ACCESS:     276065  HIT:       5611  MISS:     270454
LLC LOAD      ACCESS:     150224  HIT:       1583  MISS:     148641
LLC RFO       ACCESS:      49161  HIT:       4025  MISS:      45136
LLC PREFETCH  ACCESS:          0  HIT:          0  MISS:          0
LLC WRITEBACK ACCESS:      76295  HIT:          3  MISS:      76292
Heartbeat CPU 0 instructions: 80000001 cycles: 34704963 heartbeat IPC: 1.36053 cumulative IPC: 1.45298 (Simulation time: 0 hr 43 min 56 sec) 

Region of Interest Statistics
cpu0_DTLB TOTAL     ACCESS:    5989676  HIT:    5971500  MISS:      18176
cpu0_DTLB LOAD      ACCESS:    4687247  HIT:    4671793  MISS:      15454
cpu0_DTLB RFO       ACCESS:    1302429  HIT:    1299707  MISS:       2722
cpu0_DTLB PREFETCH  ACCESS:          0  HIT:          0  MISS:          0
cpu0_DTLB WRITEBACK ACCESS:          0  HIT:          0  MISS:          0
cpu0_ITLB TOTAL     ACCESS:    2478196  HIT:    2477156  MISS:       1040
cpu0_ITLB LOAD      ACCESS:    2478196  HIT:    2477156  MISS:       1040
cpu0_ITLB RFO       ACCESS:          0  HIT:          0  MISS:          0
cpu0_ITLB PREFETCH  ACCESS:          0  HIT:          0  MISS:          0
cpu0_ITLB WRITEBACK ACCESS:          0  HIT:          0  MISS:          0
cpu0_L1I TOTAL     ACCESS:     215631  HIT:     191986  MISS:      23645
cpu0_L1I LOAD      ACCESS:     215631  HIT:     191986  MISS:      23645
cpu0_L1I RFO       ACCESS:          0  HIT:          0  MISS:          0
cpu0_L1I PREFETCH  ACCESS:          0  HIT:          0  MISS:          0
cpu0_L1I WRITEBACK ACCESS:          0  HIT:          0  MISS:          0
cpu0_STLB TOTAL     ACCESS:      19216  HIT:      17599  MISS:       1617
cpu0_STLB LOAD      ACCESS:      16494  HIT:      15195  MISS:       1299
cpu0_STLB RFO       ACCESS:       2722  HIT:       2404  MISS:        318
cpu0_STLB PREFETCH  ACCESS:          0  HIT:          0  MISS:          0
cpu0_STLB WRITEBACK ACCESS:          0  HIT:          0  MISS:          0
cpu0_L1D TOTAL     ACCESS:    5412408  HIT:    4905289  MISS:     507119
cpu0_L1D LOAD      ACCESS:    3550645  HIT:    3199669  MISS:     350976
cpu0_L1D RFO       ACCESS:    1860212  HIT:    1705066  MISS:     155146
cpu0_L1D PREFETCH  ACCESS:          0  HIT:          0  MISS:          0
cpu0_L1D WRITEBACK ACCESS:          0  HIT:          0  MISS:          0
cpu0_L2C TOTAL     ACCESS:     743714  HIT:     522946  MISS:     220768
cpu0_L2C LOAD      ACCESS:     374562  HIT:     210631  MISS:     163931
cpu0_L2C RFO       ACCESS:     155126  HIT:      98893  MISS:      56233
cpu0_L2C PREFETCH  ACCESS:          0  HIT:          0  MISS:          0
cpu0_L2C WRITEBACK ACCESS:     213029  HIT:     212821  MISS:        208
LLC TOTAL     ACCESS:     306746  HIT:       6116  MISS:     300630
LLC LOAD      ACCESS:     163931  HIT:       2032  MISS:     161899
LLC RFO       ACCESS:      56233  HIT:       4081  MISS:      52152
LLC PREFETCH  ACCESS:          0  HIT:          0  MISS:          0
LLC WRITEBACK ACCESS:      86186  HIT:          3  MISS:      86183
Heartbeat CPU 0 instructions: 82000000 cycles: 36273690 heartbeat IPC: 1.27492 cumulative IPC: 1.44041 (Simulation time: 0 hr 45 min 17 sec) 

Region of Interest Statistics
cpu0_DTLB TOTAL     ACCESS:    6365185  HIT:    6346397  MISS:      18788
cpu0_DTLB LOAD      ACCESS:    4962770  HIT:    4946809  MISS:      15961
cpu0_DTLB RFO       ACCESS:    1402415  HIT:    1399588  MISS:       2827
cpu0_DTLB PREFETCH  ACCESS:          0  HIT:          0  MISS:          0
cpu0_DTLB WRITEBACK ACCESS:          0  HIT:          0  MISS:          0
cpu0_ITLB TOTAL     ACCESS:    2656199  HIT:    2655159  MISS:       1040
cpu0_ITLB LOAD      ACCESS:    2656199  HIT:    2655159  MISS:       1040
cpu0_ITLB RFO       ACCESS:          0  HIT:          0  MISS:          0
cpu0_ITLB PREFETCH  ACCESS:          0  HIT:          0  MISS:          0
cpu0_ITLB WRITEBACK ACCESS:          0  HIT:          0  MISS:          0
cpu0_L1I TOTAL     ACCESS:     221645  HIT:     198000  MISS:      23645
cpu0_L1I LOAD      ACCESS:     221645  HIT:     198000  MISS:      23645
cpu0_L1I RFO       ACCESS:          0  HIT:          0  MISS:          0
cpu0_L1I PREFETCH  ACCESS:          0  HIT:          0  MISS:          0
cpu0_L1I WRITEBACK ACCESS:          0  HIT:          0  MISS:          0
cpu0_STLB TOTAL     ACCESS:      19828  HIT:      17969  MISS:       1859
cpu0_STLB LOAD      ACCESS:      17001  HIT:      15518  MISS:       1483
cpu0_STLB RFO       ACCESS:       2827  HIT:       2451  MISS:        376
cpu0_STLB PREFETCH  ACCESS:          0  HIT:          0  MISS:          0
cpu0_STLB WRITEBACK ACCESS:          0  HIT:          0  MISS:          0
cpu0_L1D TOTAL     ACCESS:    5734192  HIT:    5201022  MISS:     533170
cpu0_L1D LOAD      ACCESS:    3709210  HIT:    3339546  MISS:     369664
cpu0_L1D RFO       ACCESS:    2023189  HIT:    1860886  MISS:     162303
cpu0_L1D PREFETCH  ACCESS:          0  HIT:          0  MISS:          0
cpu0_L1D WRITEBACK ACCESS:          0  HIT:          0  MISS:          0
cpu0_L2C TOTAL     ACCESS:     783569  HIT:     542891  MISS:     240678
cpu0_L2C LOAD      ACCESS:     393250  HIT:     213699  MISS:     179551
cpu0_L2C RFO       ACCESS:     162277  HIT:     101798  MISS:      60479
cpu0_L2C PREFETCH  ACCESS:          0  HIT:          0  MISS:          0
cpu0_L2C WRITEBACK ACCESS:     226839  HIT:     226587  MISS:        252
LLC TOTAL     ACCESS:     337545  HIT:       6116  MISS:     331429
LLC LOAD      ACCESS:     179551  HIT:       2032  MISS:     177519
LLC RFO       ACCESS:      60479  HIT:       4081  MISS:      56398
LLC PREFETCH  ACCESS:          0  HIT:          0  MISS:          0
LLC WRITEBACK ACCESS:      97119  HIT:          3  MISS:      97116
Heartbeat CPU 0 instructions: 84000000 cycles: 37299666 heartbeat IPC: 1.94936 cumulative IPC: 1.46288 (Simulation time: 0 hr 46 min 16 sec) 

Region of Interest Statistics
cpu0_DTLB TOTAL     ACCESS:    6767511  HIT:    6748482  MISS:      19029
cpu0_DTLB LOAD      ACCESS:    5288000  HIT:    5271858  MISS:      16142
cpu0_DTLB RFO       ACCESS:    1479511  HIT:    1476624  MISS:       2887
cpu0_DTLB PREFETCH  ACCESS:          0  HIT:          0  MISS:          0
cpu0_DTLB WRITEBACK ACCESS:          0  HIT:          0  MISS:          0
cpu0_ITLB TOTAL     ACCESS:    2852901  HIT:    2851855  MISS:       1046
cpu0_ITLB LOAD      ACCESS:    2852901  HIT:    2851855  MISS:       1046
cpu0_ITLB RFO       ACCESS:          0  HIT:          0  MISS:          0
cpu0_ITLB PREFETCH  ACCESS:          0  HIT:          0  MISS:          0
cpu0_ITLB WRITEBACK ACCESS:          0  HIT:          0  MISS:          0
cpu0_L1I TOTAL     ACCESS:     245334  HIT:     221603  MISS:      23731
cpu0_L1I LOAD      ACCESS:     245334  HIT:     221603  MISS:      23731
cpu0_L1I RFO       ACCESS:          0  HIT:          0  MISS:          0
cpu0_L1I PREFETCH  ACCESS:          0  HIT:          0  MISS:          0
cpu0_L1I WRITEBACK ACCESS:          0  HIT:          0  MISS:          0
cpu0_STLB TOTAL     ACCESS:      20075  HIT:      18186  MISS:       1889
cpu0_STLB LOAD      ACCESS:      17188  HIT:      15680  MISS:       1508
cpu0_STLB RFO       ACCESS:       2887  HIT:       2506  MISS:        381
cpu0_STLB PREFETCH  ACCESS:          0  HIT:          0  MISS:          0
cpu0_STLB WRITEBACK ACCESS:          0  HIT:          0  MISS:          0
cpu0_L1D TOTAL     ACCESS:    6052442  HIT:    5496180  MISS:     556262
cpu0_L1D LOAD      ACCESS:    3935131  HIT:    3555108  MISS:     380023
cpu0_L1D RFO       ACCESS:    2115489  HIT:    1940464  MISS:     175025
cpu0_L1D PREFETCH  ACCESS:          0  HIT:          0  MISS:          0
cpu0_L1D WRITEBACK ACCESS:          0  HIT:          0  MISS:          0
cpu0_L2C TOTAL     ACCESS:     821314  HIT:     575247  MISS:     246067
cpu0_L2C LOAD      ACCESS:     403695  HIT:     220059  MISS:     183636
cpu0_L2C RFO       ACCESS:     174999  HIT:     113304  MISS:      61695
cpu0_L2C PREFETCH  ACCESS:          0  HIT:          0  MISS:          0
cpu0_L2C WRITEBACK ACCESS:     241406  HIT:     241068  MISS:        338
LLC TOTAL     ACCESS:     345675  HIT:       6117  MISS:     339558
LLC LOAD      ACCESS:     183636  HIT:       2032  MISS:     181604
LLC RFO       ACCESS:      61695  HIT:       4082  MISS:      57613
LLC PREFETCH  ACCESS:          0  HIT:          0  MISS:          0
LLC WRITEBACK ACCESS:      99946  HIT:          3  MISS:      99943
Heartbeat CPU 0 instructions: 86000004 cycles: 38320348 heartbeat IPC: 1.95948 cumulative IPC: 1.48377 (Simulation time: 0 hr 47 min 4 sec) 

Region of Interest Statistics
cpu0_DTLB TOTAL     ACCESS:    7164804  HIT:    7145563  MISS:      19241
cpu0_DTLB LOAD      ACCESS:    5610354  HIT:    5594041  MISS:      16313
cpu0_DTLB RFO       ACCESS:    1554450  HIT:    1551522  MISS:       2928
cpu0_DTLB PREFETCH  ACCESS:          0  HIT:          0  MISS:          0
cpu0_DTLB WRITEBACK ACCESS:          0  HIT:          0  MISS:          0
cpu0_ITLB TOTAL     ACCESS:    3043996  HIT:    3042950  MISS:       1046
cpu0_ITLB LOAD      ACCESS:    3043996  HIT:    3042950  MISS:       1046
cpu0_ITLB RFO       ACCESS:          0  HIT:          0  MISS:          0
cpu0_ITLB PREFETCH  ACCESS:          0  HIT:          0  MISS:          0
cpu0_ITLB WRITEBACK ACCESS:          0  HIT:          0  MISS:          0
cpu0_L1I TOTAL     ACCESS:     281799  HIT:     258068  MISS:      23731
cpu0_L1I LOAD      ACCESS:     281799  HIT:     258068  MISS:      23731
cpu0_L1I RFO       ACCESS:          0  HIT:          0  MISS:          0
cpu0_L1I PREFETCH  ACCESS:          0  HIT:          0  MISS:          0
cpu0_L1I WRITEBACK ACCESS:          0  HIT:          0  MISS:          0
cpu0_STLB TOTAL     ACCESS:      20287  HIT:      18398  MISS:       1889
cpu0_STLB LOAD      ACCESS:      17359  HIT:      15851  MISS:       1508
cpu0_STLB RFO       ACCESS:       2928  HIT:       2547  MISS:        381
cpu0_STLB PREFETCH  ACCESS:          0  HIT:          0  MISS:          0
cpu0_STLB WRITEBACK ACCESS:          0  HIT:          0  MISS:          0
cpu0_L1D TOTAL     ACCESS:    6380933  HIT:    5802511  MISS:     578422
cpu0_L1D LOAD      ACCESS:    4167641  HIT:    3777189  MISS:     390452
cpu0_L1D RFO       ACCESS:    2211470  HIT:    2024714  MISS:     186756
cpu0_L1D PREFETCH  ACCESS:          0  HIT:          0  MISS:          0
cpu0_L1D WRITEBACK ACCESS:          0  HIT:          0  MISS:          0
cpu0_L2C TOTAL     ACCESS:     856763  HIT:     607715  MISS:     249048
cpu0_L2C LOAD      ACCESS:     414125  HIT:     227514  MISS:     186611
cpu0_L2C RFO       ACCESS:     186730  HIT:     125029  MISS:      61701
cpu0_L2C PREFETCH  ACCESS:          0  HIT:          0  MISS:          0
cpu0_L2C WRITEBACK ACCESS:     254694  HIT:     254356  MISS:        338
LLC TOTAL     ACCESS:     350083  HIT:       6117  MISS:     343966
LLC LOAD      ACCESS:     186611  HIT:       2032  MISS:     184579
LLC RFO       ACCESS:      61701  HIT:       4082  MISS:      57619
LLC PREFETCH  ACCESS:          0  HIT:          0  MISS:          0
LLC WRITEBACK ACCESS:     101373  HIT:          3  MISS:     101370
Heartbeat CPU 0 instructions: 88000003 cycles: 39316358 heartbeat IPC: 2.00801 cumulative IPC: 1.50444 (Simulation time: 0 hr 48 min 5 sec) 

Region of Interest Statistics
cpu0_DTLB TOTAL     ACCESS:    7571640  HIT:    7552170  MISS:      19470
cpu0_DTLB LOAD      ACCESS:    5940687  HIT:    5924181  MISS:      16506
cpu0_DTLB RFO       ACCESS:    1630953  HIT:    1627989  MISS:       2964
cpu0_DTLB PREFETCH  ACCESS:          0  HIT:          0  MISS:          0
cpu0_DTLB WRITEBACK ACCESS:          0  HIT:          0  MISS:          0
cpu0_ITLB TOTAL     ACCESS:    3247917  HIT:    3246871  MISS:       1046
cpu0_ITLB LOAD      ACCESS:    3247917  HIT:    3246871  MISS:       1046
cpu0_ITLB RFO       ACCESS:          0  HIT:          0  MISS:          0
cpu0_ITLB PREFETCH  ACCESS:          0  HIT:          0  MISS:          0
cpu0_ITLB WRITEBACK ACCESS:          0  HIT:          0  MISS:          0
cpu0_L1I TOTAL     ACCESS:     300910  HIT:     277179  MISS:      23731
cpu0_L1I LOAD      ACCESS:     300910  HIT:     277179  MISS:      23731
cpu0_L1I RFO       ACCESS:          0  HIT:          0  MISS:          0
cpu0_L1I PREFETCH  ACCESS:          0  HIT:          0  MISS:          0
cpu0_L1I WRITEBACK ACCESS:          0  HIT:          0  MISS:          0
cpu0_STLB TOTAL     ACCESS:      20516  HIT:      18627  MISS:       1889
cpu0_STLB LOAD      ACCESS:      17552  HIT:      16044  MISS:       1508
cpu0_STLB RFO       ACCESS:       2964  HIT:       2583  MISS:        381
cpu0_STLB PREFETCH  ACCESS:          0  HIT:          0  MISS:          0
cpu0_STLB WRITEBACK ACCESS:          0  HIT:          0  MISS:          0
cpu0_L1D TOTAL     ACCESS:    6702099  HIT:    6100189  MISS:     601910
cpu0_L1D LOAD      ACCESS:    4397554  HIT:    3996921  MISS:     400633
cpu0_L1D RFO       ACCESS:    2302723  HIT:    2102660  MISS:     200063
cpu0_L1D PREFETCH  ACCESS:          0  HIT:          0  MISS:          0
cpu0_L1D WRITEBACK ACCESS:          0  HIT:          0  MISS:          0
cpu0_L2C TOTAL     ACCESS:     895101  HIT:     642555  MISS:     252546
cpu0_L2C LOAD      ACCESS:     424304  HIT:     234231  MISS:     190073
cpu0_L2C RFO       ACCESS:     200037  HIT:     138300  MISS:      61737
cpu0_L2C PREFETCH  ACCESS:          0  HIT:          0  MISS:          0
cpu0_L2C WRITEBACK ACCESS:     269546  HIT:     269208  MISS:        338
LLC TOTAL     ACCESS:     355450  HIT:       6118  MISS:     349332
LLC LOAD      ACCESS:     190073  HIT:       2032  MISS:     188041
LLC RFO       ACCESS:      61737  HIT:       4083  MISS:      57654
LLC PREFETCH  ACCESS:          0  HIT:          0  MISS:          0
LLC WRITEBACK ACCESS:     103242  HIT:          3  MISS:     103239
Heartbeat CPU 0 instructions: 90000000 cycles: 40208407 heartbeat IPC: 2.24203 cumulative IPC: 1.5296 (Simulation time: 0 hr 49 min 1 sec) 

Region of Interest Statistics
cpu0_DTLB TOTAL     ACCESS:    7984636  HIT:    7964993  MISS:      19643
cpu0_DTLB LOAD      ACCESS:    6278062  HIT:    6261413  MISS:      16649
cpu0_DTLB RFO       ACCESS:    1706574  HIT:    1703580  MISS:       2994
cpu0_DTLB PREFETCH  ACCESS:          0  HIT:          0  MISS:          0
cpu0_DTLB WRITEBACK ACCESS:          0  HIT:          0  MISS:          0
cpu0_ITLB TOTAL     ACCESS:    3459693  HIT:    3458646  MISS:       1047
cpu0_ITLB LOAD      ACCESS:    3459693  HIT:    3458646  MISS:       1047
cpu0_ITLB RFO       ACCESS:          0  HIT:          0  MISS:          0
cpu0_ITLB PREFETCH  ACCESS:          0  HIT:          0  MISS:          0
cpu0_ITLB WRITEBACK ACCESS:          0  HIT:          0  MISS:          0
cpu0_L1I TOTAL     ACCESS:     304307  HIT:     280564  MISS:      23743
cpu0_L1I LOAD      ACCESS:     304307  HIT:     280564  MISS:      23743
cpu0_L1I RFO       ACCESS:          0  HIT:          0  MISS:          0
cpu0_L1I PREFETCH  ACCESS:          0  HIT:          0  MISS:          0
cpu0_L1I WRITEBACK ACCESS:          0  HIT:          0  MISS:          0
cpu0_STLB TOTAL     ACCESS:      20690  HIT:      18791  MISS:       1899
cpu0_STLB LOAD      ACCESS:      17696  HIT:      16183  MISS:       1513
cpu0_STLB RFO       ACCESS:       2994  HIT:       2608  MISS:        386
cpu0_STLB PREFETCH  ACCESS:          0  HIT:          0  MISS:          0
cpu0_STLB WRITEBACK ACCESS:          0  HIT:          0  MISS:          0
cpu0_L1D TOTAL     ACCESS:    7008908  HIT:    6383356  MISS:     625552
cpu0_L1D LOAD      ACCESS:    4621697  HIT:    4211744  MISS:     409953
cpu0_L1D RFO       ACCESS:    2385380  HIT:    2170998  MISS:     214382
cpu0_L1D PREFETCH  ACCESS:          0  HIT:          0  MISS:          0
cpu0_L1D WRITEBACK ACCESS:          0  HIT:          0  MISS:          0
cpu0_L2C TOTAL     ACCESS:     934964  HIT:     678291  MISS:     256673
cpu0_L2C LOAD      ACCESS:     433636  HIT:     239878  MISS:     193758
cpu0_L2C RFO       ACCESS:     214356  HIT:     152181  MISS:      62175
cpu0_L2C PREFETCH  ACCESS:          0  HIT:          0  MISS:          0
cpu0_L2C WRITEBACK ACCESS:     285755  HIT:     285416  MISS:        339
LLC TOTAL     ACCESS:     361575  HIT:       6119  MISS:     355456
LLC LOAD      ACCESS:     193758  HIT:       2033  MISS:     191725
LLC RFO       ACCESS:      62175  HIT:       4083  MISS:      58092
LLC PREFETCH  ACCESS:          0  HIT:          0  MISS:          0
LLC WRITEBACK ACCESS:     105241  HIT:          3  MISS:     105238
Heartbeat CPU 0 instructions: 92000004 cycles: 41198364 heartbeat IPC: 2.02029 cumulative IPC: 1.5475 (Simulation time: 0 hr 50 min 12 sec) 

Region of Interest Statistics
cpu0_DTLB TOTAL     ACCESS:    8393121  HIT:    8371061  MISS:      22060
cpu0_DTLB LOAD      ACCESS:    6618546  HIT:    6599817  MISS:      18729
cpu0_DTLB RFO       ACCESS:    1774575  HIT:    1771244  MISS:       3331
cpu0_DTLB PREFETCH  ACCESS:          0  HIT:          0  MISS:          0
cpu0_DTLB WRITEBACK ACCESS:          0  HIT:          0  MISS:          0
cpu0_ITLB TOTAL     ACCESS:    3648125  HIT:    3647072  MISS:       1053
cpu0_ITLB LOAD      ACCESS:    3648125  HIT:    3647072  MISS:       1053
cpu0_ITLB RFO       ACCESS:          0  HIT:          0  MISS:          0
cpu0_ITLB PREFETCH  ACCESS:          0  HIT:          0  MISS:          0
cpu0_ITLB WRITEBACK ACCESS:          0  HIT:          0  MISS:          0
cpu0_L1I TOTAL     ACCESS:     308439  HIT:     284603  MISS:      23836
cpu0_L1I LOAD      ACCESS:     308439  HIT:     284603  MISS:      23836
cpu0_L1I RFO       ACCESS:          0  HIT:          0  MISS:          0
cpu0_L1I PREFETCH  ACCESS:          0  HIT:          0  MISS:          0
cpu0_L1I WRITEBACK ACCESS:          0  HIT:          0  MISS:          0
cpu0_STLB TOTAL     ACCESS:      23113  HIT:      21186  MISS:       1927
cpu0_STLB LOAD      ACCESS:      19782  HIT:      18245  MISS:       1537
cpu0_STLB RFO       ACCESS:       3331  HIT:       2941  MISS:        390
cpu0_STLB PREFETCH  ACCESS:          0  HIT:          0  MISS:          0
cpu0_STLB WRITEBACK ACCESS:          0  HIT:          0  MISS:          0
cpu0_L1D TOTAL     ACCESS:    7313228  HIT:    6649203  MISS:     664025
cpu0_L1D LOAD      ACCESS:    4835634  HIT:    4404106  MISS:     431528
cpu0_L1D RFO       ACCESS:    2475739  HIT:    2244466  MISS:     231273
cpu0_L1D PREFETCH  ACCESS:          0  HIT:          0  MISS:          0
cpu0_L1D WRITEBACK ACCESS:          0  HIT:          0  MISS:          0
cpu0_L2C TOTAL     ACCESS:     992281  HIT:     728306  MISS:     263975
cpu0_L2C LOAD      ACCESS:     455284  HIT:     254924  MISS:     200360
cpu0_L2C RFO       ACCESS:     231247  HIT:     168386  MISS:      62861
cpu0_L2C PREFETCH  ACCESS:          0  HIT:          0  MISS:          0
cpu0_L2C WRITEBACK ACCESS:     304526  HIT:     304176  MISS:        350
LLC TOTAL     ACCESS:     372388  HIT:       6132  MISS:     366256
LLC LOAD      ACCESS:     200360  HIT:       2033  MISS:     198327
LLC RFO       ACCESS:      62861  HIT:       4096  MISS:      58765
LLC PREFETCH  ACCESS:          0  HIT:          0  MISS:          0
LLC WRITEBACK ACCESS:     108763  HIT:          3  MISS:     108760
Heartbeat CPU 0 instructions: 94000002 cycles: 42101130 heartbeat IPC: 2.21541 cumulative IPC: 1.569 (Simulation time: 0 hr 51 min 20 sec) 

Region of Interest Statistics
cpu0_DTLB TOTAL     ACCESS:    8804608  HIT:    8779804  MISS:      24804
cpu0_DTLB LOAD      ACCESS:    6961678  HIT:    6940574  MISS:      21104
cpu0_DTLB RFO       ACCESS:    1842930  HIT:    1839230  MISS:       3700
cpu0_DTLB PREFETCH  ACCESS:          0  HIT:          0  MISS:          0
cpu0_DTLB WRITEBACK ACCESS:          0  HIT:          0  MISS:          0
cpu0_ITLB TOTAL     ACCESS:    3821599  HIT:    3820544  MISS:       1055
cpu0_ITLB LOAD      ACCESS:    3821599  HIT:    3820544  MISS:       1055
cpu0_ITLB RFO       ACCESS:          0  HIT:          0  MISS:          0
cpu0_ITLB PREFETCH  ACCESS:          0  HIT:          0  MISS:          0
cpu0_ITLB WRITEBACK ACCESS:          0  HIT:          0  MISS:          0
cpu0_L1I TOTAL     ACCESS:     312962  HIT:     289097  MISS:      23865
cpu0_L1I LOAD      ACCESS:     312962  HIT:     289097  MISS:      23865
cpu0_L1I RFO       ACCESS:          0  HIT:          0  MISS:          0
cpu0_L1I PREFETCH  ACCESS:          0  HIT:          0  MISS:          0
cpu0_L1I WRITEBACK ACCESS:          0  HIT:          0  MISS:          0
cpu0_STLB TOTAL     ACCESS:      25859  HIT:      23915  MISS:       1944
cpu0_STLB LOAD      ACCESS:      22159  HIT:      20605  MISS:       1554
cpu0_STLB RFO       ACCESS:       3700  HIT:       3310  MISS:        390
cpu0_STLB PREFETCH  ACCESS:          0  HIT:          0  MISS:          0
cpu0_STLB WRITEBACK ACCESS:          0  HIT:          0  MISS:          0
cpu0_L1D TOTAL     ACCESS:    7620639  HIT:    6914535  MISS:     706104
cpu0_L1D LOAD      ACCESS:    5056986  HIT:    4601649  MISS:     455337
cpu0_L1D RFO       ACCESS:    2561781  HIT:    2312246  MISS:     249535
cpu0_L1D PREFETCH  ACCESS:          0  HIT:          0  MISS:          0
cpu0_L1D WRITEBACK ACCESS:          0  HIT:          0  MISS:          0
cpu0_L2C TOTAL     ACCESS:    1054596  HIT:     783936  MISS:     270660
cpu0_L2C LOAD      ACCESS:     479101  HIT:     272066  MISS:     207035
cpu0_L2C RFO       ACCESS:     249509  HIT:     186643  MISS:      62866
cpu0_L2C PREFETCH  ACCESS:          0  HIT:          0  MISS:          0
cpu0_L2C WRITEBACK ACCESS:     324754  HIT:     324400  MISS:        354
LLC TOTAL     ACCESS:     379983  HIT:       6134  MISS:     373849
LLC LOAD      ACCESS:     207035  HIT:       2033  MISS:     205002
LLC RFO       ACCESS:      62866  HIT:       4098  MISS:      58768
LLC PREFETCH  ACCESS:          0  HIT:          0  MISS:          0
LLC WRITEBACK ACCESS:     109677  HIT:          3  MISS:     109674
Heartbeat CPU 0 instructions: 96000002 cycles: 43454803 heartbeat IPC: 1.47746 cumulative IPC: 1.56479 (Simulation time: 0 hr 52 min 34 sec) 

Region of Interest Statistics
cpu0_DTLB TOTAL     ACCESS:    9256182  HIT:    9230366  MISS:      25816
cpu0_DTLB LOAD      ACCESS:    7357837  HIT:    7335944  MISS:      21893
cpu0_DTLB RFO       ACCESS:    1898345  HIT:    1894422  MISS:       3923
cpu0_DTLB PREFETCH  ACCESS:          0  HIT:          0  MISS:          0
cpu0_DTLB WRITEBACK ACCESS:          0  HIT:          0  MISS:          0
cpu0_ITLB TOTAL     ACCESS:    4030730  HIT:    4029673  MISS:       1057
cpu0_ITLB LOAD      ACCESS:    4030730  HIT:    4029673  MISS:       1057
cpu0_ITLB RFO       ACCESS:          0  HIT:          0  MISS:          0
cpu0_ITLB PREFETCH  ACCESS:          0  HIT:          0  MISS:          0
cpu0_ITLB WRITEBACK ACCESS:          0  HIT:          0  MISS:          0
cpu0_L1I TOTAL     ACCESS:     321263  HIT:     297272  MISS:      23991
cpu0_L1I LOAD      ACCESS:     321263  HIT:     297272  MISS:      23991
cpu0_L1I RFO       ACCESS:          0  HIT:          0  MISS:          0
cpu0_L1I PREFETCH  ACCESS:          0  HIT:          0  MISS:          0
cpu0_L1I WRITEBACK ACCESS:          0  HIT:          0  MISS:          0
cpu0_STLB TOTAL     ACCESS:      26873  HIT:      24840  MISS:       2033
cpu0_STLB LOAD      ACCESS:      22950  HIT:      21386  MISS:       1564
cpu0_STLB RFO       ACCESS:       3923  HIT:       3454  MISS:        469
cpu0_STLB PREFETCH  ACCESS:          0  HIT:          0  MISS:          0
cpu0_STLB WRITEBACK ACCESS:          0  HIT:          0  MISS:          0
cpu0_L1D TOTAL     ACCESS:    7906705  HIT:    7172554  MISS:     734151
cpu0_L1D LOAD      ACCESS:    5288542  HIT:    4817101  MISS:     471441
cpu0_L1D RFO       ACCESS:    2616204  HIT:    2354743  MISS:     261461
cpu0_L1D PREFETCH  ACCESS:          0  HIT:          0  MISS:          0
cpu0_L1D WRITEBACK ACCESS:          0  HIT:          0  MISS:          0
cpu0_L2C TOTAL     ACCESS:    1096252  HIT:     819289  MISS:     276963
cpu0_L2C LOAD      ACCESS:     495331  HIT:     286952  MISS:     208379
cpu0_L2C RFO       ACCESS:     261435  HIT:     193626  MISS:      67809
cpu0_L2C PREFETCH  ACCESS:          0  HIT:          0  MISS:          0
cpu0_L2C WRITEBACK ACCESS:     338237  HIT:     337870  MISS:        367
LLC TOTAL     ACCESS:     386729  HIT:       6179  MISS:     380550
LLC LOAD      ACCESS:     208379  HIT:       2042  MISS:     206337
LLC RFO       ACCESS:      67809  HIT:       4134  MISS:      63675
LLC PREFETCH  ACCESS:          0  HIT:          0  MISS:          0
LLC WRITEBACK ACCESS:     110133  HIT:          3  MISS:     110130
Heartbeat CPU 0 instructions: 98000003 cycles: 45379844 heartbeat IPC: 1.03894 cumulative IPC: 1.53247 (Simulation time: 0 hr 54 min 22 sec) 

Region of Interest Statistics
cpu0_DTLB TOTAL     ACCESS:    9768884  HIT:    9741829  MISS:      27055
cpu0_DTLB LOAD      ACCESS:    7788606  HIT:    7765785  MISS:      22821
cpu0_DTLB RFO       ACCESS:    1980278  HIT:    1976044  MISS:       4234
cpu0_DTLB PREFETCH  ACCESS:          0  HIT:          0  MISS:          0
cpu0_DTLB WRITEBACK ACCESS:          0  HIT:          0  MISS:          0
cpu0_ITLB TOTAL     ACCESS:    4178470  HIT:    4177413  MISS:       1057
cpu0_ITLB LOAD      ACCESS:    4178470  HIT:    4177413  MISS:       1057
cpu0_ITLB RFO       ACCESS:          0  HIT:          0  MISS:          0
cpu0_ITLB PREFETCH  ACCESS:          0  HIT:          0  MISS:          0
cpu0_ITLB WRITEBACK ACCESS:          0  HIT:          0  MISS:          0
cpu0_L1I TOTAL     ACCESS:     341528  HIT:     317506  MISS:      24022
cpu0_L1I LOAD      ACCESS:     341528  HIT:     317506  MISS:      24022
cpu0_L1I RFO       ACCESS:          0  HIT:          0  MISS:          0
cpu0_L1I PREFETCH  ACCESS:          0  HIT:          0  MISS:          0
cpu0_L1I WRITEBACK ACCESS:          0  HIT:          0  MISS:          0
cpu0_STLB TOTAL     ACCESS:      28112  HIT:      25952  MISS:       2160
cpu0_STLB LOAD      ACCESS:      23878  HIT:      22314  MISS:       1564
cpu0_STLB RFO       ACCESS:       4234  HIT:       3638  MISS:        596
cpu0_STLB PREFETCH  ACCESS:          0  HIT:          0  MISS:          0
cpu0_STLB WRITEBACK ACCESS:          0  HIT:          0  MISS:          0
cpu0_L1D TOTAL     ACCESS:    8261846  HIT:    7485141  MISS:     776705
cpu0_L1D LOAD      ACCESS:    5563267  HIT:    5066949  MISS:     496318
cpu0_L1D RFO       ACCESS:    2696493  HIT:    2417375  MISS:     279118
cpu0_L1D PREFETCH  ACCESS:          0  HIT:          0  MISS:          0
cpu0_L1D WRITEBACK ACCESS:          0  HIT:          0  MISS:          0
cpu0_L2C TOTAL     ACCESS:    1158689  HIT:     872792  MISS:     285897
cpu0_L2C LOAD      ACCESS:     520239  HIT:     311546  MISS:     208693
cpu0_L2C RFO       ACCESS:     279092  HIT:     202663  MISS:      76429
cpu0_L2C PREFETCH  ACCESS:          0  HIT:          0  MISS:          0
cpu0_L2C WRITEBACK ACCESS:     358089  HIT:     357722  MISS:        367
LLC TOTAL     ACCESS:     402481  HIT:       6183  MISS:     396298
LLC LOAD      ACCESS:     208693  HIT:       2042  MISS:     206651
LLC RFO       ACCESS:      76429  HIT:       4134  MISS:      72295
LLC PREFETCH  ACCESS:          0  HIT:          0  MISS:          0
LLC WRITEBACK ACCESS:     116951  HIT:          7  MISS:     116944
Heartbeat CPU 0 instructions: 100000003 cycles: 46867559 heartbeat IPC: 1.34434 cumulative IPC: 1.52394 (Simulation time: 0 hr 56 min 7 sec) 

Region of Interest Statistics
cpu0_DTLB TOTAL     ACCESS:   10260814  HIT:   10233205  MISS:      27609
cpu0_DTLB LOAD      ACCESS:    8147933  HIT:    8124694  MISS:      23239
cpu0_DTLB RFO       ACCESS:    2112881  HIT:    2108511  MISS:       4370
cpu0_DTLB PREFETCH  ACCESS:          0  HIT:          0  MISS:          0
cpu0_DTLB WRITEBACK ACCESS:          0  HIT:          0  MISS:          0
cpu0_ITLB TOTAL     ACCESS:    4355299  HIT:    4354241  MISS:       1058
cpu0_ITLB LOAD      ACCESS:    4355299  HIT:    4354241  MISS:       1058
cpu0_ITLB RFO       ACCESS:          0  HIT:          0  MISS:          0
cpu0_ITLB PREFETCH  ACCESS:          0  HIT:          0  MISS:          0
cpu0_ITLB WRITEBACK ACCESS:          0  HIT:          0  MISS:          0
cpu0_L1I TOTAL     ACCESS:     343897  HIT:     319851  MISS:      24046
cpu0_L1I LOAD      ACCESS:     343897  HIT:     319851  MISS:      24046
cpu0_L1I RFO       ACCESS:          0  HIT:          0  MISS:          0
cpu0_L1I PREFETCH  ACCESS:          0  HIT:          0  MISS:          0
cpu0_L1I WRITEBACK ACCESS:          0  HIT:          0  MISS:          0
cpu0_STLB TOTAL     ACCESS:      28667  HIT:      26446  MISS:       2221
cpu0_STLB LOAD      ACCESS:      24297  HIT:      22723  MISS:       1574
cpu0_STLB RFO       ACCESS:       4370  HIT:       3723  MISS:        647
cpu0_STLB PREFETCH  ACCESS:          0  HIT:          0  MISS:          0
cpu0_STLB WRITEBACK ACCESS:          0  HIT:          0  MISS:          0
cpu0_L1D TOTAL     ACCESS:    8623920  HIT:    7823393  MISS:     800527
cpu0_L1D LOAD      ACCESS:    5803360  HIT:    5290497  MISS:     512863
cpu0_L1D RFO       ACCESS:    2818416  HIT:    2532054  MISS:     286362
cpu0_L1D PREFETCH  ACCESS:          0  HIT:          0  MISS:          0
cpu0_L1D WRITEBACK ACCESS:          0  HIT:          0  MISS:          0
cpu0_L2C TOTAL     ACCESS:    1198875  HIT:     895024  MISS:     303851
cpu0_L2C LOAD      ACCESS:     536808  HIT:     315695  MISS:     221113
cpu0_L2C RFO       ACCESS:     286332  HIT:     204400  MISS:      81932
cpu0_L2C PREFETCH  ACCESS:          0  HIT:          0  MISS:          0
cpu0_L2C WRITEBACK ACCESS:     374433  HIT:     374039  MISS:        394
LLC TOTAL     ACCESS:     436423  HIT:       6290  MISS:     430133
LLC LOAD      ACCESS:     221113  HIT:       2043  MISS:     219070
LLC RFO       ACCESS:      81932  HIT:       4240  MISS:      77692
LLC PREFETCH  ACCESS:          0  HIT:          0  MISS:          0
LLC WRITEBACK ACCESS:     132966  HIT:          7  MISS:     132959
Heartbeat CPU 0 instructions: 102000003 cycles: 49518145 heartbeat IPC: 0.75455 cumulative IPC: 1.46643 (Simulation time: 0 hr 58 min 3 sec) 

Region of Interest Statistics
cpu0_DTLB TOTAL     ACCESS:   10687997  HIT:   10659811  MISS:      28186
cpu0_DTLB LOAD      ACCESS:    8516069  HIT:    8492423  MISS:      23646
cpu0_DTLB RFO       ACCESS:    2171928  HIT:    2167388  MISS:       4540
cpu0_DTLB PREFETCH  ACCESS:          0  HIT:          0  MISS:          0
cpu0_DTLB WRITEBACK ACCESS:          0  HIT:          0  MISS:          0
cpu0_ITLB TOTAL     ACCESS:    4568196  HIT:    4567137  MISS:       1059
cpu0_ITLB LOAD      ACCESS:    4568196  HIT:    4567137  MISS:       1059
cpu0_ITLB RFO       ACCESS:          0  HIT:          0  MISS:          0
cpu0_ITLB PREFETCH  ACCESS:          0  HIT:          0  MISS:          0
cpu0_ITLB WRITEBACK ACCESS:          0  HIT:          0  MISS:          0
cpu0_L1I TOTAL     ACCESS:     359898  HIT:     335781  MISS:      24117
cpu0_L1I LOAD      ACCESS:     359898  HIT:     335781  MISS:      24117
cpu0_L1I RFO       ACCESS:          0  HIT:          0  MISS:          0
cpu0_L1I PREFETCH  ACCESS:          0  HIT:          0  MISS:          0
cpu0_L1I WRITEBACK ACCESS:          0  HIT:          0  MISS:          0
cpu0_STLB TOTAL     ACCESS:      29245  HIT:      26864  MISS:       2381
cpu0_STLB LOAD      ACCESS:      24705  HIT:      23129  MISS:       1576
cpu0_STLB RFO       ACCESS:       4540  HIT:       3735  MISS:        805
cpu0_STLB PREFETCH  ACCESS:          0  HIT:          0  MISS:          0
cpu0_STLB WRITEBACK ACCESS:          0  HIT:          0  MISS:          0
cpu0_L1D TOTAL     ACCESS:    8914305  HIT:    8080568  MISS:     833737
cpu0_L1D LOAD      ACCESS:    6009094  HIT:    5473418  MISS:     535676
cpu0_L1D RFO       ACCESS:    2902908  HIT:    2606156  MISS:     296752
cpu0_L1D PREFETCH  ACCESS:          0  HIT:          0  MISS:          0
cpu0_L1D WRITEBACK ACCESS:          0  HIT:          0  MISS:          0
cpu0_L2C TOTAL     ACCESS:    1243363  HIT:     909831  MISS:     333532
cpu0_L2C LOAD      ACCESS:     559692  HIT:     319341  MISS:     240351
cpu0_L2C RFO       ACCESS:     296722  HIT:     204446  MISS:      92276
cpu0_L2C PREFETCH  ACCESS:          0  HIT:          0  MISS:          0
cpu0_L2C WRITEBACK ACCESS:     385640  HIT:     385152  MISS:        488
LLC TOTAL     ACCESS:     480762  HIT:       6577  MISS:     474185
LLC LOAD      ACCESS:     240351  HIT:       2330  MISS:     238021
LLC RFO       ACCESS:      92276  HIT:       4240  MISS:      88036
LLC PREFETCH  ACCESS:          0  HIT:          0  MISS:          0
LLC WRITEBACK ACCESS:     147718  HIT:          7  MISS:     147711
Heartbeat CPU 0 instructions: 104000001 cycles: 51187179 heartbeat IPC: 1.1983 cumulative IPC: 1.45437 (Simulation time: 0 hr 59 min 33 sec) 

Region of Interest Statistics
cpu0_DTLB TOTAL     ACCESS:   11061769  HIT:   11032895  MISS:      28874
cpu0_DTLB LOAD      ACCESS:    8825675  HIT:    8801549  MISS:      24126
cpu0_DTLB RFO       ACCESS:    2236094  HIT:    2231346  MISS:       4748
cpu0_DTLB PREFETCH  ACCESS:          0  HIT:          0  MISS:          0
cpu0_DTLB WRITEBACK ACCESS:          0  HIT:          0  MISS:          0
cpu0_ITLB TOTAL     ACCESS:    4767124  HIT:    4766053  MISS:       1071
cpu0_ITLB LOAD      ACCESS:    4767124  HIT:    4766053  MISS:       1071
cpu0_ITLB RFO       ACCESS:          0  HIT:          0  MISS:          0
cpu0_ITLB PREFETCH  ACCESS:          0  HIT:          0  MISS:          0
cpu0_ITLB WRITEBACK ACCESS:          0  HIT:          0  MISS:          0
cpu0_L1I TOTAL     ACCESS:     366028  HIT:     341474  MISS:      24554
cpu0_L1I LOAD      ACCESS:     366028  HIT:     341474  MISS:      24554
cpu0_L1I RFO       ACCESS:          0  HIT:          0  MISS:          0
cpu0_L1I PREFETCH  ACCESS:          0  HIT:          0  MISS:          0
cpu0_L1I WRITEBACK ACCESS:          0  HIT:          0  MISS:          0
cpu0_STLB TOTAL     ACCESS:      29945  HIT:      27355  MISS:       2590
cpu0_STLB LOAD      ACCESS:      25197  HIT:      23505  MISS:       1692
cpu0_STLB RFO       ACCESS:       4748  HIT:       3850  MISS:        898
cpu0_STLB PREFETCH  ACCESS:          0  HIT:          0  MISS:          0
cpu0_STLB WRITEBACK ACCESS:          0  HIT:          0  MISS:          0
cpu0_L1D TOTAL     ACCESS:    9163516  HIT:    8295149  MISS:     868367
cpu0_L1D LOAD      ACCESS:    6170868  HIT:    5611491  MISS:     559377
cpu0_L1D RFO       ACCESS:    2990137  HIT:    2682522  MISS:     307615
cpu0_L1D PREFETCH  ACCESS:          0  HIT:          0  MISS:          0
cpu0_L1D WRITEBACK ACCESS:          0  HIT:          0  MISS:          0
cpu0_L2C TOTAL     ACCESS:    1293814  HIT:     935577  MISS:     358237
cpu0_L2C LOAD      ACCESS:     583829  HIT:     325204  MISS:     258625
cpu0_L2C RFO       ACCESS:     307585  HIT:     208908  MISS:      98677
cpu0_L2C PREFETCH  ACCESS:          0  HIT:          0  MISS:          0
cpu0_L2C WRITEBACK ACCESS:     401025  HIT:     400526  MISS:        499
LLC TOTAL     ACCESS:     513045  HIT:       6581  MISS:     506464
LLC LOAD      ACCESS:     258625  HIT:       2330  MISS:     256295
LLC RFO       ACCESS:      98677  HIT:       4244  MISS:      94433
LLC PREFETCH  ACCESS:          0  HIT:          0  MISS:          0
LLC WRITEBACK ACCESS:     155307  HIT:          7  MISS:     155300
Heartbeat CPU 0 instructions: 106000004 cycles: 52322013 heartbeat IPC: 1.76237 cumulative IPC: 1.46351 (Simulation time: 1 hr 0 min 56 sec) 

Region of Interest Statistics
cpu0_DTLB TOTAL     ACCESS:   11466696  HIT:   11436957  MISS:      29739
cpu0_DTLB LOAD      ACCESS:    9152912  HIT:    9128366  MISS:      24546
cpu0_DTLB RFO       ACCESS:    2313784  HIT:    2308591  MISS:       5193
cpu0_DTLB PREFETCH  ACCESS:          0  HIT:          0  MISS:          0
cpu0_DTLB WRITEBACK ACCESS:          0  HIT:          0  MISS:          0
cpu0_ITLB TOTAL     ACCESS:    4944802  HIT:    4943731  MISS:       1071
cpu0_ITLB LOAD      ACCESS:    4944802  HIT:    4943731  MISS:       1071
cpu0_ITLB RFO       ACCESS:          0  HIT:          0  MISS:          0
cpu0_ITLB PREFETCH  ACCESS:          0  HIT:          0  MISS:          0
cpu0_ITLB WRITEBACK ACCESS:          0  HIT:          0  MISS:          0
cpu0_L1I TOTAL     ACCESS:     374534  HIT:     349980  MISS:      24554
cpu0_L1I LOAD      ACCESS:     374534  HIT:     349980  MISS:      24554
cpu0_L1I RFO       ACCESS:          0  HIT:          0  MISS:          0
cpu0_L1I PREFETCH  ACCESS:          0  HIT:          0  MISS:          0
cpu0_L1I WRITEBACK ACCESS:          0  HIT:          0  MISS:          0
cpu0_STLB TOTAL     ACCESS:      30810  HIT:      27996  MISS:       2814
cpu0_STLB LOAD      ACCESS:      25617  HIT:      23910  MISS:       1707
cpu0_STLB RFO       ACCESS:       5193  HIT:       4086  MISS:       1107
cpu0_STLB PREFETCH  ACCESS:          0  HIT:          0  MISS:          0
cpu0_STLB WRITEBACK ACCESS:          0  HIT:          0  MISS:          0
cpu0_L1D TOTAL     ACCESS:    9460629  HIT:    8551724  MISS:     908905
cpu0_L1D LOAD      ACCESS:    6398322  HIT:    5822443  MISS:     575879
cpu0_L1D RFO       ACCESS:    3059572  HIT:    2728051  MISS:     331521
cpu0_L1D PREFETCH  ACCESS:          0  HIT:          0  MISS:          0
cpu0_L1D WRITEBACK ACCESS:          0  HIT:          0  MISS:          0
cpu0_L2C TOTAL     ACCESS:    1358330  HIT:     986439  MISS:     371891
cpu0_L2C LOAD      ACCESS:     600326  HIT:     339707  MISS:     260619
cpu0_L2C RFO       ACCESS:     331490  HIT:     221153  MISS:     110337
cpu0_L2C PREFETCH  ACCESS:          0  HIT:          0  MISS:          0
cpu0_L2C WRITEBACK ACCESS:     425009  HIT:     424510  MISS:        499
[...]
cpu0_DTLB LOAD      ACCESS:  234795612  HIT:  234235524  MISS:     560088
cpu0_DTLB RFO       ACCESS:   55462432  HIT:   55335864  MISS:     126568
cpu0_DTLB PREFETCH  ACCESS:          0  HIT:          0  MISS:          0
cpu0_DTLB WRITEBACK ACCESS:          0  HIT:          0  MISS:          0
cpu0_ITLB TOTAL     ACCESS:  143000703  HIT:  142969422  MISS:      31281
cpu0_ITLB LOAD      ACCESS:  143000703  HIT:  142969422  MISS:      31281
cpu0_ITLB RFO       ACCESS:          0  HIT:          0  MISS:          0
cpu0_ITLB PREFETCH  ACCESS:          0  HIT:          0  MISS:          0
cpu0_ITLB WRITEBACK ACCESS:          0  HIT:          0  MISS:          0
cpu0_L1I TOTAL     ACCESS:    9627600  HIT:    8901057  MISS:     726543
cpu0_L1I LOAD      ACCESS:    9627600  HIT:    8901057  MISS:     726543
cpu0_L1I RFO       ACCESS:          0  HIT:          0  MISS:          0
cpu0_L1I PREFETCH  ACCESS:          0  HIT:          0  MISS:          0
cpu0_L1I WRITEBACK ACCESS:          0  HIT:          0  MISS:          0
cpu0_STLB TOTAL     ACCESS:     717937  HIT:     646815  MISS:      71122
cpu0_STLB LOAD      ACCESS:     591369  HIT:     548700  MISS:      42669
cpu0_STLB RFO       ACCESS:     126568  HIT:      98115  MISS:      28453
cpu0_STLB PREFETCH  ACCESS:          0  HIT:          0  MISS:          0
cpu0_STLB WRITEBACK ACCESS:          0  HIT:          0  MISS:          0
cpu0_L1D TOTAL     ACCESS:  241628706  HIT:  220085525  MISS:   21543181
cpu0_L1D LOAD      ACCESS:  162963235  HIT:  148912835  MISS:   14050400
cpu0_L1D RFO       ACCESS:   78596931  HIT:   71138659  MISS:    7458272
cpu0_L1D PREFETCH  ACCESS:          0  HIT:          0  MISS:          0
cpu0_L1D WRITEBACK ACCESS:          0  HIT:          0  MISS:          0
cpu0_L2C TOTAL     ACCESS:   31949434  HIT:   22312963  MISS:    9636471
cpu0_L2C LOAD      ACCESS:   14775491  HIT:    8308758  MISS:    6466733
cpu0_L2C RFO       ACCESS:    7457684  HIT:    4309923  MISS:    3147761
cpu0_L2C PREFETCH  ACCESS:          0  HIT:          0  MISS:          0
cpu0_L2C WRITEBACK ACCESS:    9681750  HIT:    9673594  MISS:       8156
LLC TOTAL     ACCESS:   14123058  HIT:     195322  MISS:   13927736
LLC LOAD      ACCESS:    6466729  HIT:      65625  MISS:    6401104
LLC RFO       ACCESS:    3147753  HIT:     129109  MISS:    3018644
LLC PREFETCH  ACCESS:          0  HIT:          0  MISS:          0
LLC WRITEBACK ACCESS:    4494755  HIT:        588  MISS:    4494167
Heartbeat CPU 0 instructions: 1550000003 cycles: 1072337361 heartbeat IPC: 2.1031 cumulative IPC: 1.41739 (Simulation time: 15 hr 55 min 42 sec) 

Region of Interest Statistics
cpu0_DTLB TOTAL     ACCESS:  290677461  HIT:  289990590  MISS:     686871
cpu0_DTLB LOAD      ACCESS:  235136841  HIT:  234576573  MISS:     560268
cpu0_DTLB RFO       ACCESS:   55540620  HIT:   55414017  MISS:     126603
cpu0_DTLB PREFETCH  ACCESS:          0  HIT:          0  MISS:          0
cpu0_DTLB WRITEBACK ACCESS:          0  HIT:          0  MISS:          0
cpu0_ITLB TOTAL     ACCESS:  143208834  HIT:  143177550  MISS:      31284
cpu0_ITLB LOAD      ACCESS:  143208834  HIT:  143177550  MISS:      31284
cpu0_ITLB RFO       ACCESS:          0  HIT:          0  MISS:          0
cpu0_ITLB PREFETCH  ACCESS:          0  HIT:          0  MISS:          0
cpu0_ITLB WRITEBACK ACCESS:          0  HIT:          0  MISS:          0
cpu0_L1I TOTAL     ACCESS:    9635475  HIT:    8908913  MISS:     726562
cpu0_L1I LOAD      ACCESS:    9635475  HIT:    8908913  MISS:     726562
cpu0_L1I RFO       ACCESS:          0  HIT:          0  MISS:          0
cpu0_L1I PREFETCH  ACCESS:          0  HIT:          0  MISS:          0
cpu0_L1I WRITEBACK ACCESS:          0  HIT:          0  MISS:          0
cpu0_STLB TOTAL     ACCESS:     718155  HIT:     647028  MISS:      71127
cpu0_STLB LOAD      ACCESS:     591552  HIT:     548878  MISS:      42674
cpu0_STLB RFO       ACCESS:     126603  HIT:      98150  MISS:      28453
cpu0_STLB PREFETCH  ACCESS:          0  HIT:          0  MISS:          0
cpu0_STLB WRITEBACK ACCESS:          0  HIT:          0  MISS:          0
cpu0_L1D TOTAL     ACCESS:  241954048  HIT:  220386995  MISS:   21567053
cpu0_L1D LOAD      ACCESS:  163196128  HIT:  149136096  MISS:   14060032
cpu0_L1D RFO       ACCESS:   78689377  HIT:   71216867  MISS:    7472510
cpu0_L1D PREFETCH  ACCESS:          0  HIT:          0  MISS:          0
cpu0_L1D WRITEBACK ACCESS:          0  HIT:          0  MISS:          0
cpu0_L2C TOTAL     ACCESS:   31989347  HIT:   22349368  MISS:    9639979
cpu0_L2C LOAD      ACCESS:   14785142  HIT:    8314905  MISS:    6470237
cpu0_L2C RFO       ACCESS:    7471922  HIT:    4324158  MISS:    3147764
cpu0_L2C PREFETCH  ACCESS:          0  HIT:          0  MISS:          0
cpu0_L2C WRITEBACK ACCESS:    9697772  HIT:    9689616  MISS:       8156
LLC TOTAL     ACCESS:   14128140  HIT:     195322  MISS:   13932818
LLC LOAD      ACCESS:    6470233  HIT:      65625  MISS:    6404608
LLC RFO       ACCESS:    3147756  HIT:     129109  MISS:    3018647
LLC PREFETCH  ACCESS:          0  HIT:          0  MISS:          0
LLC WRITEBACK ACCESS:    4496329  HIT:        588  MISS:    4495741
Finished CPU 0 instructions: 1500000002 cycles: 1058279569 cumulative IPC: 1.41739 (Simulation time: 15 hr 55 min 42 sec) 

ChampSim completed all CPUs

Region of Interest Statistics

CPU 0 cumulative IPC: 1.41739 instructions: 1500000002 cycles: 1058279569
cpu0_DTLB TOTAL     ACCESS:  290677461  HIT:  289990590  MISS:     686871
cpu0_DTLB LOAD      ACCESS:  235136841  HIT:  234576573  MISS:     560268
cpu0_DTLB RFO       ACCESS:   55540620  HIT:   55414017  MISS:     126603
cpu0_DTLB PREFETCH  ACCESS:          0  HIT:          0  MISS:          0
cpu0_DTLB WRITEBACK ACCESS:          0  HIT:          0  MISS:          0
cpu0_DTLB TRANSLATION ACCESS:          0  HIT:          0  MISS:          0
cpu0_DTLB PREFETCH  REQUESTED:          0  ISSUED:          0  USEFUL:          0  USELESS:          0
cpu0_DTLB AVERAGE MISS LATENCY: 31.0261 cycles
cpu0_ITLB TOTAL     ACCESS:  143208834  HIT:  143177550  MISS:      31284
cpu0_ITLB LOAD      ACCESS:  143208834  HIT:  143177550  MISS:      31284
cpu0_ITLB RFO       ACCESS:          0  HIT:          0  MISS:          0
cpu0_ITLB PREFETCH  ACCESS:          0  HIT:          0  MISS:          0
cpu0_ITLB WRITEBACK ACCESS:          0  HIT:          0  MISS:          0
cpu0_ITLB TRANSLATION ACCESS:          0  HIT:          0  MISS:          0
cpu0_ITLB PREFETCH  REQUESTED:          0  ISSUED:          0  USEFUL:          0  USELESS:          0
cpu0_ITLB AVERAGE MISS LATENCY: 13.244 cycles
cpu0_L1I TOTAL     ACCESS:    9635475  HIT:    8908913  MISS:     726562
cpu0_L1I LOAD      ACCESS:    9635475  HIT:    8908913  MISS:     726562
cpu0_L1I RFO       ACCESS:          0  HIT:          0  MISS:          0
cpu0_L1I PREFETCH  ACCESS:          0  HIT:          0  MISS:          0
cpu0_L1I WRITEBACK ACCESS:          0  HIT:          0  MISS:          0
cpu0_L1I TRANSLATION ACCESS:          0  HIT:          0  MISS:          0
cpu0_L1I PREFETCH  REQUESTED:          0  ISSUED:          0  USEFUL:          0  USELESS:          0
cpu0_L1I AVERAGE MISS LATENCY: 267.939 cycles
cpu0_STLB TOTAL     ACCESS:     718155  HIT:     647028  MISS:      71127
cpu0_STLB LOAD      ACCESS:     591552  HIT:     548878  MISS:      42674
cpu0_STLB RFO       ACCESS:     126603  HIT:      98150  MISS:      28453
cpu0_STLB PREFETCH  ACCESS:          0  HIT:          0  MISS:          0
cpu0_STLB WRITEBACK ACCESS:          0  HIT:          0  MISS:          0
cpu0_STLB TRANSLATION ACCESS:          0  HIT:          0  MISS:          0
cpu0_STLB PREFETCH  REQUESTED:          0  ISSUED:          0  USEFUL:          0  USELESS:          0
cpu0_STLB AVERAGE MISS LATENCY: 214.03 cycles
cpu0_L1D TOTAL     ACCESS:  241954048  HIT:  220386995  MISS:   21567053
cpu0_L1D LOAD      ACCESS:  163196128  HIT:  149136096  MISS:   14060032
cpu0_L1D RFO       ACCESS:   78689377  HIT:   71216867  MISS:    7472510
cpu0_L1D PREFETCH  ACCESS:          0  HIT:          0  MISS:          0
cpu0_L1D WRITEBACK ACCESS:          0  HIT:          0  MISS:          0
cpu0_L1D TRANSLATION ACCESS:      68543  HIT:      34032  MISS:      34511
cpu0_L1D PREFETCH  REQUESTED:          0  ISSUED:          0  USEFUL:          0  USELESS:          0
cpu0_L1D AVERAGE MISS LATENCY: 187.362 cycles
cpu0_L2C TOTAL     ACCESS:   31989347  HIT:   22349368  MISS:    9639979
cpu0_L2C LOAD      ACCESS:   14785142  HIT:    8314905  MISS:    6470237
cpu0_L2C RFO       ACCESS:    7471922  HIT:    4324158  MISS:    3147764
cpu0_L2C PREFETCH  ACCESS:          0  HIT:          0  MISS:          0
cpu0_L2C WRITEBACK ACCESS:    9697772  HIT:    9689616  MISS:       8156
cpu0_L2C TRANSLATION ACCESS:      34511  HIT:      20689  MISS:      13822
cpu0_L2C PREFETCH  REQUESTED:          0  ISSUED:          0  USEFUL:          0  USELESS:          0
cpu0_L2C AVERAGE MISS LATENCY: 413.77 cycles
LLC TOTAL     ACCESS:   14128140  HIT:     195322  MISS:   13932818
LLC LOAD      ACCESS:    6470233  HIT:      65625  MISS:    6404608
LLC RFO       ACCESS:    3147756  HIT:     129109  MISS:    3018647
LLC PREFETCH  ACCESS:          0  HIT:          0  MISS:          0
LLC WRITEBACK ACCESS:    4496329  HIT:        588  MISS:    4495741
LLC TRANSLATION ACCESS:      13822  HIT:          0  MISS:      13822
LLC PREFETCH  REQUESTED:          0  ISSUED:          0  USEFUL:          0  USELESS:          0
LLC AVERAGE MISS LATENCY: 271.766 cycles
~~~~~~~~~~Reuse Distance Profiler output~~~~~~~~~~
0	0	0
1	0	0
2	0	0
3	0	0
4	0	0
5	0	0
6	0	0
7	0	0
8	0	0
9	0	0
10	0	0
11	0	0
12	0	0
13	0	0
14	0	0
15	0	0
16	0	0
17	0	0
18	0	0
19	0	0
20	0	0
21	0	0
22	0	0
23	0	0
24	0	0
25	0	0
26	0	0
27	0	0
28	0	0
29	0	0
30	0	0
31	0	0
32	0	0
33	0	0
34	0	0
35	0	0
36	0	0
37	0	0
38	0	0
39	0	0
40	0	0
41	0	0
42	0	0
43	0	0
44	0	0
45	0	0
46	0	0
47	0	0
48	0	0
49	0	0
50	0	0
51	0	0
52	0	0
53	0	0
54	0	0
55	0	0
56	0	0
57	0	0
58	0	0
59	0	0
60	0	0
61	0	0
62	0	0
63	0	0
64	0	0
66	0	0
68	0	0
70	0	0
72	0	0
74	0	0
76	0	0
78	0	0
80	0	0
82	0	0
84	0	0
86	0	0
88	0	0
90	0	0
92	0	0
94	0	0
96	0	0
98	0	0
100	0	0
102	0	0
104	0	0
106	0	0
108	0	0
110	0	0
112	0	0
114	0	0
116	0	0
118	0	0
120	0	0
122	0	0
124	0	0
126	0	0
128	0	0
132	0	0
136	0	0
140	0	0
144	0	0
148	0	0
152	0	0
156	0	0
160	0	0
164	0	0
168	0	0
172	0	0
176	0	0
180	0	0
184	0	0
188	0	0
192	0	0
196	0	0
200	0	0
204	0	0
208	0	0
212	0	0
216	0	0
220	0	0
224	0	0
228	0	0
232	0	0
236	0	0
240	0	0
244	0	0
248	0	0
252	0	0
256	0	0
264	0	0
272	0	0
280	0	0
288	0	0
296	0	0
304	0	0
312	0	0
320	0	0
328	0	0
336	0	0
344	0	0
352	0	0
360	0	0
368	0	0
376	0	0
384	0	0
392	0	0
400	0	0
408	0	0
416	0	0
424	0	0
432	0	0
440	0	0
448	0	0
456	0	0
464	0	0
472	0	0
480	0	0
488	0	0
496	0	0
504	0	0
512	0	0
528	0	0
544	0	0
560	0	0
576	0	0
592	0	0
608	0	0
624	0	0
640	0	0
656	0	0
672	0	0
688	0	0
704	0	0
720	0	0
736	0	0
752	0	0
768	0	0
784	0	0
800	0	0
816	0	0
832	0	0
848	0	0
864	0	0
880	0	0
896	0	0
912	0	0
928	0	0
944	0	0
960	0	0
976	0	0
992	0	0
1008	0	0
1024	0	0
1056	0	0
1088	0	0
1120	0	0
1152	0	0
1184	0	0
1216	0	0
1248	0	0
1280	0	0
1312	0	0
1344	0	0
1376	0	0
1408	0	0
1440	0	0
1472	0	0
1504	0	0
1536	0	0
1568	0	0
1600	0	0
1632	0	0
1664	0	0
1696	0	0
1728	0	0
1760	0	0
1792	0	0
1824	0	0
1856	0	0
1888	0	0
1920	0	0
1952	0	0
1984	0	0
2016	0	0
2048	0	0
2112	0	0
2176	0	0
2240	0	0
2304	0	0
2368	0	0
2432	0	0
2496	0	0
2560	0	0
2624	0	0
2688	0	0
2752	0	0
2816	0	0
2880	0	0
2944	0	0
3008	0	0
3072	0	0
3136	0	0
3200	0	0
3264	0	0
3328	0	0
3392	0	0
3456	0	0
3520	0	0
3584	0	0
3648	0	0
3712	0	0
3776	0	0
3840	0	0
3904	0	0
3968	0	0
4032	0	0
4096	0	0
4224	0	0
4352	0	0
4480	0	0
4608	0	0
4736	0	0
4864	0	0
4992	0	0
5120	0	0
5248	0	0
5376	0	0
5504	0	0
5632	0	0
5760	0	0
5888	0	0
6016	0	0
6144	0	0
6272	0	0
6400	0	0
6528	0	0
6656	0	0
6784	0	0
6912	0	0
7040	0	0
7168	0	0
7296	0	0
7424	0	0
7552	0	0
7680	0	0
7808	0	0
7936	0	0
8064	0	0
8192	0	0
8448	0	0
8704	0	0
8960	0	0
9216	0	0
9472	0	0
9728	0	0
9984	0	0
10240	0	0
10496	0	0
10752	0	0
11008	0	0
11264	0	0
11520	0	0
11776	0	0
12032	0	0
12288	0	0
12544	0	0
12800	0	0
13056	0	0
13312	0	0
13568	0	0
13824	0	0
14080	0	0
14336	0	0
14592	0	0
14848	0	0
15104	0	0
15360	0	0
15616	0	0
15872	0	0
16128	0	0
16384	0	0
16896	0	0
17408	0	0
17920	0	0
18432	0	0
18944	0	0
19456	0	0
19968	0	0
20480	0	0
20992	0	0
21504	0	0
22016	0	0
22528	0	0
23040	0	0
23552	0	0
24064	0	0
24576	0	0
25088	0	0
25600	0	0
26112	0	0
26624	0	0
27136	0	0
27648	0	0
28160	0	0
28672	0	0
29184	0	0
29696	0	0
30208	0	0
30720	0	0
31232	0	0
31744	0	0
32256	0	0
32768	0	0
33792	0	0
34816	0	0
35840	0	0
36864	0	0
37888	0	0
38912	0	0
39936	0	0
40960	0	0
41984	0	0
43008	0	0
44032	0	0
45056	0	0
46080	0	0
47104	0	0
48128	0	0
49152	0	0
50176	0	0
51200	0	0
52224	0	0
53248	0	0
54272	0	0
55296	0	0
56320	0	0
57344	0	0
58368	0	0
59392	0	0
60416	0	0
61440	0	0
62464	0	0
63488	0	0
64512	0	0
65536	0	0
67584	0	0
69632	0	0
71680	0	0
73728	0	0
75776	0	0
77824	0	0
79872	0	0
81920	0	0
83968	0	0
86016	0	0
88064	0	0
90112	0	0
92160	0	0
94208	0	0
96256	0	0
98304	0	0
100352	0	0
102400	0	0
104448	0	0
106496	0	0
108544	0	0
110592	0	0
112640	0	0
114688	0	0
116736	0	0
118784	0	0
120832	0	0
122880	0	0
124928	0	0
126976	0	0
129024	0	0
131072	0	0
135168	0	0
139264	0	0
143360	0	0
147456	0	0
151552	0	0
155648	0	0
159744	0	0
163840	0	0
167936	0	0
172032	0	0
176128	0	0
180224	0	0
184320	0	0
188416	0	0
192512	0	0
196608	0	0
200704	0	0
204800	0	0
208896	0	0
212992	0	0
217088	0	0
221184	0	0
225280	0	0
229376	0	0
233472	0	0
237568	0	0
241664	0	0
245760	0	0
249856	0	0
253952	0	0
258048	0	0
262144	0	0
270336	0	0
278528	0	0
286720	0	0
294912	0	0
303104	0	0
311296	0	0
319488	0	0
327680	0	0
335872	0	0
344064	0	0
352256	0	0
360448	0	0
368640	0	0
376832	0	0
385024	0	0
393216	0	0
401408	0	0
409600	0	0
417792	0	0
425984	0	0
434176	0	0
442368	0	0
450560	0	0
458752	0	0
466944	0	0
475136	0	0
483328	0	0
491520	0	0
499712	0	0
507904	0	0
516096	0	0
524288	0	0
540672	0	0
557056	0	0
573440	0	0
589824	0	0
606208	0	0
622592	0	0
638976	0	0
655360	0	0
671744	0	0
688128	0	0
704512	0	0
720896	0	0
737280	0	0
753664	0	0
770048	0	0
786432	0	0
802816	0	0
819200	0	0
835584	0	0
851968	0	0
868352	0	0
884736	0	0
901120	0	0
917504	0	0
933888	0	0
950272	0	0
966656	0	0
983040	0	0
999424	0	0
1015808	0	0
1032192	0	0
1048576	0	0
1081344	0	0
1114112	0	0
1146880	0	0
1179648	0	0
1212416	0	0
1245184	0	0
1277952	0	0
1310720	0	0
1343488	0	0
1376256	0	0
1409024	0	0
1441792	0	0
1474560	0	0
1507328	0	0
1540096	0	0
1572864	0	0
1605632	0	0
1638400	0	0
1671168	0	0
1703936	0	0
1736704	0	0
1769472	0	0
1802240	0	0
1835008	0	0
1867776	0	0
1900544	0	0
1933312	0	0
1966080	0	0
1998848	0	0
2031616	0	0
2064384	0	0
2097152	0	0
2162688	0	0
2228224	0	0
2293760	0	0
2359296	0	0
2424832	0	0
2490368	0	0
2555904	0	0
2621440	0	0
2686976	0	0
2752512	0	0
2818048	0	0
2883584	0	0
2949120	0	0
3014656	0	0
3080192	0	0
3145728	0	0
3211264	0	0
3276800	0	0
3342336	0	0
3407872	0	0
3473408	0	0
3538944	0	0
3604480	0	0
3670016	0	0
3735552	0	0
3801088	0	0
3866624	0	0
3932160	0	0
3997696	0	0
4063232	0	0
4128768	0	0
4194304	0	0
4325376	0	0
4456448	0	0
4587520	0	0
4718592	0	0
4849664	0	0
4980736	0	0
5111808	0	0
5242880	0	0
5373952	0	0
5505024	0	0
5636096	0	0
5767168	0	0
5898240	0	0
6029312	0	0
6160384	0	0
6291456	0	0
6422528	0	0
6553600	0	0
6684672	0	0
6815744	0	0
6946816	0	0
7077888	0	0
7208960	0	0
7340032	0	0
7471104	0	0
7602176	0	0
7733248	0	0
7864320	0	0
7995392	0	0
8126464	0	0
8257536	0	0
8388608	0	0
8650752	0	0
8912896	0	0
9175040	0	0
9437184	0	0
9699328	0	0
9961472	0	0
10223616	0	0
10485760	0	0
10747904	0	0
11010048	0	0
11272192	0	0
11534336	0	0
11796480	0	0
12058624	0	0
12320768	0	0
12582912	0	0
12845056	0	0
13107200	0	0
13369344	0	0
13631488	0	0
13893632	0	0
14155776	0	0
14417920	0	0
14680064	0	0
14942208	0	0
15204352	0	0
15466496	0	0
15728640	0	0
15990784	0	0
16252928	0	0
16515072	0	0
16777216	0	0
17301504	0	0
17825792	0	0
18350080	0	0
18874368	0	0
19398656	0	0
19922944	0	0
20447232	0	0
20971520	0	0
21495808	0	0
22020096	0	0
22544384	0	0
23068672	0	0
23592960	0	0
24117248	0	0
24641536	0	0
25165824	0	0
25690112	0	0
26214400	0	0
26738688	0	0
27262976	0	0
27787264	0	0
28311552	0	0
28835840	0	0
29360128	0	0
29884416	0	0
30408704	0	0
30932992	0	0
31457280	0	0
31981568	0	0
32505856	0	0
33030144	0	0
33554432	0	0
34603008	0	0
35651584	0	0
36700160	0	0
37748736	0	0
38797312	0	0
39845888	0	0
40894464	0	0
41943040	0	0
42991616	0	0
44040192	0	0
45088768	0	0
46137344	0	0
47185920	0	0
48234496	0	0
49283072	0	0
50331648	0	0
51380224	0	0
52428800	0	0
53477376	0	0
54525952	0	0
55574528	0	0
56623104	0	0
57671680	0	0
58720256	0	0
59768832	0	0
60817408	0	0
61865984	0	0
62914560	0	0
63963136	0	0
65011712	0	0
66060288	0	0
67108864	0	0
69206016	0	0
71303168	0	0
73400320	0	0
75497472	0	0
77594624	0	0
79691776	0	0
81788928	0	0
83886080	0	0
85983232	0	0
88080384	0	0
90177536	0	0
92274688	0	0
94371840	0	0
96468992	0	0
98566144	0	0
100663296	0	0
102760448	0	0
104857600	0	0
106954752	0	0
109051904	0	0
111149056	0	0
113246208	0	0
115343360	0	0
117440512	0	0
119537664	0	0
121634816	0	0
123731968	0	0
125829120	0	0
127926272	0	0
130023424	0	0
132120576	0	0
134217728	0	0
138412032	0	0
142606336	0	0
146800640	0	0
150994944	0	0
155189248	0	0
159383552	0	0
163577856	0	0
167772160	0	0
171966464	0	0
176160768	0	0
180355072	0	0
184549376	0	0
188743680	0	0
192937984	0	0
197132288	0	0
201326592	0	0
205520896	0	0
209715200	0	0
213909504	0	0
218103808	0	0
222298112	0	0
226492416	0	0
230686720	0	0
234881024	0	0
239075328	0	0
243269632	0	0
247463936	0	0
251658240	0	0
255852544	0	0
260046848	0	0
264241152	0	0
268435456	0	0
276824064	0	0
285212672	0	0
293601280	0	0
301989888	0	0
310378496	0	0
318767104	0	0
327155712	0	0
335544320	0	0
343932928	0	0
352321536	0	0
360710144	0	0
369098752	0	0
377487360	0	0
385875968	0	0
394264576	0	0
402653184	0	0
411041792	0	0
419430400	0	0
427819008	0	0
436207616	0	0
444596224	0	0
452984832	0	0
461373440	0	0
469762048	0	0
478150656	0	0
486539264	0	0
494927872	0	0
503316480	0	0
511705088	0	0
520093696	0	0
528482304	0	0
536870912	0	0
553648128	0	0
570425344	0	0
587202560	0	0
603979776	0	0
620756992	0	0
637534208	0	0
654311424	0	0
671088640	0	0
687865856	0	0
704643072	0	0
721420288	0	0
738197504	0	0
754974720	0	0
771751936	0	0
788529152	0	0
805306368	0	0
822083584	0	0
838860800	0	0
855638016	0	0
872415232	0	0
889192448	0	0
905969664	0	0
922746880	0	0
939524096	0	0
956301312	0	0
973078528	0	0
989855744	0	0
1006632960	0	0
1023410176	0	0
1040187392	0	0
1056964608	0	0
1073741824	0	0
1107296256	0	0
1140850688	0	0
1174405120	0	0
1207959552	0	0
1241513984	0	0
1275068416	0	0
1308622848	0	0
1342177280	0	0
1375731712	0	0
1409286144	0	0
1442840576	0	0
1476395008	0	0
1509949440	0	0
1543503872	0	0
1577058304	0	0
1610612736	0	0
1644167168	0	0
1677721600	0	0
1711276032	0	0
1744830464	0	0
1778384896	0	0
1811939328	0	0
1845493760	0	0
1879048192	0	0
1912602624	0	0
1946157056	0	0
1979711488	0	0
2013265920	0	0
2046820352	0	0
2080374784	0	0
2113929216	0	0
2147483648	0	0
2214592512	0	0
2281701376	0	0
2348810240	0	0
2415919104	0	0
2483027968	0	0
2550136832	0	0
2617245696	0	0
2684354560	0	0
2751463424	0	0
2818572288	0	0
2885681152	0	0
2952790016	0	0
3019898880	0	0
3087007744	0	0
3154116608	0	0
3221225472	0	0
3288334336	0	0
3355443200	0	0
3422552064	0	0
3489660928	0	0
3556769792	0	0
3623878656	0	0
3690987520	0	0
3758096384	0	0
3825205248	0	0
3892314112	0	0
3959422976	0	0
4026531840	0	0
4093640704	0	0
4160749568	0	0
4227858432	0	0
~~~~~~~~~~Reuse Distance Profiler output end~~~~~~~~~~


DRAM Statistics
 CHANNEL 0
 RQ ROW_BUFFER_HIT:    2140927  ROW_BUFFER_MISS:    7284263
 DBUS AVG_CONGESTED_CYCLE:    3.94703
 WQ ROW_BUFFER_HIT:     385856  ROW_BUFFER_MISS:    4110402  FULL:        345


CPU 0 Branch Prediction Accuracy: 95.9961% MPKI: 6.16963 Average ROB Occupancy at Mispredict: 128.68
Branch type MPKI
BRANCH_DIRECT_JUMP: 7.6e-05
BRANCH_INDIRECT: 0.000691333
BRANCH_CONDITIONAL: 6.16855
BRANCH_DIRECT_CALL: 0.000196
BRANCH_INDIRECT_CALL: 0
BRANCH_RETURN: 0.000118667

