
*** ChampSim Multicore Out-of-Order Simulator ***

Warmup Instructions: 50000000
Simulation Instructions: 1500000000
Number of CPUs: 1
Off-chip DRAM Size: 4 GiB Channels: 1 Width: 64-bit Data Rate: 3200 MT/s

VirtualMemory physical capacity: 8588881920 num_ppages: 2096895
VirtualMemory page size: 4096 log2_page_size: 12

CPU 0 runs traces/638.imagick_s-10316B.champsimtrace.xz
CPU 0 Bimodal branch predictor
Basic BTB sets: 1024 ways: 8 indirect buffer size: 4096 RAS size: 64
Initializing LRU.
Initializing LRU.
Initializing LRU.
Initializing LRU.
Initializing rdLRU.
Initializing LRU.
Initializing LRU.
Heartbeat CPU 0 instructions: 2000002 cycles: 500064 heartbeat IPC: 3.99949 cumulative IPC: 3.99949 (Simulation time: 0 hr 0 min 52 sec) 
Heartbeat CPU 0 instructions: 4000002 cycles: 1000064 heartbeat IPC: 4 cumulative IPC: 3.99975 (Simulation time: 0 hr 1 min 43 sec) 
Heartbeat CPU 0 instructions: 6000002 cycles: 1500064 heartbeat IPC: 4 cumulative IPC: 3.99983 (Simulation time: 0 hr 2 min 34 sec) 
Heartbeat CPU 0 instructions: 8000002 cycles: 2000064 heartbeat IPC: 4 cumulative IPC: 3.99987 (Simulation time: 0 hr 3 min 25 sec) 
Heartbeat CPU 0 instructions: 10000002 cycles: 2500064 heartbeat IPC: 4 cumulative IPC: 3.9999 (Simulation time: 0 hr 4 min 17 sec) 
Heartbeat CPU 0 instructions: 12000002 cycles: 3000064 heartbeat IPC: 4 cumulative IPC: 3.99992 (Simulation time: 0 hr 5 min 4 sec) 
Heartbeat CPU 0 instructions: 14000002 cycles: 3500064 heartbeat IPC: 4 cumulative IPC: 3.99993 (Simulation time: 0 hr 5 min 50 sec) 
Heartbeat CPU 0 instructions: 16000002 cycles: 4000064 heartbeat IPC: 4 cumulative IPC: 3.99994 (Simulation time: 0 hr 6 min 31 sec) 
Heartbeat CPU 0 instructions: 18000002 cycles: 4500064 heartbeat IPC: 4 cumulative IPC: 3.99994 (Simulation time: 0 hr 7 min 9 sec) 
Heartbeat CPU 0 instructions: 20000002 cycles: 5000064 heartbeat IPC: 4 cumulative IPC: 3.99995 (Simulation time: 0 hr 7 min 41 sec) 
Heartbeat CPU 0 instructions: 22000002 cycles: 5500064 heartbeat IPC: 4 cumulative IPC: 3.99995 (Simulation time: 0 hr 8 min 29 sec) 
Heartbeat CPU 0 instructions: 24000002 cycles: 6000064 heartbeat IPC: 4 cumulative IPC: 3.99996 (Simulation time: 0 hr 9 min 9 sec) 
Heartbeat CPU 0 instructions: 26000002 cycles: 6500064 heartbeat IPC: 4 cumulative IPC: 3.99996 (Simulation time: 0 hr 9 min 57 sec) 
Heartbeat CPU 0 instructions: 28000002 cycles: 7000064 heartbeat IPC: 4 cumulative IPC: 3.99996 (Simulation time: 0 hr 10 min 44 sec) 
Heartbeat CPU 0 instructions: 30000002 cycles: 7500064 heartbeat IPC: 4 cumulative IPC: 3.99997 (Simulation time: 0 hr 11 min 34 sec) 
Heartbeat CPU 0 instructions: 32000002 cycles: 8000064 heartbeat IPC: 4 cumulative IPC: 3.99997 (Simulation time: 0 hr 12 min 21 sec) 
Heartbeat CPU 0 instructions: 34000002 cycles: 8500064 heartbeat IPC: 4 cumulative IPC: 3.99997 (Simulation time: 0 hr 13 min 11 sec) 
Heartbeat CPU 0 instructions: 36000002 cycles: 9000064 heartbeat IPC: 4 cumulative IPC: 3.99997 (Simulation time: 0 hr 14 min 0 sec) 
Heartbeat CPU 0 instructions: 38000002 cycles: 9500064 heartbeat IPC: 4 cumulative IPC: 3.99997 (Simulation time: 0 hr 14 min 48 sec) 
Heartbeat CPU 0 instructions: 40000002 cycles: 10000064 heartbeat IPC: 4 cumulative IPC: 3.99997 (Simulation time: 0 hr 15 min 39 sec) 
Heartbeat CPU 0 instructions: 42000002 cycles: 10500064 heartbeat IPC: 4 cumulative IPC: 3.99998 (Simulation time: 0 hr 16 min 26 sec) 
Heartbeat CPU 0 instructions: 44000002 cycles: 11000064 heartbeat IPC: 4 cumulative IPC: 3.99998 (Simulation time: 0 hr 17 min 16 sec) 
Heartbeat CPU 0 instructions: 46000002 cycles: 11500064 heartbeat IPC: 4 cumulative IPC: 3.99998 (Simulation time: 0 hr 18 min 7 sec) 
Heartbeat CPU 0 instructions: 48000002 cycles: 12000064 heartbeat IPC: 4 cumulative IPC: 3.99998 (Simulation time: 0 hr 18 min 57 sec) 
Heartbeat CPU 0 instructions: 50000002 cycles: 12500064 heartbeat IPC: 4 cumulative IPC: 3.99998 (Simulation time: 0 hr 19 min 47 sec) 

Warmup complete CPU 0 instructions: 50000002 cycles: 12500064 (Simulation time: 0 hr 19 min 47 sec) 

Heartbeat CPU 0 instructions: 52000002 cycles: 13192930 heartbeat IPC: 2.88656 cumulative IPC: 2.88656 (Simulation time: 0 hr 20 min 42 sec) 

Region of Interest Statistics
cpu0_DTLB TOTAL     ACCESS:     168645  HIT:     167715  MISS:        930
cpu0_DTLB LOAD      ACCESS:     168586  HIT:     167668  MISS:        918
cpu0_DTLB RFO       ACCESS:         59  HIT:         47  MISS:         12
cpu0_DTLB PREFETCH  ACCESS:          0  HIT:          0  MISS:          0
cpu0_DTLB WRITEBACK ACCESS:          0  HIT:          0  MISS:          0
cpu0_ITLB TOTAL     ACCESS:      50872  HIT:      50872  MISS:          0
cpu0_ITLB LOAD      ACCESS:      50872  HIT:      50872  MISS:          0
cpu0_ITLB RFO       ACCESS:          0  HIT:          0  MISS:          0
cpu0_ITLB PREFETCH  ACCESS:          0  HIT:          0  MISS:          0
cpu0_ITLB WRITEBACK ACCESS:          0  HIT:          0  MISS:          0
cpu0_STLB TOTAL     ACCESS:        930  HIT:        929  MISS:          1
cpu0_STLB LOAD      ACCESS:        918  HIT:        917  MISS:          1
cpu0_STLB RFO       ACCESS:         12  HIT:         12  MISS:          0
cpu0_STLB PREFETCH  ACCESS:          0  HIT:          0  MISS:          0
cpu0_STLB WRITEBACK ACCESS:          0  HIT:          0  MISS:          0
cpu0_L1D TOTAL     ACCESS:      69148  HIT:      51347  MISS:      17801
cpu0_L1D LOAD      ACCESS:      69052  HIT:      51265  MISS:      17787
cpu0_L1D RFO       ACCESS:         95  HIT:         82  MISS:         13
cpu0_L1D PREFETCH  ACCESS:          0  HIT:          0  MISS:          0
cpu0_L1D WRITEBACK ACCESS:          0  HIT:          0  MISS:          0
cpu0_L2C TOTAL     ACCESS:      17832  HIT:      17313  MISS:        519
cpu0_L2C LOAD      ACCESS:      17787  HIT:      17269  MISS:        518
cpu0_L2C RFO       ACCESS:         13  HIT:         12  MISS:          1
cpu0_L2C PREFETCH  ACCESS:          0  HIT:          0  MISS:          0
cpu0_L2C WRITEBACK ACCESS:         31  HIT:         31  MISS:          0
LLC TOTAL     ACCESS:        519  HIT:        435  MISS:         84
LLC LOAD      ACCESS:        518  HIT:        435  MISS:         83
LLC RFO       ACCESS:          1  HIT:          0  MISS:          1
LLC PREFETCH  ACCESS:          0  HIT:          0  MISS:          0
LLC WRITEBACK ACCESS:          0  HIT:          0  MISS:          0
Heartbeat CPU 0 instructions: 54000002 cycles: 13886857 heartbeat IPC: 2.88215 cumulative IPC: 2.88435 (Simulation time: 0 hr 21 min 38 sec) 

Region of Interest Statistics
cpu0_DTLB TOTAL     ACCESS:     337379  HIT:     335526  MISS:       1853
cpu0_DTLB LOAD      ACCESS:     337276  HIT:     335444  MISS:       1832
cpu0_DTLB RFO       ACCESS:        103  HIT:         82  MISS:         21
cpu0_DTLB PREFETCH  ACCESS:          0  HIT:          0  MISS:          0
cpu0_DTLB WRITEBACK ACCESS:          0  HIT:          0  MISS:          0
cpu0_ITLB TOTAL     ACCESS:     102864  HIT:     102864  MISS:          0
cpu0_ITLB LOAD      ACCESS:     102864  HIT:     102864  MISS:          0
cpu0_ITLB RFO       ACCESS:          0  HIT:          0  MISS:          0
cpu0_ITLB PREFETCH  ACCESS:          0  HIT:          0  MISS:          0
cpu0_ITLB WRITEBACK ACCESS:          0  HIT:          0  MISS:          0
cpu0_STLB TOTAL     ACCESS:       1853  HIT:       1851  MISS:          2
cpu0_STLB LOAD      ACCESS:       1832  HIT:       1830  MISS:          2
cpu0_STLB RFO       ACCESS:         21  HIT:         21  MISS:          0
cpu0_STLB PREFETCH  ACCESS:          0  HIT:          0  MISS:          0
cpu0_STLB WRITEBACK ACCESS:          0  HIT:          0  MISS:          0
cpu0_L1D TOTAL     ACCESS:     138938  HIT:     103348  MISS:      35590
cpu0_L1D LOAD      ACCESS:     138766  HIT:     103201  MISS:      35565
cpu0_L1D RFO       ACCESS:        170  HIT:        147  MISS:         23
cpu0_L1D PREFETCH  ACCESS:          0  HIT:          0  MISS:          0
cpu0_L1D WRITEBACK ACCESS:          0  HIT:          0  MISS:          0
cpu0_L2C TOTAL     ACCESS:      35646  HIT:      34595  MISS:       1051
cpu0_L2C LOAD      ACCESS:      35565  HIT:      34515  MISS:       1050
cpu0_L2C RFO       ACCESS:         23  HIT:         22  MISS:          1
cpu0_L2C PREFETCH  ACCESS:          0  HIT:          0  MISS:          0
cpu0_L2C WRITEBACK ACCESS:         56  HIT:         56  MISS:          0
LLC TOTAL     ACCESS:       1051  HIT:        880  MISS:        171
LLC LOAD      ACCESS:       1050  HIT:        880  MISS:        170
LLC RFO       ACCESS:          1  HIT:          0  MISS:          1
LLC PREFETCH  ACCESS:          0  HIT:          0  MISS:          0
LLC WRITEBACK ACCESS:          0  HIT:          0  MISS:          0
Heartbeat CPU 0 instructions: 56000001 cycles: 14577544 heartbeat IPC: 2.89567 cumulative IPC: 2.88811 (Simulation time: 0 hr 22 min 34 sec) 

Region of Interest Statistics
cpu0_DTLB TOTAL     ACCESS:     506023  HIT:     503244  MISS:       2779
cpu0_DTLB LOAD      ACCESS:     505867  HIT:     503120  MISS:       2747
cpu0_DTLB RFO       ACCESS:        156  HIT:        124  MISS:         32
cpu0_DTLB PREFETCH  ACCESS:          0  HIT:          0  MISS:          0
cpu0_DTLB WRITEBACK ACCESS:          0  HIT:          0  MISS:          0
cpu0_ITLB TOTAL     ACCESS:     155611  HIT:     155611  MISS:          0
cpu0_ITLB LOAD      ACCESS:     155611  HIT:     155611  MISS:          0
cpu0_ITLB RFO       ACCESS:          0  HIT:          0  MISS:          0
cpu0_ITLB PREFETCH  ACCESS:          0  HIT:          0  MISS:          0
cpu0_ITLB WRITEBACK ACCESS:          0  HIT:          0  MISS:          0
cpu0_STLB TOTAL     ACCESS:       2779  HIT:       2775  MISS:          4
cpu0_STLB LOAD      ACCESS:       2747  HIT:       2743  MISS:          4
cpu0_STLB RFO       ACCESS:         32  HIT:         32  MISS:          0
cpu0_STLB PREFETCH  ACCESS:          0  HIT:          0  MISS:          0
cpu0_STLB WRITEBACK ACCESS:          0  HIT:          0  MISS:          0
cpu0_L1D TOTAL     ACCESS:     208311  HIT:     154915  MISS:      53396
cpu0_L1D LOAD      ACCESS:     208047  HIT:     154691  MISS:      53356
cpu0_L1D RFO       ACCESS:        260  HIT:        224  MISS:         36
cpu0_L1D PREFETCH  ACCESS:          0  HIT:          0  MISS:          0
cpu0_L1D WRITEBACK ACCESS:          0  HIT:          0  MISS:          0
cpu0_L2C TOTAL     ACCESS:      53483  HIT:      51913  MISS:       1570
cpu0_L2C LOAD      ACCESS:      53356  HIT:      51788  MISS:       1568
cpu0_L2C RFO       ACCESS:         36  HIT:         34  MISS:          2
cpu0_L2C PREFETCH  ACCESS:          0  HIT:          0  MISS:          0
cpu0_L2C WRITEBACK ACCESS:         87  HIT:         87  MISS:          0
LLC TOTAL     ACCESS:       1570  HIT:       1315  MISS:        255
LLC LOAD      ACCESS:       1568  HIT:       1315  MISS:        253
LLC RFO       ACCESS:          2  HIT:          0  MISS:          2
LLC PREFETCH  ACCESS:          0  HIT:          0  MISS:          0
LLC WRITEBACK ACCESS:          0  HIT:          0  MISS:          0
Heartbeat CPU 0 instructions: 58000004 cycles: 15271354 heartbeat IPC: 2.88264 cumulative IPC: 2.88674 (Simulation time: 0 hr 23 min 32 sec) 

Region of Interest Statistics
cpu0_DTLB TOTAL     ACCESS:     674805  HIT:     671104  MISS:       3701
cpu0_DTLB LOAD      ACCESS:     674595  HIT:     670938  MISS:       3657
cpu0_DTLB RFO       ACCESS:        210  HIT:        166  MISS:         44
cpu0_DTLB PREFETCH  ACCESS:          0  HIT:          0  MISS:          0
cpu0_DTLB WRITEBACK ACCESS:          0  HIT:          0  MISS:          0
cpu0_ITLB TOTAL     ACCESS:     206777  HIT:     206777  MISS:          0
cpu0_ITLB LOAD      ACCESS:     206777  HIT:     206777  MISS:          0
cpu0_ITLB RFO       ACCESS:          0  HIT:          0  MISS:          0
cpu0_ITLB PREFETCH  ACCESS:          0  HIT:          0  MISS:          0
cpu0_ITLB WRITEBACK ACCESS:          0  HIT:          0  MISS:          0
cpu0_STLB TOTAL     ACCESS:       3701  HIT:       3697  MISS:          4
cpu0_STLB LOAD      ACCESS:       3657  HIT:       3653  MISS:          4
cpu0_STLB RFO       ACCESS:         44  HIT:         44  MISS:          0
cpu0_STLB PREFETCH  ACCESS:          0  HIT:          0  MISS:          0
cpu0_STLB WRITEBACK ACCESS:          0  HIT:          0  MISS:          0
cpu0_L1D TOTAL     ACCESS:     277663  HIT:     206465  MISS:      71198
cpu0_L1D LOAD      ACCESS:     277309  HIT:     206164  MISS:      71145
cpu0_L1D RFO       ACCESS:        350  HIT:        301  MISS:         49
cpu0_L1D PREFETCH  ACCESS:          0  HIT:          0  MISS:          0
cpu0_L1D WRITEBACK ACCESS:          0  HIT:          0  MISS:          0
cpu0_L2C TOTAL     ACCESS:      71311  HIT:      69210  MISS:       2101
cpu0_L2C LOAD      ACCESS:      71145  HIT:      69047  MISS:       2098
cpu0_L2C RFO       ACCESS:         49  HIT:         46  MISS:          3
cpu0_L2C PREFETCH  ACCESS:          0  HIT:          0  MISS:          0
cpu0_L2C WRITEBACK ACCESS:        113  HIT:        113  MISS:          0
LLC TOTAL     ACCESS:       2101  HIT:       1758  MISS:        343
LLC LOAD      ACCESS:       2098  HIT:       1758  MISS:        340
LLC RFO       ACCESS:          3  HIT:          0  MISS:          3
LLC PREFETCH  ACCESS:          0  HIT:          0  MISS:          0
LLC WRITEBACK ACCESS:          0  HIT:          0  MISS:          0
Heartbeat CPU 0 instructions: 60000001 cycles: 15963764 heartbeat IPC: 2.88846 cumulative IPC: 2.88709 (Simulation time: 0 hr 24 min 29 sec) 

Region of Interest Statistics
cpu0_DTLB TOTAL     ACCESS:     843580  HIT:     838957  MISS:       4623
cpu0_DTLB LOAD      ACCESS:     843326  HIT:     838756  MISS:       4570
cpu0_DTLB RFO       ACCESS:        254  HIT:        201  MISS:         53
cpu0_DTLB PREFETCH  ACCESS:          0  HIT:          0  MISS:          0
cpu0_DTLB WRITEBACK ACCESS:          0  HIT:          0  MISS:          0
cpu0_ITLB TOTAL     ACCESS:     258623  HIT:     258623  MISS:          0
cpu0_ITLB LOAD      ACCESS:     258623  HIT:     258623  MISS:          0
cpu0_ITLB RFO       ACCESS:          0  HIT:          0  MISS:          0
cpu0_ITLB PREFETCH  ACCESS:          0  HIT:          0  MISS:          0
cpu0_ITLB WRITEBACK ACCESS:          0  HIT:          0  MISS:          0
cpu0_STLB TOTAL     ACCESS:       4623  HIT:       4617  MISS:          6
cpu0_STLB LOAD      ACCESS:       4570  HIT:       4564  MISS:          6
cpu0_STLB RFO       ACCESS:         53  HIT:         53  MISS:          0
cpu0_STLB PREFETCH  ACCESS:          0  HIT:          0  MISS:          0
cpu0_STLB WRITEBACK ACCESS:          0  HIT:          0  MISS:          0
cpu0_L1D TOTAL     ACCESS:     347160  HIT:     258170  MISS:      88990
cpu0_L1D LOAD      ACCESS:     346729  HIT:     257804  MISS:      88925
cpu0_L1D RFO       ACCESS:        425  HIT:        366  MISS:         59
cpu0_L1D PREFETCH  ACCESS:          0  HIT:          0  MISS:          0
cpu0_L1D WRITEBACK ACCESS:          0  HIT:          0  MISS:          0
cpu0_L2C TOTAL     ACCESS:      89133  HIT:      86541  MISS:       2592
cpu0_L2C LOAD      ACCESS:      88925  HIT:      86336  MISS:       2589
cpu0_L2C RFO       ACCESS:         59  HIT:         56  MISS:          3
cpu0_L2C PREFETCH  ACCESS:          0  HIT:          0  MISS:          0
cpu0_L2C WRITEBACK ACCESS:        143  HIT:        143  MISS:          0
LLC TOTAL     ACCESS:       2592  HIT:       2166  MISS:        426
LLC LOAD      ACCESS:       2589  HIT:       2166  MISS:        423
LLC RFO       ACCESS:          3  HIT:          0  MISS:          3
LLC PREFETCH  ACCESS:          0  HIT:          0  MISS:          0
LLC WRITEBACK ACCESS:          0  HIT:          0  MISS:          0
Heartbeat CPU 0 instructions: 62000001 cycles: 16655014 heartbeat IPC: 2.89331 cumulative IPC: 2.88812 (Simulation time: 0 hr 25 min 26 sec) 

Region of Interest Statistics
cpu0_DTLB TOTAL     ACCESS:    1011827  HIT:    1006269  MISS:       5558
cpu0_DTLB LOAD      ACCESS:    1011520  HIT:    1006026  MISS:       5494
cpu0_DTLB RFO       ACCESS:        307  HIT:        243  MISS:         64
cpu0_DTLB PREFETCH  ACCESS:          0  HIT:          0  MISS:          0
cpu0_DTLB WRITEBACK ACCESS:          0  HIT:          0  MISS:          0
cpu0_ITLB TOTAL     ACCESS:     311070  HIT:     311070  MISS:          0
cpu0_ITLB LOAD      ACCESS:     311070  HIT:     311070  MISS:          0
cpu0_ITLB RFO       ACCESS:          0  HIT:          0  MISS:          0
cpu0_ITLB PREFETCH  ACCESS:          0  HIT:          0  MISS:          0
cpu0_ITLB WRITEBACK ACCESS:          0  HIT:          0  MISS:          0
cpu0_STLB TOTAL     ACCESS:       5558  HIT:       5550  MISS:          8
cpu0_STLB LOAD      ACCESS:       5494  HIT:       5486  MISS:          8
cpu0_STLB RFO       ACCESS:         64  HIT:         64  MISS:          0
cpu0_STLB PREFETCH  ACCESS:          0  HIT:          0  MISS:          0
cpu0_STLB WRITEBACK ACCESS:          0  HIT:          0  MISS:          0
cpu0_L1D TOTAL     ACCESS:     416521  HIT:     309730  MISS:     106791
cpu0_L1D LOAD      ACCESS:     415998  HIT:     309287  MISS:     106711
cpu0_L1D RFO       ACCESS:        515  HIT:        443  MISS:         72
cpu0_L1D PREFETCH  ACCESS:          0  HIT:          0  MISS:          0
cpu0_L1D WRITEBACK ACCESS:          0  HIT:          0  MISS:          0
cpu0_L2C TOTAL     ACCESS:     106965  HIT:     103829  MISS:       3136
cpu0_L2C LOAD      ACCESS:     106711  HIT:     103579  MISS:       3132
cpu0_L2C RFO       ACCESS:         72  HIT:         68  MISS:          4
cpu0_L2C PREFETCH  ACCESS:          0  HIT:          0  MISS:          0
cpu0_L2C WRITEBACK ACCESS:        174  HIT:        174  MISS:          0
LLC TOTAL     ACCESS:       3136  HIT:       2627  MISS:        509
LLC LOAD      ACCESS:       3132  HIT:       2627  MISS:        505
LLC RFO       ACCESS:          4  HIT:          0  MISS:          4
LLC PREFETCH  ACCESS:          0  HIT:          0  MISS:          0
LLC WRITEBACK ACCESS:          0  HIT:          0  MISS:          0
Heartbeat CPU 0 instructions: 64000002 cycles: 17349540 heartbeat IPC: 2.87966 cumulative IPC: 2.88691 (Simulation time: 0 hr 26 min 20 sec) 

Region of Interest Statistics
cpu0_DTLB TOTAL     ACCESS:    1180619  HIT:    1174132  MISS:       6487
cpu0_DTLB LOAD      ACCESS:    1180267  HIT:    1173854  MISS:       6413
cpu0_DTLB RFO       ACCESS:        352  HIT:        278  MISS:         74
cpu0_DTLB PREFETCH  ACCESS:          0  HIT:          0  MISS:          0
cpu0_DTLB WRITEBACK ACCESS:          0  HIT:          0  MISS:          0
cpu0_ITLB TOTAL     ACCESS:     363147  HIT:     363147  MISS:          0
cpu0_ITLB LOAD      ACCESS:     363147  HIT:     363147  MISS:          0
cpu0_ITLB RFO       ACCESS:          0  HIT:          0  MISS:          0
cpu0_ITLB PREFETCH  ACCESS:          0  HIT:          0  MISS:          0
cpu0_ITLB WRITEBACK ACCESS:          0  HIT:          0  MISS:          0
cpu0_STLB TOTAL     ACCESS:       6487  HIT:       6478  MISS:          9
cpu0_STLB LOAD      ACCESS:       6413  HIT:       6404  MISS:          9
cpu0_STLB RFO       ACCESS:         74  HIT:         74  MISS:          0
cpu0_STLB PREFETCH  ACCESS:          0  HIT:          0  MISS:          0
cpu0_STLB WRITEBACK ACCESS:          0  HIT:          0  MISS:          0
cpu0_L1D TOTAL     ACCESS:     486366  HIT:     361780  MISS:     124586
cpu0_L1D LOAD      ACCESS:     485767  HIT:     361273  MISS:     124494
cpu0_L1D RFO       ACCESS:        590  HIT:        507  MISS:         83
cpu0_L1D PREFETCH  ACCESS:          0  HIT:          0  MISS:          0
cpu0_L1D WRITEBACK ACCESS:          0  HIT:          0  MISS:          0
cpu0_L2C TOTAL     ACCESS:     124786  HIT:     121138  MISS:       3648
cpu0_L2C LOAD      ACCESS:     124494  HIT:     120851  MISS:       3643
cpu0_L2C RFO       ACCESS:         83  HIT:         78  MISS:          5
cpu0_L2C PREFETCH  ACCESS:          0  HIT:          0  MISS:          0
cpu0_L2C WRITEBACK ACCESS:        200  HIT:        200  MISS:          0
LLC TOTAL     ACCESS:       3648  HIT:       3051  MISS:        597
LLC LOAD      ACCESS:       3643  HIT:       3051  MISS:        592
LLC RFO       ACCESS:          5  HIT:          0  MISS:          5
LLC PREFETCH  ACCESS:          0  HIT:          0  MISS:          0
LLC WRITEBACK ACCESS:          0  HIT:          0  MISS:          0
Heartbeat CPU 0 instructions: 66000000 cycles: 18041134 heartbeat IPC: 2.89187 cumulative IPC: 2.88753 (Simulation time: 0 hr 27 min 15 sec) 

Region of Interest Statistics
cpu0_DTLB TOTAL     ACCESS:    1349471  HIT:    1342051  MISS:       7420
cpu0_DTLB LOAD      ACCESS:    1349066  HIT:    1341731  MISS:       7335
cpu0_DTLB RFO       ACCESS:        405  HIT:        320  MISS:         85
cpu0_DTLB PREFETCH  ACCESS:          0  HIT:          0  MISS:          0
cpu0_DTLB WRITEBACK ACCESS:          0  HIT:          0  MISS:          0
cpu0_ITLB TOTAL     ACCESS:     414269  HIT:     414269  MISS:          0
cpu0_ITLB LOAD      ACCESS:     414269  HIT:     414269  MISS:          0
cpu0_ITLB RFO       ACCESS:          0  HIT:          0  MISS:          0
cpu0_ITLB PREFETCH  ACCESS:          0  HIT:          0  MISS:          0
cpu0_ITLB WRITEBACK ACCESS:          0  HIT:          0  MISS:          0
cpu0_STLB TOTAL     ACCESS:       7420  HIT:       7410  MISS:         10
cpu0_STLB LOAD      ACCESS:       7335  HIT:       7325  MISS:         10
cpu0_STLB RFO       ACCESS:         85  HIT:         85  MISS:          0
cpu0_STLB PREFETCH  ACCESS:          0  HIT:          0  MISS:          0
cpu0_STLB WRITEBACK ACCESS:          0  HIT:          0  MISS:          0
cpu0_L1D TOTAL     ACCESS:     555300  HIT:     412912  MISS:     142388
cpu0_L1D LOAD      ACCESS:     554610  HIT:     412328  MISS:     142282
cpu0_L1D RFO       ACCESS:        680  HIT:        584  MISS:         96
cpu0_L1D PREFETCH  ACCESS:          0  HIT:          0  MISS:          0
cpu0_L1D WRITEBACK ACCESS:          0  HIT:          0  MISS:          0
cpu0_L2C TOTAL     ACCESS:     142619  HIT:     138452  MISS:       4167
cpu0_L2C LOAD      ACCESS:     142282  HIT:     138121  MISS:       4161
cpu0_L2C RFO       ACCESS:         96  HIT:         90  MISS:          6
cpu0_L2C PREFETCH  ACCESS:          0  HIT:          0  MISS:          0
cpu0_L2C WRITEBACK ACCESS:        231  HIT:        231  MISS:          0
LLC TOTAL     ACCESS:       4167  HIT:       3486  MISS:        681
LLC LOAD      ACCESS:       4161  HIT:       3486  MISS:        675
LLC RFO       ACCESS:          6  HIT:          0  MISS:          6
LLC PREFETCH  ACCESS:          0  HIT:          0  MISS:          0
LLC WRITEBACK ACCESS:          0  HIT:          0  MISS:          0
Heartbeat CPU 0 instructions: 68000001 cycles: 18732728 heartbeat IPC: 2.89187 cumulative IPC: 2.88801 (Simulation time: 0 hr 28 min 9 sec) 

Region of Interest Statistics
cpu0_DTLB TOTAL     ACCESS:    1517372  HIT:    1509022  MISS:       8350
cpu0_DTLB LOAD      ACCESS:    1516914  HIT:    1508660  MISS:       8254
cpu0_DTLB RFO       ACCESS:        458  HIT:        362  MISS:         96
cpu0_DTLB PREFETCH  ACCESS:          0  HIT:          0  MISS:          0
cpu0_DTLB WRITEBACK ACCESS:          0  HIT:          0  MISS:          0
cpu0_ITLB TOTAL     ACCESS:     466559  HIT:     466559  MISS:          0
cpu0_ITLB LOAD      ACCESS:     466559  HIT:     466559  MISS:          0
cpu0_ITLB RFO       ACCESS:          0  HIT:          0  MISS:          0
cpu0_ITLB PREFETCH  ACCESS:          0  HIT:          0  MISS:          0
cpu0_ITLB WRITEBACK ACCESS:          0  HIT:          0  MISS:          0
cpu0_STLB TOTAL     ACCESS:       8350  HIT:       8340  MISS:         10
cpu0_STLB LOAD      ACCESS:       8254  HIT:       8244  MISS:         10
cpu0_STLB RFO       ACCESS:         96  HIT:         96  MISS:          0
cpu0_STLB PREFETCH  ACCESS:          0  HIT:          0  MISS:          0
cpu0_STLB WRITEBACK ACCESS:          0  HIT:          0  MISS:          0
cpu0_L1D TOTAL     ACCESS:     624728  HIT:     464543  MISS:     160185
cpu0_L1D LOAD      ACCESS:     623948  HIT:     463881  MISS:     160067
cpu0_L1D RFO       ACCESS:        770  HIT:        662  MISS:        108
cpu0_L1D PREFETCH  ACCESS:          0  HIT:          0  MISS:          0
cpu0_L1D WRITEBACK ACCESS:          0  HIT:          0  MISS:          0
cpu0_L2C TOTAL     ACCESS:     160441  HIT:     155744  MISS:       4697
cpu0_L2C LOAD      ACCESS:     160067  HIT:     155376  MISS:       4691
cpu0_L2C RFO       ACCESS:        108  HIT:        102  MISS:          6
cpu0_L2C PREFETCH  ACCESS:          0  HIT:          0  MISS:          0
cpu0_L2C WRITEBACK ACCESS:        256  HIT:        256  MISS:          0
LLC TOTAL     ACCESS:       4697  HIT:       3934  MISS:        763
LLC LOAD      ACCESS:       4691  HIT:       3934  MISS:        757
LLC RFO       ACCESS:          6  HIT:          0  MISS:          6
LLC PREFETCH  ACCESS:          0  HIT:          0  MISS:          0
LLC WRITEBACK ACCESS:          0  HIT:          0  MISS:          0
Heartbeat CPU 0 instructions: 70000000 cycles: 19425815 heartbeat IPC: 2.88564 cumulative IPC: 2.88777 (Simulation time: 0 hr 29 min 1 sec) 

Region of Interest Statistics
cpu0_DTLB TOTAL     ACCESS:    1686739  HIT:    1677470  MISS:       9269
cpu0_DTLB LOAD      ACCESS:    1686236  HIT:    1677073  MISS:       9163
cpu0_DTLB RFO       ACCESS:        503  HIT:        397  MISS:        106
cpu0_DTLB PREFETCH  ACCESS:          0  HIT:          0  MISS:          0
cpu0_DTLB WRITEBACK ACCESS:          0  HIT:          0  MISS:          0
cpu0_ITLB TOTAL     ACCESS:     518866  HIT:     518866  MISS:          0
cpu0_ITLB LOAD      ACCESS:     518866  HIT:     518866  MISS:          0
cpu0_ITLB RFO       ACCESS:          0  HIT:          0  MISS:          0
cpu0_ITLB PREFETCH  ACCESS:          0  HIT:          0  MISS:          0
cpu0_ITLB WRITEBACK ACCESS:          0  HIT:          0  MISS:          0
cpu0_STLB TOTAL     ACCESS:       9269  HIT:       9258  MISS:         11
cpu0_STLB LOAD      ACCESS:       9163  HIT:       9152  MISS:         11
cpu0_STLB RFO       ACCESS:        106  HIT:        106  MISS:          0
cpu0_STLB PREFETCH  ACCESS:          0  HIT:          0  MISS:          0
cpu0_STLB WRITEBACK ACCESS:          0  HIT:          0  MISS:          0
cpu0_L1D TOTAL     ACCESS:     694733  HIT:     516755  MISS:     177978
cpu0_L1D LOAD      ACCESS:     693877  HIT:     516029  MISS:     177848
cpu0_L1D RFO       ACCESS:        845  HIT:        726  MISS:        119
cpu0_L1D PREFETCH  ACCESS:          0  HIT:          0  MISS:          0
cpu0_L1D WRITEBACK ACCESS:          0  HIT:          0  MISS:          0
cpu0_L2C TOTAL     ACCESS:     178265  HIT:     173055  MISS:       5210
cpu0_L2C LOAD      ACCESS:     177848  HIT:     172645  MISS:       5203
cpu0_L2C RFO       ACCESS:        119  HIT:        112  MISS:          7
cpu0_L2C PREFETCH  ACCESS:          0  HIT:          0  MISS:          0
cpu0_L2C WRITEBACK ACCESS:        287  HIT:        287  MISS:          0
LLC TOTAL     ACCESS:       5210  HIT:       4359  MISS:        851
LLC LOAD      ACCESS:       5203  HIT:       4359  MISS:        844
LLC RFO       ACCESS:          7  HIT:          0  MISS:          7
LLC PREFETCH  ACCESS:          0  HIT:          0  MISS:          0
LLC WRITEBACK ACCESS:          0  HIT:          0  MISS:          0
Heartbeat CPU 0 instructions: 72000004 cycles: 20118580 heartbeat IPC: 2.88699 cumulative IPC: 2.8877 (Simulation time: 0 hr 29 min 55 sec) 

Region of Interest Statistics
cpu0_DTLB TOTAL     ACCESS:    1855394  HIT:    1845198  MISS:      10196
cpu0_DTLB LOAD      ACCESS:    1854838  HIT:    1844759  MISS:      10079
cpu0_DTLB RFO       ACCESS:        556  HIT:        439  MISS:        117
cpu0_DTLB PREFETCH  ACCESS:          0  HIT:          0  MISS:          0
cpu0_DTLB WRITEBACK ACCESS:          0  HIT:          0  MISS:          0
cpu0_ITLB TOTAL     ACCESS:     569769  HIT:     569769  MISS:          0
cpu0_ITLB LOAD      ACCESS:     569769  HIT:     569769  MISS:          0
cpu0_ITLB RFO       ACCESS:          0  HIT:          0  MISS:          0
cpu0_ITLB PREFETCH  ACCESS:          0  HIT:          0  MISS:          0
cpu0_ITLB WRITEBACK ACCESS:          0  HIT:          0  MISS:          0
cpu0_L1I TOTAL     ACCESS:          1  HIT:          1  MISS:          0
cpu0_L1I LOAD      ACCESS:          1  HIT:          1  MISS:          0
cpu0_L1I RFO       ACCESS:          0  HIT:          0  MISS:          0
cpu0_L1I PREFETCH  ACCESS:          0  HIT:          0  MISS:          0
cpu0_L1I WRITEBACK ACCESS:          0  HIT:          0  MISS:          0
cpu0_STLB TOTAL     ACCESS:      10196  HIT:      10183  MISS:         13
cpu0_STLB LOAD      ACCESS:      10079  HIT:      10066  MISS:         13
cpu0_STLB RFO       ACCESS:        117  HIT:        117  MISS:          0
cpu0_STLB PREFETCH  ACCESS:          0  HIT:          0  MISS:          0
cpu0_STLB WRITEBACK ACCESS:          0  HIT:          0  MISS:          0
cpu0_L1D TOTAL     ACCESS:     763769  HIT:     567984  MISS:     195785
cpu0_L1D LOAD      ACCESS:     762819  HIT:     567179  MISS:     195640
cpu0_L1D RFO       ACCESS:        937  HIT:        805  MISS:        132
cpu0_L1D PREFETCH  ACCESS:          0  HIT:          0  MISS:          0
cpu0_L1D WRITEBACK ACCESS:          0  HIT:          0  MISS:          0
cpu0_L2C TOTAL     ACCESS:     196098  HIT:     190356  MISS:       5742
cpu0_L2C LOAD      ACCESS:     195640  HIT:     189906  MISS:       5734
cpu0_L2C RFO       ACCESS:        132  HIT:        124  MISS:          8
cpu0_L2C PREFETCH  ACCESS:          0  HIT:          0  MISS:          0
cpu0_L2C WRITEBACK ACCESS:        313  HIT:        313  MISS:          0
LLC TOTAL     ACCESS:       5742  HIT:       4807  MISS:        935
LLC LOAD      ACCESS:       5734  HIT:       4807  MISS:        927
LLC RFO       ACCESS:          8  HIT:          0  MISS:          8
LLC PREFETCH  ACCESS:          0  HIT:          0  MISS:          0
LLC WRITEBACK ACCESS:          0  HIT:          0  MISS:          0
Heartbeat CPU 0 instructions: 74000002 cycles: 20812031 heartbeat IPC: 2.88412 cumulative IPC: 2.8874 (Simulation time: 0 hr 30 min 49 sec) 

Region of Interest Statistics
cpu0_DTLB TOTAL     ACCESS:    2023797  HIT:    2012676  MISS:      11121
cpu0_DTLB LOAD      ACCESS:    2023193  HIT:    2012199  MISS:      10994
cpu0_DTLB RFO       ACCESS:        604  HIT:        477  MISS:        127
cpu0_DTLB PREFETCH  ACCESS:          0  HIT:          0  MISS:          0
cpu0_DTLB WRITEBACK ACCESS:          0  HIT:          0  MISS:          0
cpu0_ITLB TOTAL     ACCESS:     621732  HIT:     621732  MISS:          0
cpu0_ITLB LOAD      ACCESS:     621732  HIT:     621732  MISS:          0
cpu0_ITLB RFO       ACCESS:          0  HIT:          0  MISS:          0
cpu0_ITLB PREFETCH  ACCESS:          0  HIT:          0  MISS:          0
cpu0_ITLB WRITEBACK ACCESS:          0  HIT:          0  MISS:          0
cpu0_L1I TOTAL     ACCESS:          1  HIT:          1  MISS:          0
cpu0_L1I LOAD      ACCESS:          1  HIT:          1  MISS:          0
cpu0_L1I RFO       ACCESS:          0  HIT:          0  MISS:          0
cpu0_L1I PREFETCH  ACCESS:          0  HIT:          0  MISS:          0
cpu0_L1I WRITEBACK ACCESS:          0  HIT:          0  MISS:          0
cpu0_STLB TOTAL     ACCESS:      11121  HIT:      11106  MISS:         15
cpu0_STLB LOAD      ACCESS:      10994  HIT:      10979  MISS:         15
cpu0_STLB RFO       ACCESS:        127  HIT:        127  MISS:          0
cpu0_STLB PREFETCH  ACCESS:          0  HIT:          0  MISS:          0
cpu0_STLB WRITEBACK ACCESS:          0  HIT:          0  MISS:          0
cpu0_L1D TOTAL     ACCESS:     833587  HIT:     620007  MISS:     213580
cpu0_L1D LOAD      ACCESS:     832552  HIT:     619129  MISS:     213423
cpu0_L1D RFO       ACCESS:       1020  HIT:        878  MISS:        142
cpu0_L1D PREFETCH  ACCESS:          0  HIT:          0  MISS:          0
cpu0_L1D WRITEBACK ACCESS:          0  HIT:          0  MISS:          0
cpu0_L2C TOTAL     ACCESS:     213923  HIT:     207688  MISS:       6235
cpu0_L2C LOAD      ACCESS:     213423  HIT:     207196  MISS:       6227
cpu0_L2C RFO       ACCESS:        142  HIT:        134  MISS:          8
cpu0_L2C PREFETCH  ACCESS:          0  HIT:          0  MISS:          0
cpu0_L2C WRITEBACK ACCESS:        343  HIT:        343  MISS:          0
LLC TOTAL     ACCESS:       6235  HIT:       5215  MISS:       1020
LLC LOAD      ACCESS:       6227  HIT:       5215  MISS:       1012
LLC RFO       ACCESS:          8  HIT:          0  MISS:          8
LLC PREFETCH  ACCESS:          0  HIT:          0  MISS:          0
LLC WRITEBACK ACCESS:          0  HIT:          0  MISS:          0
Heartbeat CPU 0 instructions: 76000000 cycles: 21503870 heartbeat IPC: 2.89084 cumulative IPC: 2.88767 (Simulation time: 0 hr 31 min 43 sec) 

Region of Interest Statistics
cpu0_DTLB TOTAL     ACCESS:    2192525  HIT:    2180466  MISS:      12059
cpu0_DTLB LOAD      ACCESS:    2191868  HIT:    2179947  MISS:      11921
cpu0_DTLB RFO       ACCESS:        657  HIT:        519  MISS:        138
cpu0_DTLB PREFETCH  ACCESS:          0  HIT:          0  MISS:          0
cpu0_DTLB WRITEBACK ACCESS:          0  HIT:          0  MISS:          0
cpu0_ITLB TOTAL     ACCESS:     674415  HIT:     674415  MISS:          0
cpu0_ITLB LOAD      ACCESS:     674415  HIT:     674415  MISS:          0
cpu0_ITLB RFO       ACCESS:          0  HIT:          0  MISS:          0
cpu0_ITLB PREFETCH  ACCESS:          0  HIT:          0  MISS:          0
cpu0_ITLB WRITEBACK ACCESS:          0  HIT:          0  MISS:          0
cpu0_L1I TOTAL     ACCESS:          1  HIT:          1  MISS:          0
cpu0_L1I LOAD      ACCESS:          1  HIT:          1  MISS:          0
cpu0_L1I RFO       ACCESS:          0  HIT:          0  MISS:          0
cpu0_L1I PREFETCH  ACCESS:          0  HIT:          0  MISS:          0
cpu0_L1I WRITEBACK ACCESS:          0  HIT:          0  MISS:          0
cpu0_STLB TOTAL     ACCESS:      12059  HIT:      12043  MISS:         16
cpu0_STLB LOAD      ACCESS:      11921  HIT:      11905  MISS:         16
cpu0_STLB RFO       ACCESS:        138  HIT:        138  MISS:          0
cpu0_STLB PREFETCH  ACCESS:          0  HIT:          0  MISS:          0
cpu0_STLB WRITEBACK ACCESS:          0  HIT:          0  MISS:          0
cpu0_L1D TOTAL     ACCESS:     902860  HIT:     671471  MISS:     231389
cpu0_L1D LOAD      ACCESS:     901722  HIT:     670504  MISS:     231218
cpu0_L1D RFO       ACCESS:       1122  HIT:        967  MISS:        155
cpu0_L1D PREFETCH  ACCESS:          0  HIT:          0  MISS:          0
cpu0_L1D WRITEBACK ACCESS:          0  HIT:          0  MISS:          0
cpu0_L2C TOTAL     ACCESS:     231763  HIT:     224978  MISS:       6785
cpu0_L2C LOAD      ACCESS:     231218  HIT:     224442  MISS:       6776
cpu0_L2C RFO       ACCESS:        155  HIT:        146  MISS:          9
cpu0_L2C PREFETCH  ACCESS:          0  HIT:          0  MISS:          0
cpu0_L2C WRITEBACK ACCESS:        374  HIT:        374  MISS:          0
LLC TOTAL     ACCESS:       6785  HIT:       5679  MISS:       1106
LLC LOAD      ACCESS:       6776  HIT:       5679  MISS:       1097
LLC RFO       ACCESS:          9  HIT:          0  MISS:          9
LLC PREFETCH  ACCESS:          0  HIT:          0  MISS:          0
LLC WRITEBACK ACCESS:          0  HIT:          0  MISS:          0
Heartbeat CPU 0 instructions: 78000000 cycles: 22197104 heartbeat IPC: 2.88503 cumulative IPC: 2.88748 (Simulation time: 0 hr 32 min 37 sec) 

Region of Interest Statistics
cpu0_DTLB TOTAL     ACCESS:    2361127  HIT:    2348140  MISS:      12987
cpu0_DTLB LOAD      ACCESS:    2360425  HIT:    2347586  MISS:      12839
cpu0_DTLB RFO       ACCESS:        702  HIT:        554  MISS:        148
cpu0_DTLB PREFETCH  ACCESS:          0  HIT:          0  MISS:          0
cpu0_DTLB WRITEBACK ACCESS:          0  HIT:          0  MISS:          0
cpu0_ITLB TOTAL     ACCESS:     725574  HIT:     725574  MISS:          0
cpu0_ITLB LOAD      ACCESS:     725574  HIT:     725574  MISS:          0
cpu0_ITLB RFO       ACCESS:          0  HIT:          0  MISS:          0
cpu0_ITLB PREFETCH  ACCESS:          0  HIT:          0  MISS:          0
cpu0_ITLB WRITEBACK ACCESS:          0  HIT:          0  MISS:          0
cpu0_L1I TOTAL     ACCESS:          1  HIT:          1  MISS:          0
cpu0_L1I LOAD      ACCESS:          1  HIT:          1  MISS:          0
cpu0_L1I RFO       ACCESS:          0  HIT:          0  MISS:          0
cpu0_L1I PREFETCH  ACCESS:          0  HIT:          0  MISS:          0
cpu0_L1I WRITEBACK ACCESS:          0  HIT:          0  MISS:          0
cpu0_STLB TOTAL     ACCESS:      12987  HIT:      12970  MISS:         17
cpu0_STLB LOAD      ACCESS:      12839  HIT:      12822  MISS:         17
cpu0_STLB RFO       ACCESS:        148  HIT:        148  MISS:          0
cpu0_STLB PREFETCH  ACCESS:          0  HIT:          0  MISS:          0
cpu0_STLB WRITEBACK ACCESS:          0  HIT:          0  MISS:          0
cpu0_L1D TOTAL     ACCESS:     972130  HIT:     722944  MISS:     249186
cpu0_L1D LOAD      ACCESS:     970906  HIT:     721903  MISS:     249003
cpu0_L1D RFO       ACCESS:       1207  HIT:       1041  MISS:        166
cpu0_L1D PREFETCH  ACCESS:          0  HIT:          0  MISS:          0
cpu0_L1D WRITEBACK ACCESS:          0  HIT:          0  MISS:          0
cpu0_L2C TOTAL     ACCESS:     249586  HIT:     242282  MISS:       7304
cpu0_L2C LOAD      ACCESS:     249003  HIT:     241709  MISS:       7294
cpu0_L2C RFO       ACCESS:        166  HIT:        156  MISS:         10
cpu0_L2C PREFETCH  ACCESS:          0  HIT:          0  MISS:          0
cpu0_L2C WRITEBACK ACCESS:        400  HIT:        400  MISS:          0
LLC TOTAL     ACCESS:       7304  HIT:       6112  MISS:       1192
LLC LOAD      ACCESS:       7294  HIT:       6112  MISS:       1182
LLC RFO       ACCESS:         10  HIT:          0  MISS:         10
LLC PREFETCH  ACCESS:          0  HIT:          0  MISS:          0
LLC WRITEBACK ACCESS:          0  HIT:          0  MISS:          0
Heartbeat CPU 0 instructions: 80000002 cycles: 22889992 heartbeat IPC: 2.88647 cumulative IPC: 2.88741 (Simulation time: 0 hr 33 min 31 sec) 

Region of Interest Statistics
cpu0_DTLB TOTAL     ACCESS:    2529765  HIT:    2515844  MISS:      13921
cpu0_DTLB LOAD      ACCESS:    2529010  HIT:    2515249  MISS:      13761
cpu0_DTLB RFO       ACCESS:        755  HIT:        595  MISS:        160
cpu0_DTLB PREFETCH  ACCESS:          0  HIT:          0  MISS:          0
cpu0_DTLB WRITEBACK ACCESS:          0  HIT:          0  MISS:          0
cpu0_ITLB TOTAL     ACCESS:     777358  HIT:     777358  MISS:          0
cpu0_ITLB LOAD      ACCESS:     777358  HIT:     777358  MISS:          0
cpu0_ITLB RFO       ACCESS:          0  HIT:          0  MISS:          0
cpu0_ITLB PREFETCH  ACCESS:          0  HIT:          0  MISS:          0
cpu0_ITLB WRITEBACK ACCESS:          0  HIT:          0  MISS:          0
cpu0_L1I TOTAL     ACCESS:          2  HIT:          2  MISS:          0
cpu0_L1I LOAD      ACCESS:          2  HIT:          2  MISS:          0
cpu0_L1I RFO       ACCESS:          0  HIT:          0  MISS:          0
cpu0_L1I PREFETCH  ACCESS:          0  HIT:          0  MISS:          0
cpu0_L1I WRITEBACK ACCESS:          0  HIT:          0  MISS:          0
cpu0_STLB TOTAL     ACCESS:      13921  HIT:      13904  MISS:         17
cpu0_STLB LOAD      ACCESS:      13761  HIT:      13744  MISS:         17
cpu0_STLB RFO       ACCESS:        160  HIT:        160  MISS:          0
cpu0_STLB PREFETCH  ACCESS:          0  HIT:          0  MISS:          0
cpu0_STLB WRITEBACK ACCESS:          0  HIT:          0  MISS:          0
cpu0_L1D TOTAL     ACCESS:    1041725  HIT:     774733  MISS:     266992
cpu0_L1D LOAD      ACCESS:    1040399  HIT:     773602  MISS:     266797
cpu0_L1D RFO       ACCESS:       1309  HIT:       1131  MISS:        178
cpu0_L1D PREFETCH  ACCESS:          0  HIT:          0  MISS:          0
cpu0_L1D WRITEBACK ACCESS:          0  HIT:          0  MISS:          0
cpu0_L2C TOTAL     ACCESS:     267422  HIT:     259620  MISS:       7802
cpu0_L2C LOAD      ACCESS:     266797  HIT:     259005  MISS:       7792
cpu0_L2C RFO       ACCESS:        178  HIT:        168  MISS:         10
cpu0_L2C PREFETCH  ACCESS:          0  HIT:          0  MISS:          0
cpu0_L2C WRITEBACK ACCESS:        430  HIT:        430  MISS:          0
LLC TOTAL     ACCESS:       7802  HIT:       6525  MISS:       1277
LLC LOAD      ACCESS:       7792  HIT:       6525  MISS:       1267
LLC RFO       ACCESS:         10  HIT:          0  MISS:         10
LLC PREFETCH  ACCESS:          0  HIT:          0  MISS:          0
LLC WRITEBACK ACCESS:          0  HIT:          0  MISS:          0
Heartbeat CPU 0 instructions: 82000003 cycles: 23581115 heartbeat IPC: 2.89384 cumulative IPC: 2.88781 (Simulation time: 0 hr 34 min 26 sec) 

Region of Interest Statistics
cpu0_DTLB TOTAL     ACCESS:    2698066  HIT:    2683214  MISS:      14852
cpu0_DTLB LOAD      ACCESS:    2697258  HIT:    2682577  MISS:      14681
cpu0_DTLB RFO       ACCESS:        808  HIT:        637  MISS:        171
cpu0_DTLB PREFETCH  ACCESS:          0  HIT:          0  MISS:          0
cpu0_DTLB WRITEBACK ACCESS:          0  HIT:          0  MISS:          0
cpu0_ITLB TOTAL     ACCESS:     829960  HIT:     829960  MISS:          0
cpu0_ITLB LOAD      ACCESS:     829960  HIT:     829960  MISS:          0
cpu0_ITLB RFO       ACCESS:          0  HIT:          0  MISS:          0
cpu0_ITLB PREFETCH  ACCESS:          0  HIT:          0  MISS:          0
cpu0_ITLB WRITEBACK ACCESS:          0  HIT:          0  MISS:          0
cpu0_L1I TOTAL     ACCESS:          2  HIT:          2  MISS:          0
cpu0_L1I LOAD      ACCESS:          2  HIT:          2  MISS:          0
cpu0_L1I RFO       ACCESS:          0  HIT:          0  MISS:          0
cpu0_L1I PREFETCH  ACCESS:          0  HIT:          0  MISS:          0
cpu0_L1I WRITEBACK ACCESS:          0  HIT:          0  MISS:          0
cpu0_STLB TOTAL     ACCESS:      14852  HIT:      14834  MISS:         18
cpu0_STLB LOAD      ACCESS:      14681  HIT:      14663  MISS:         18
cpu0_STLB RFO       ACCESS:        171  HIT:        171  MISS:          0
cpu0_STLB PREFETCH  ACCESS:          0  HIT:          0  MISS:          0
cpu0_STLB WRITEBACK ACCESS:          0  HIT:          0  MISS:          0
cpu0_L1D TOTAL     ACCESS:    1111016  HIT:     826215  MISS:     284801
cpu0_L1D LOAD      ACCESS:    1109587  HIT:     824995  MISS:     284592
cpu0_L1D RFO       ACCESS:       1411  HIT:       1220  MISS:        191
cpu0_L1D PREFETCH  ACCESS:          0  HIT:          0  MISS:          0
cpu0_L1D WRITEBACK ACCESS:          0  HIT:          0  MISS:          0
cpu0_L2C TOTAL     ACCESS:     285257  HIT:     276906  MISS:       8351
cpu0_L2C LOAD      ACCESS:     284592  HIT:     276252  MISS:       8340
cpu0_L2C RFO       ACCESS:        191  HIT:        180  MISS:         11
cpu0_L2C PREFETCH  ACCESS:          0  HIT:          0  MISS:          0
cpu0_L2C WRITEBACK ACCESS:        456  HIT:        456  MISS:          0
LLC TOTAL     ACCESS:       8351  HIT:       6990  MISS:       1361
LLC LOAD      ACCESS:       8340  HIT:       6990  MISS:       1350
LLC RFO       ACCESS:         11  HIT:          0  MISS:         11
LLC PREFETCH  ACCESS:          0  HIT:          0  MISS:          0
LLC WRITEBACK ACCESS:          0  HIT:          0  MISS:          0
Heartbeat CPU 0 instructions: 84000004 cycles: 24275378 heartbeat IPC: 2.88075 cumulative IPC: 2.8874 (Simulation time: 0 hr 35 min 20 sec) 

Region of Interest Statistics
cpu0_DTLB TOTAL     ACCESS:    2866595  HIT:    2850820  MISS:      15775
cpu0_DTLB LOAD      ACCESS:    2865742  HIT:    2850148  MISS:      15594
cpu0_DTLB RFO       ACCESS:        853  HIT:        672  MISS:        181
cpu0_DTLB PREFETCH  ACCESS:          0  HIT:          0  MISS:          0
cpu0_DTLB WRITEBACK ACCESS:          0  HIT:          0  MISS:          0
cpu0_ITLB TOTAL     ACCESS:     882036  HIT:     882036  MISS:          0
cpu0_ITLB LOAD      ACCESS:     882036  HIT:     882036  MISS:          0
cpu0_ITLB RFO       ACCESS:          0  HIT:          0  MISS:          0
cpu0_ITLB PREFETCH  ACCESS:          0  HIT:          0  MISS:          0
cpu0_ITLB WRITEBACK ACCESS:          0  HIT:          0  MISS:          0
cpu0_L1I TOTAL     ACCESS:          2  HIT:          2  MISS:          0
cpu0_L1I LOAD      ACCESS:          2  HIT:          2  MISS:          0
cpu0_L1I RFO       ACCESS:          0  HIT:          0  MISS:          0
cpu0_L1I PREFETCH  ACCESS:          0  HIT:          0  MISS:          0
cpu0_L1I WRITEBACK ACCESS:          0  HIT:          0  MISS:          0
cpu0_STLB TOTAL     ACCESS:      15775  HIT:      15755  MISS:         20
cpu0_STLB LOAD      ACCESS:      15594  HIT:      15574  MISS:         20
cpu0_STLB RFO       ACCESS:        181  HIT:        181  MISS:          0
cpu0_STLB PREFETCH  ACCESS:          0  HIT:          0  MISS:          0
cpu0_STLB WRITEBACK ACCESS:          0  HIT:          0  MISS:          0
cpu0_L1D TOTAL     ACCESS:    1180874  HIT:     878277  MISS:     302597
cpu0_L1D LOAD      ACCESS:    1179358  HIT:     876983  MISS:     302375
cpu0_L1D RFO       ACCESS:       1496  HIT:       1294  MISS:        202
cpu0_L1D PREFETCH  ACCESS:          0  HIT:          0  MISS:          0
cpu0_L1D WRITEBACK ACCESS:          0  HIT:          0  MISS:          0
cpu0_L2C TOTAL     ACCESS:     303084  HIT:     294234  MISS:       8850
cpu0_L2C LOAD      ACCESS:     302375  HIT:     293537  MISS:       8838
cpu0_L2C RFO       ACCESS:        202  HIT:        190  MISS:         12
cpu0_L2C PREFETCH  ACCESS:          0  HIT:          0  MISS:          0
cpu0_L2C WRITEBACK ACCESS:        487  HIT:        487  MISS:          0
LLC TOTAL     ACCESS:       8850  HIT:       7402  MISS:       1448
LLC LOAD      ACCESS:       8838  HIT:       7402  MISS:       1436
LLC RFO       ACCESS:         12  HIT:          0  MISS:         12
LLC PREFETCH  ACCESS:          0  HIT:          0  MISS:          0
LLC WRITEBACK ACCESS:          0  HIT:          0  MISS:          0
Heartbeat CPU 0 instructions: 86000000 cycles: 24967501 heartbeat IPC: 2.88965 cumulative IPC: 2.88752 (Simulation time: 0 hr 36 min 12 sec) 

Region of Interest Statistics
cpu0_DTLB TOTAL     ACCESS:    3035291  HIT:    3018585  MISS:      16706
cpu0_DTLB LOAD      ACCESS:    3034385  HIT:    3017871  MISS:      16514
cpu0_DTLB RFO       ACCESS:        906  HIT:        714  MISS:        192
cpu0_DTLB PREFETCH  ACCESS:          0  HIT:          0  MISS:          0
cpu0_DTLB WRITEBACK ACCESS:          0  HIT:          0  MISS:          0
cpu0_ITLB TOTAL     ACCESS:     933384  HIT:     933384  MISS:          0
cpu0_ITLB LOAD      ACCESS:     933384  HIT:     933384  MISS:          0
cpu0_ITLB RFO       ACCESS:          0  HIT:          0  MISS:          0
cpu0_ITLB PREFETCH  ACCESS:          0  HIT:          0  MISS:          0
cpu0_ITLB WRITEBACK ACCESS:          0  HIT:          0  MISS:          0
cpu0_L1I TOTAL     ACCESS:          2  HIT:          2  MISS:          0
cpu0_L1I LOAD      ACCESS:          2  HIT:          2  MISS:          0
cpu0_L1I RFO       ACCESS:          0  HIT:          0  MISS:          0
cpu0_L1I PREFETCH  ACCESS:          0  HIT:          0  MISS:          0
cpu0_L1I WRITEBACK ACCESS:          0  HIT:          0  MISS:          0
cpu0_STLB TOTAL     ACCESS:      16706  HIT:      16684  MISS:         22
cpu0_STLB LOAD      ACCESS:      16514  HIT:      16492  MISS:         22
cpu0_STLB RFO       ACCESS:        192  HIT:        192  MISS:          0
cpu0_STLB PREFETCH  ACCESS:          0  HIT:          0  MISS:          0
cpu0_STLB WRITEBACK ACCESS:          0  HIT:          0  MISS:          0
cpu0_L1D TOTAL     ACCESS:    1249993  HIT:     929587  MISS:     320406
cpu0_L1D LOAD      ACCESS:    1248373  HIT:     928204  MISS:     320169
cpu0_L1D RFO       ACCESS:       1598  HIT:       1383  MISS:        215
cpu0_L1D PREFETCH  ACCESS:          0  HIT:          0  MISS:          0
cpu0_L1D WRITEBACK ACCESS:          0  HIT:          0  MISS:          0
cpu0_L2C TOTAL     ACCESS:     320924  HIT:     311545  MISS:       9379
cpu0_L2C LOAD      ACCESS:     320169  HIT:     310803  MISS:       9366
cpu0_L2C RFO       ACCESS:        215  HIT:        202  MISS:         13
cpu0_L2C PREFETCH  ACCESS:          0  HIT:          0  MISS:          0
cpu0_L2C WRITEBACK ACCESS:        518  HIT:        518  MISS:          0
LLC TOTAL     ACCESS:       9379  HIT:       7847  MISS:       1532
LLC LOAD      ACCESS:       9366  HIT:       7847  MISS:       1519
LLC RFO       ACCESS:         13  HIT:          0  MISS:         13
LLC PREFETCH  ACCESS:          0  HIT:          0  MISS:          0
LLC WRITEBACK ACCESS:          0  HIT:          0  MISS:          0
Heartbeat CPU 0 instructions: 88000002 cycles: 25659495 heartbeat IPC: 2.8902 cumulative IPC: 2.88766 (Simulation time: 0 hr 37 min 4 sec) 

Region of Interest Statistics
cpu0_DTLB TOTAL     ACCESS:    3203168  HIT:    3185537  MISS:      17631
cpu0_DTLB LOAD      ACCESS:    3202218  HIT:    3184788  MISS:      17430
cpu0_DTLB RFO       ACCESS:        950  HIT:        749  MISS:        201
cpu0_DTLB PREFETCH  ACCESS:          0  HIT:          0  MISS:          0
cpu0_DTLB WRITEBACK ACCESS:          0  HIT:          0  MISS:          0
cpu0_ITLB TOTAL     ACCESS:     985930  HIT:     985930  MISS:          0
cpu0_ITLB LOAD      ACCESS:     985930  HIT:     985930  MISS:          0
cpu0_ITLB RFO       ACCESS:          0  HIT:          0  MISS:          0
cpu0_ITLB PREFETCH  ACCESS:          0  HIT:          0  MISS:          0
cpu0_ITLB WRITEBACK ACCESS:          0  HIT:          0  MISS:          0
cpu0_L1I TOTAL     ACCESS:          2  HIT:          2  MISS:          0
cpu0_L1I LOAD      ACCESS:          2  HIT:          2  MISS:          0
cpu0_L1I RFO       ACCESS:          0  HIT:          0  MISS:          0
cpu0_L1I PREFETCH  ACCESS:          0  HIT:          0  MISS:          0
cpu0_L1I WRITEBACK ACCESS:          0  HIT:          0  MISS:          0
cpu0_STLB TOTAL     ACCESS:      17631  HIT:      17607  MISS:         24
cpu0_STLB LOAD      ACCESS:      17430  HIT:      17406  MISS:         24
cpu0_STLB RFO       ACCESS:        201  HIT:        201  MISS:          0
cpu0_STLB PREFETCH  ACCESS:          0  HIT:          0  MISS:          0
cpu0_STLB WRITEBACK ACCESS:          0  HIT:          0  MISS:          0
cpu0_L1D TOTAL     ACCESS:    1319411  HIT:     981211  MISS:     338200
cpu0_L1D LOAD      ACCESS:    1317704  HIT:     979753  MISS:     337951
cpu0_L1D RFO       ACCESS:       1683  HIT:       1458  MISS:        225
cpu0_L1D PREFETCH  ACCESS:          0  HIT:          0  MISS:          0
cpu0_L1D WRITEBACK ACCESS:          0  HIT:          0  MISS:          0
cpu0_L2C TOTAL     ACCESS:     338743  HIT:     328848  MISS:       9895
cpu0_L2C LOAD      ACCESS:     337951  HIT:     328069  MISS:       9882
cpu0_L2C RFO       ACCESS:        225  HIT:        212  MISS:         13
cpu0_L2C PREFETCH  ACCESS:          0  HIT:          0  MISS:          0
cpu0_L2C WRITEBACK ACCESS:        543  HIT:        543  MISS:          0
LLC TOTAL     ACCESS:       9895  HIT:       8276  MISS:       1619
LLC LOAD      ACCESS:       9882  HIT:       8276  MISS:       1606
LLC RFO       ACCESS:         13  HIT:          0  MISS:         13
LLC PREFETCH  ACCESS:          0  HIT:          0  MISS:          0
LLC WRITEBACK ACCESS:          0  HIT:          0  MISS:          0
Heartbeat CPU 0 instructions: 90000003 cycles: 26353091 heartbeat IPC: 2.88352 cumulative IPC: 2.88746 (Simulation time: 0 hr 37 min 56 sec) 

Region of Interest Statistics
cpu0_DTLB TOTAL     ACCESS:    3372329  HIT:    3353763  MISS:      18566
cpu0_DTLB LOAD      ACCESS:    3371325  HIT:    3352972  MISS:      18353
cpu0_DTLB RFO       ACCESS:       1004  HIT:        791  MISS:        213
cpu0_DTLB PREFETCH  ACCESS:          0  HIT:          0  MISS:          0
cpu0_DTLB WRITEBACK ACCESS:          0  HIT:          0  MISS:          0
cpu0_ITLB TOTAL     ACCESS:    1038146  HIT:    1038146  MISS:          0
cpu0_ITLB LOAD      ACCESS:    1038146  HIT:    1038146  MISS:          0
cpu0_ITLB RFO       ACCESS:          0  HIT:          0  MISS:          0
cpu0_ITLB PREFETCH  ACCESS:          0  HIT:          0  MISS:          0
cpu0_ITLB WRITEBACK ACCESS:          0  HIT:          0  MISS:          0
cpu0_L1I TOTAL     ACCESS:          2  HIT:          2  MISS:          0
cpu0_L1I LOAD      ACCESS:          2  HIT:          2  MISS:          0
cpu0_L1I RFO       ACCESS:          0  HIT:          0  MISS:          0
cpu0_L1I PREFETCH  ACCESS:          0  HIT:          0  MISS:          0
cpu0_L1I WRITEBACK ACCESS:          0  HIT:          0  MISS:          0
cpu0_STLB TOTAL     ACCESS:      18566  HIT:      18542  MISS:         24
cpu0_STLB LOAD      ACCESS:      18353  HIT:      18329  MISS:         24
cpu0_STLB RFO       ACCESS:        213  HIT:        213  MISS:          0
cpu0_STLB PREFETCH  ACCESS:          0  HIT:          0  MISS:          0
cpu0_STLB WRITEBACK ACCESS:          0  HIT:          0  MISS:          0
cpu0_L1D TOTAL     ACCESS:    1389387  HIT:    1033379  MISS:     356008
cpu0_L1D LOAD      ACCESS:    1387578  HIT:    1031832  MISS:     355746
cpu0_L1D RFO       ACCESS:       1785  HIT:       1547  MISS:        238
cpu0_L1D PREFETCH  ACCESS:          0  HIT:          0  MISS:          0
cpu0_L1D WRITEBACK ACCESS:          0  HIT:          0  MISS:          0
cpu0_L2C TOTAL     ACCESS:     356582  HIT:     346109  MISS:      10473
cpu0_L2C LOAD      ACCESS:     355746  HIT:     345287  MISS:      10459
cpu0_L2C RFO       ACCESS:        238  HIT:        224  MISS:         14
cpu0_L2C PREFETCH  ACCESS:          0  HIT:          0  MISS:          0
cpu0_L2C WRITEBACK ACCESS:        574  HIT:        574  MISS:          0
LLC TOTAL     ACCESS:      10473  HIT:       8767  MISS:       1706
LLC LOAD      ACCESS:      10459  HIT:       8767  MISS:       1692
LLC RFO       ACCESS:         14  HIT:          0  MISS:         14
LLC PREFETCH  ACCESS:          0  HIT:          0  MISS:          0
LLC WRITEBACK ACCESS:          0  HIT:          0  MISS:          0
Heartbeat CPU 0 instructions: 92000004 cycles: 27046319 heartbeat IPC: 2.88506 cumulative IPC: 2.88734 (Simulation time: 0 hr 38 min 49 sec) 

Region of Interest Statistics
cpu0_DTLB TOTAL     ACCESS:    3541205  HIT:    3521712  MISS:      19493
cpu0_DTLB LOAD      ACCESS:    3540157  HIT:    3520886  MISS:      19271
cpu0_DTLB RFO       ACCESS:       1048  HIT:        826  MISS:        222
cpu0_DTLB PREFETCH  ACCESS:          0  HIT:          0  MISS:          0
cpu0_DTLB WRITEBACK ACCESS:          0  HIT:          0  MISS:          0
cpu0_ITLB TOTAL     ACCESS:    1088920  HIT:    1088920  MISS:          0
cpu0_ITLB LOAD      ACCESS:    1088920  HIT:    1088920  MISS:          0
cpu0_ITLB RFO       ACCESS:          0  HIT:          0  MISS:          0
cpu0_ITLB PREFETCH  ACCESS:          0  HIT:          0  MISS:          0
cpu0_ITLB WRITEBACK ACCESS:          0  HIT:          0  MISS:          0
cpu0_L1I TOTAL     ACCESS:          2  HIT:          2  MISS:          0
cpu0_L1I LOAD      ACCESS:          2  HIT:          2  MISS:          0
cpu0_L1I RFO       ACCESS:          0  HIT:          0  MISS:          0
cpu0_L1I PREFETCH  ACCESS:          0  HIT:          0  MISS:          0
cpu0_L1I WRITEBACK ACCESS:          0  HIT:          0  MISS:          0
cpu0_STLB TOTAL     ACCESS:      19493  HIT:      19468  MISS:         25
cpu0_STLB LOAD      ACCESS:      19271  HIT:      19246  MISS:         25
cpu0_STLB RFO       ACCESS:        222  HIT:        222  MISS:          0
cpu0_STLB PREFETCH  ACCESS:          0  HIT:          0  MISS:          0
cpu0_STLB WRITEBACK ACCESS:          0  HIT:          0  MISS:          0
cpu0_L1D TOTAL     ACCESS:    1458160  HIT:    1084354  MISS:     373806
cpu0_L1D LOAD      ACCESS:    1456265  HIT:    1082733  MISS:     373532
cpu0_L1D RFO       ACCESS:       1870  HIT:       1621  MISS:        249
cpu0_L1D PREFETCH  ACCESS:          0  HIT:          0  MISS:          0
cpu0_L1D WRITEBACK ACCESS:          0  HIT:          0  MISS:          0
cpu0_L2C TOTAL     ACCESS:     374406  HIT:     363309  MISS:      11097
cpu0_L2C LOAD      ACCESS:     373532  HIT:     362450  MISS:      11082
cpu0_L2C RFO       ACCESS:        249  HIT:        234  MISS:         15
cpu0_L2C PREFETCH  ACCESS:          0  HIT:          0  MISS:          0
cpu0_L2C WRITEBACK ACCESS:        600  HIT:        600  MISS:          0
LLC TOTAL     ACCESS:      11097  HIT:       9302  MISS:       1795
LLC LOAD      ACCESS:      11082  HIT:       9302  MISS:       1780
LLC RFO       ACCESS:         15  HIT:          0  MISS:         15
LLC PREFETCH  ACCESS:          0  HIT:          0  MISS:          0
LLC WRITEBACK ACCESS:          0  HIT:          0  MISS:          0
Heartbeat CPU 0 instructions: 94000004 cycles: 27739956 heartbeat IPC: 2.88335 cumulative IPC: 2.88716 (Simulation time: 0 hr 39 min 43 sec) 

Region of Interest Statistics
cpu0_DTLB TOTAL     ACCESS:    3709570  HIT:    3689140  MISS:      20430
cpu0_DTLB LOAD      ACCESS:    3708469  HIT:    3688272  MISS:      20197
cpu0_DTLB RFO       ACCESS:       1101  HIT:        868  MISS:        233
cpu0_DTLB PREFETCH  ACCESS:          0  HIT:          0  MISS:          0
cpu0_DTLB WRITEBACK ACCESS:          0  HIT:          0  MISS:          0
cpu0_ITLB TOTAL     ACCESS:    1141055  HIT:    1141055  MISS:          0
cpu0_ITLB LOAD      ACCESS:    1141055  HIT:    1141055  MISS:          0
cpu0_ITLB RFO       ACCESS:          0  HIT:          0  MISS:          0
cpu0_ITLB PREFETCH  ACCESS:          0  HIT:          0  MISS:          0
cpu0_ITLB WRITEBACK ACCESS:          0  HIT:          0  MISS:          0
cpu0_L1I TOTAL     ACCESS:          2  HIT:          2  MISS:          0
cpu0_L1I LOAD      ACCESS:          2  HIT:          2  MISS:          0
cpu0_L1I RFO       ACCESS:          0  HIT:          0  MISS:          0
cpu0_L1I PREFETCH  ACCESS:          0  HIT:          0  MISS:          0
cpu0_L1I WRITEBACK ACCESS:          0  HIT:          0  MISS:          0
cpu0_STLB TOTAL     ACCESS:      20430  HIT:      20404  MISS:         26
cpu0_STLB LOAD      ACCESS:      20197  HIT:      20171  MISS:         26
cpu0_STLB RFO       ACCESS:        233  HIT:        233  MISS:          0
cpu0_STLB PREFETCH  ACCESS:          0  HIT:          0  MISS:          0
cpu0_STLB WRITEBACK ACCESS:          0  HIT:          0  MISS:          0
cpu0_L1D TOTAL     ACCESS:    1527860  HIT:    1136248  MISS:     391612
cpu0_L1D LOAD      ACCESS:    1525862  HIT:    1134537  MISS:     391325
cpu0_L1D RFO       ACCESS:       1972  HIT:       1711  MISS:        261
cpu0_L1D PREFETCH  ACCESS:          0  HIT:          0  MISS:          0
cpu0_L1D WRITEBACK ACCESS:          0  HIT:          0  MISS:          0
cpu0_L2C TOTAL     ACCESS:     392242  HIT:     380549  MISS:      11693
cpu0_L2C LOAD      ACCESS:     391325  HIT:     379647  MISS:      11678
cpu0_L2C RFO       ACCESS:        261  HIT:        246  MISS:         15
cpu0_L2C PREFETCH  ACCESS:          0  HIT:          0  MISS:          0
cpu0_L2C WRITEBACK ACCESS:        630  HIT:        630  MISS:          0
LLC TOTAL     ACCESS:      11693  HIT:       9810  MISS:       1883
LLC LOAD      ACCESS:      11678  HIT:       9810  MISS:       1868
LLC RFO       ACCESS:         15  HIT:          0  MISS:         15
LLC PREFETCH  ACCESS:          0  HIT:          0  MISS:          0
LLC WRITEBACK ACCESS:          0  HIT:          0  MISS:          0
Heartbeat CPU 0 instructions: 96000001 cycles: 28433514 heartbeat IPC: 2.88368 cumulative IPC: 2.88701 (Simulation time: 0 hr 40 min 35 sec) 

Region of Interest Statistics
cpu0_DTLB TOTAL     ACCESS:    3878662  HIT:    3857298  MISS:      21364
cpu0_DTLB LOAD      ACCESS:    3877506  HIT:    3856387  MISS:      21119
cpu0_DTLB RFO       ACCESS:       1156  HIT:        911  MISS:        245
cpu0_DTLB PREFETCH  ACCESS:          0  HIT:          0  MISS:          0
cpu0_DTLB WRITEBACK ACCESS:          0  HIT:          0  MISS:          0
cpu0_ITLB TOTAL     ACCESS:    1193514  HIT:    1193514  MISS:          0
cpu0_ITLB LOAD      ACCESS:    1193514  HIT:    1193514  MISS:          0
cpu0_ITLB RFO       ACCESS:          0  HIT:          0  MISS:          0
cpu0_ITLB PREFETCH  ACCESS:          0  HIT:          0  MISS:          0
cpu0_ITLB WRITEBACK ACCESS:          0  HIT:          0  MISS:          0
cpu0_L1I TOTAL     ACCESS:          2  HIT:          2  MISS:          0
cpu0_L1I LOAD      ACCESS:          2  HIT:          2  MISS:          0
cpu0_L1I RFO       ACCESS:          0  HIT:          0  MISS:          0
cpu0_L1I PREFETCH  ACCESS:          0  HIT:          0  MISS:          0
cpu0_L1I WRITEBACK ACCESS:          0  HIT:          0  MISS:          0
cpu0_STLB TOTAL     ACCESS:      21364  HIT:      21337  MISS:         27
cpu0_STLB LOAD      ACCESS:      21119  HIT:      21092  MISS:         27
cpu0_STLB RFO       ACCESS:        245  HIT:        245  MISS:          0
cpu0_STLB PREFETCH  ACCESS:          0  HIT:          0  MISS:          0
cpu0_STLB WRITEBACK ACCESS:          0  HIT:          0  MISS:          0
cpu0_L1D TOTAL     ACCESS:    1597088  HIT:    1187669  MISS:     409419
cpu0_L1D LOAD      ACCESS:    1594987  HIT:    1185869  MISS:     409118
cpu0_L1D RFO       ACCESS:       2074  HIT:       1800  MISS:        274
cpu0_L1D PREFETCH  ACCESS:          0  HIT:          0  MISS:          0
cpu0_L1D WRITEBACK ACCESS:          0  HIT:          0  MISS:          0
cpu0_L2C TOTAL     ACCESS:     410075  HIT:     397670  MISS:      12405
cpu0_L2C LOAD      ACCESS:     409118  HIT:     396729  MISS:      12389
cpu0_L2C RFO       ACCESS:        274  HIT:        258  MISS:         16
cpu0_L2C PREFETCH  ACCESS:          0  HIT:          0  MISS:          0
cpu0_L2C WRITEBACK ACCESS:        656  HIT:        656  MISS:          0
LLC TOTAL     ACCESS:      12405  HIT:      10436  MISS:       1969
LLC LOAD      ACCESS:      12389  HIT:      10436  MISS:       1953
LLC RFO       ACCESS:         16  HIT:          0  MISS:         16
LLC PREFETCH  ACCESS:          0  HIT:          0  MISS:          0
LLC WRITEBACK ACCESS:          0  HIT:          0  MISS:          0
Heartbeat CPU 0 instructions: 98000003 cycles: 29128706 heartbeat IPC: 2.87691 cumulative IPC: 2.88659 (Simulation time: 0 hr 41 min 30 sec) 

Region of Interest Statistics
cpu0_DTLB TOTAL     ACCESS:    4047591  HIT:    4025304  MISS:      22287
cpu0_DTLB LOAD      ACCESS:    4046390  HIT:    4024358  MISS:      22032
cpu0_DTLB RFO       ACCESS:       1201  HIT:        946  MISS:        255
cpu0_DTLB PREFETCH  ACCESS:          0  HIT:          0  MISS:          0
cpu0_DTLB WRITEBACK ACCESS:          0  HIT:          0  MISS:          0
cpu0_ITLB TOTAL     ACCESS:    1244371  HIT:    1244371  MISS:          0
cpu0_ITLB LOAD      ACCESS:    1244371  HIT:    1244371  MISS:          0
cpu0_ITLB RFO       ACCESS:          0  HIT:          0  MISS:          0
cpu0_ITLB PREFETCH  ACCESS:          0  HIT:          0  MISS:          0
cpu0_ITLB WRITEBACK ACCESS:          0  HIT:          0  MISS:          0
cpu0_L1I TOTAL     ACCESS:          2  HIT:          2  MISS:          0
cpu0_L1I LOAD      ACCESS:          2  HIT:          2  MISS:          0
cpu0_L1I RFO       ACCESS:          0  HIT:          0  MISS:          0
cpu0_L1I PREFETCH  ACCESS:          0  HIT:          0  MISS:          0
cpu0_L1I WRITEBACK ACCESS:          0  HIT:          0  MISS:          0
cpu0_STLB TOTAL     ACCESS:      22287  HIT:      22258  MISS:         29
cpu0_STLB LOAD      ACCESS:      22032  HIT:      22003  MISS:         29
cpu0_STLB RFO       ACCESS:        255  HIT:        255  MISS:          0
cpu0_STLB PREFETCH  ACCESS:          0  HIT:          0  MISS:          0
cpu0_STLB WRITEBACK ACCESS:          0  HIT:          0  MISS:          0
cpu0_L1D TOTAL     ACCESS:    1666046  HIT:    1238829  MISS:     427217
cpu0_L1D LOAD      ACCESS:    1663858  HIT:    1236955  MISS:     426903
cpu0_L1D RFO       ACCESS:       2159  HIT:       1874  MISS:        285
cpu0_L1D PREFETCH  ACCESS:          0  HIT:          0  MISS:          0
cpu0_L1D WRITEBACK ACCESS:          0  HIT:          0  MISS:          0
cpu0_L2C TOTAL     ACCESS:     427904  HIT:     414817  MISS:      13087
cpu0_L2C LOAD      ACCESS:     426903  HIT:     413833  MISS:      13070
cpu0_L2C RFO       ACCESS:        285  HIT:        268  MISS:         17
cpu0_L2C PREFETCH  ACCESS:          0  HIT:          0  MISS:          0
cpu0_L2C WRITEBACK ACCESS:        687  HIT:        687  MISS:          0
LLC TOTAL     ACCESS:      13087  HIT:      11030  MISS:       2057
LLC LOAD      ACCESS:      13070  HIT:      11030  MISS:       2040
LLC RFO       ACCESS:         17  HIT:          0  MISS:         17
LLC PREFETCH  ACCESS:          0  HIT:          0  MISS:          0
LLC WRITEBACK ACCESS:          0  HIT:          0  MISS:          0
Heartbeat CPU 0 instructions: 100000000 cycles: 29824450 heartbeat IPC: 2.87462 cumulative IPC: 2.88611 (Simulation time: 0 hr 42 min 26 sec) 

Region of Interest Statistics
cpu0_DTLB TOTAL     ACCESS:    4216598  HIT:    4193380  MISS:      23218
cpu0_DTLB LOAD      ACCESS:    4215344  HIT:    4192392  MISS:      22952
cpu0_DTLB RFO       ACCESS:       1254  HIT:        988  MISS:        266
cpu0_DTLB PREFETCH  ACCESS:          0  HIT:          0  MISS:          0
cpu0_DTLB WRITEBACK ACCESS:          0  HIT:          0  MISS:          0
cpu0_ITLB TOTAL     ACCESS:    1296073  HIT:    1296073  MISS:          0
cpu0_ITLB LOAD      ACCESS:    1296073  HIT:    1296073  MISS:          0
cpu0_ITLB RFO       ACCESS:          0  HIT:          0  MISS:          0
cpu0_ITLB PREFETCH  ACCESS:          0  HIT:          0  MISS:          0
cpu0_ITLB WRITEBACK ACCESS:          0  HIT:          0  MISS:          0
cpu0_L1I TOTAL     ACCESS:          2  HIT:          2  MISS:          0
cpu0_L1I LOAD      ACCESS:          2  HIT:          2  MISS:          0
cpu0_L1I RFO       ACCESS:          0  HIT:          0  MISS:          0
cpu0_L1I PREFETCH  ACCESS:          0  HIT:          0  MISS:          0
cpu0_L1I WRITEBACK ACCESS:          0  HIT:          0  MISS:          0
cpu0_STLB TOTAL     ACCESS:      23218  HIT:      23187  MISS:         31
cpu0_STLB LOAD      ACCESS:      22952  HIT:      22921  MISS:         31
cpu0_STLB RFO       ACCESS:        266  HIT:        266  MISS:          0
cpu0_STLB PREFETCH  ACCESS:          0  HIT:          0  MISS:          0
cpu0_STLB WRITEBACK ACCESS:          0  HIT:          0  MISS:          0
cpu0_L1D TOTAL     ACCESS:    1735604  HIT:    1290577  MISS:     445027
cpu0_L1D LOAD      ACCESS:    1733312  HIT:    1288613  MISS:     444699
cpu0_L1D RFO       ACCESS:       2261  HIT:       1964  MISS:        297
cpu0_L1D PREFETCH  ACCESS:          0  HIT:          0  MISS:          0
cpu0_L1D WRITEBACK ACCESS:          0  HIT:          0  MISS:          0
cpu0_L2C TOTAL     ACCESS:     445744  HIT:     431958  MISS:      13786
cpu0_L2C LOAD      ACCESS:     444699  HIT:     430930  MISS:      13769
cpu0_L2C RFO       ACCESS:        297  HIT:        280  MISS:         17
cpu0_L2C PREFETCH  ACCESS:          0  HIT:          0  MISS:          0
cpu0_L2C WRITEBACK ACCESS:        717  HIT:        717  MISS:          0
LLC TOTAL     ACCESS:      13786  HIT:      11638  MISS:       2148
LLC LOAD      ACCESS:      13769  HIT:      11638  MISS:       2131
LLC RFO       ACCESS:         17  HIT:          0  MISS:         17
LLC PREFETCH  ACCESS:          0  HIT:          0  MISS:          0
LLC WRITEBACK ACCESS:          0  HIT:          0  MISS:          0
Heartbeat CPU 0 instructions: 102000000 cycles: 30516632 heartbeat IPC: 2.88941 cumulative IPC: 2.88623 (Simulation time: 0 hr 43 min 22 sec) 

Region of Interest Statistics
cpu0_DTLB TOTAL     ACCESS:    4385370  HIT:    4361230  MISS:      24140
cpu0_DTLB LOAD      ACCESS:    4384072  HIT:    4360207  MISS:      23865
cpu0_DTLB RFO       ACCESS:       1298  HIT:       1023  MISS:        275
cpu0_DTLB PREFETCH  ACCESS:          0  HIT:          0  MISS:          0
cpu0_DTLB WRITEBACK ACCESS:          0  HIT:          0  MISS:          0
cpu0_ITLB TOTAL     ACCESS:    1348162  HIT:    1348162  MISS:          0
cpu0_ITLB LOAD      ACCESS:    1348162  HIT:    1348162  MISS:          0
cpu0_ITLB RFO       ACCESS:          0  HIT:          0  MISS:          0
cpu0_ITLB PREFETCH  ACCESS:          0  HIT:          0  MISS:          0
cpu0_ITLB WRITEBACK ACCESS:          0  HIT:          0  MISS:          0
cpu0_L1I TOTAL     ACCESS:          2  HIT:          2  MISS:          0
cpu0_L1I LOAD      ACCESS:          2  HIT:          2  MISS:          0
cpu0_L1I RFO       ACCESS:          0  HIT:          0  MISS:          0
cpu0_L1I PREFETCH  ACCESS:          0  HIT:          0  MISS:          0
cpu0_L1I WRITEBACK ACCESS:          0  HIT:          0  MISS:          0
cpu0_STLB TOTAL     ACCESS:      24140  HIT:      24109  MISS:         31
cpu0_STLB LOAD      ACCESS:      23865  HIT:      23834  MISS:         31
cpu0_STLB RFO       ACCESS:        275  HIT:        275  MISS:          0
cpu0_STLB PREFETCH  ACCESS:          0  HIT:          0  MISS:          0
cpu0_STLB WRITEBACK ACCESS:          0  HIT:          0  MISS:          0
cpu0_L1D TOTAL     ACCESS:    1804719  HIT:    1341900  MISS:     462819
cpu0_L1D LOAD      ACCESS:    1802342  HIT:    1339862  MISS:     462480
cpu0_L1D RFO       ACCESS:       2346  HIT:       2038  MISS:        308
cpu0_L1D PREFETCH  ACCESS:          0  HIT:          0  MISS:          0
cpu0_L1D WRITEBACK ACCESS:          0  HIT:          0  MISS:          0
cpu0_L2C TOTAL     ACCESS:     463562  HIT:     449060  MISS:      14502
cpu0_L2C LOAD      ACCESS:     462480  HIT:     447996  MISS:      14484
cpu0_L2C RFO       ACCESS:        308  HIT:        290  MISS:         18
cpu0_L2C PREFETCH  ACCESS:          0  HIT:          0  MISS:          0
cpu0_L2C WRITEBACK ACCESS:        743  HIT:        743  MISS:          0
LLC TOTAL     ACCESS:      14502  HIT:      12271  MISS:       2231
LLC LOAD      ACCESS:      14484  HIT:      12271  MISS:       2213
LLC RFO       ACCESS:         18  HIT:          0  MISS:         18
LLC PREFETCH  ACCESS:          0  HIT:          0  MISS:          0
LLC WRITEBACK ACCESS:          0  HIT:          0  MISS:          0
Heartbeat CPU 0 instructions: 104000002 cycles: 31213983 heartbeat IPC: 2.868 cumulative IPC: 2.88555 (Simulation time: 0 hr 44 min 17 sec) 

Region of Interest Statistics
cpu0_DTLB TOTAL     ACCESS:    4554273  HIT:    4529197  MISS:      25076
cpu0_DTLB LOAD      ACCESS:    4552923  HIT:    4528134  MISS:      24789
cpu0_DTLB RFO       ACCESS:       1350  HIT:       1063  MISS:        287
cpu0_DTLB PREFETCH  ACCESS:          0  HIT:          0  MISS:          0
cpu0_DTLB WRITEBACK ACCESS:          0  HIT:          0  MISS:          0
cpu0_ITLB TOTAL     ACCESS:    1399709  HIT:    1399709  MISS:          0
cpu0_ITLB LOAD      ACCESS:    1399709  HIT:    1399709  MISS:          0
cpu0_ITLB RFO       ACCESS:          0  HIT:          0  MISS:          0
cpu0_ITLB PREFETCH  ACCESS:          0  HIT:          0  MISS:          0
cpu0_ITLB WRITEBACK ACCESS:          0  HIT:          0  MISS:          0
cpu0_L1I TOTAL     ACCESS:          2  HIT:          2  MISS:          0
cpu0_L1I LOAD      ACCESS:          2  HIT:          2  MISS:          0
cpu0_L1I RFO       ACCESS:          0  HIT:          0  MISS:          0
cpu0_L1I PREFETCH  ACCESS:          0  HIT:          0  MISS:          0
cpu0_L1I WRITEBACK ACCESS:          0  HIT:          0  MISS:          0
cpu0_STLB TOTAL     ACCESS:      25076  HIT:      25043  MISS:         33
cpu0_STLB LOAD      ACCESS:      24789  HIT:      24756  MISS:         33
cpu0_STLB RFO       ACCESS:        287  HIT:        287  MISS:          0
cpu0_STLB PREFETCH  ACCESS:          0  HIT:          0  MISS:          0
cpu0_STLB WRITEBACK ACCESS:          0  HIT:          0  MISS:          0
cpu0_L1D TOTAL     ACCESS:    1874170  HIT:    1393540  MISS:     480630
cpu0_L1D LOAD      ACCESS:    1871689  HIT:    1391413  MISS:     480276
cpu0_L1D RFO       ACCESS:       2448  HIT:       2127  MISS:        321
cpu0_L1D PREFETCH  ACCESS:          0  HIT:          0  MISS:          0
cpu0_L1D WRITEBACK ACCESS:          0  HIT:          0  MISS:          0
cpu0_L2C TOTAL     ACCESS:     481404  HIT:     466207  MISS:      15197
cpu0_L2C LOAD      ACCESS:     480276  HIT:     465098  MISS:      15178
cpu0_L2C RFO       ACCESS:        321  HIT:        302  MISS:         19
cpu0_L2C PREFETCH  ACCESS:          0  HIT:          0  MISS:          0
cpu0_L2C WRITEBACK ACCESS:        774  HIT:        774  MISS:          0
LLC TOTAL     ACCESS:      15197  HIT:      12873  MISS:       2324
LLC LOAD      ACCESS:      15178  HIT:      12873  MISS:       2305
LLC RFO       ACCESS:         19  HIT:          0  MISS:         19
LLC PREFETCH  ACCESS:          0  HIT:          0  MISS:          0
LLC WRITEBACK ACCESS:          0  HIT:          0  MISS:          0
Heartbeat CPU 0 instructions: 106000003 cycles: 31908440 heartbeat IPC: 2.87995 cumulative IPC: 2.88535 (Simulation time: 0 hr 45 min 13 sec) 

Region of Interest Statistics
cpu0_DTLB TOTAL     ACCESS:    4723550  HIT:    4697540  MISS:      26010
cpu0_DTLB LOAD      ACCESS:    4722147  HIT:    4696435  MISS:      25712
cpu0_DTLB RFO       ACCESS:       1403  HIT:       1105  MISS:        298
cpu0_DTLB PREFETCH  ACCESS:          0  HIT:          0  MISS:          0
cpu0_DTLB WRITEBACK ACCESS:          0  HIT:          0  MISS:          0
cpu0_ITLB TOTAL     ACCESS:    1451084  HIT:    1451084  MISS:          0
cpu0_ITLB LOAD      ACCESS:    1451084  HIT:    1451084  MISS:          0
cpu0_ITLB RFO       ACCESS:          0  HIT:          0  MISS:          0
cpu0_ITLB PREFETCH  ACCESS:          0  HIT:          0  MISS:          0
cpu0_ITLB WRITEBACK ACCESS:          0  HIT:          0  MISS:          0
cpu0_L1I TOTAL     ACCESS:          2  HIT:          2  MISS:          0
cpu0_L1I LOAD      ACCESS:          2  HIT:          2  MISS:          0
cpu0_L1I RFO       ACCESS:          0  HIT:          0  MISS:          0
cpu0_L1I PREFETCH  ACCESS:          0  HIT:          0  MISS:          0
cpu0_L1I WRITEBACK ACCESS:          0  HIT:          0  MISS:          0
cpu0_STLB TOTAL     ACCESS:      26010  HIT:      25976  MISS:         34
cpu0_STLB LOAD      ACCESS:      25712  HIT:      25678  MISS:         34
cpu0_STLB RFO       ACCESS:        298  HIT:        298  MISS:          0
cpu0_STLB PREFETCH  ACCESS:          0  HIT:          0  MISS:          0
cpu0_STLB WRITEBACK ACCESS:          0  HIT:          0  MISS:          0
cpu0_L1D TOTAL     ACCESS:    1943104  HIT:    1444666  MISS:     498438
cpu0_L1D LOAD      ACCESS:    1940520  HIT:    1442450  MISS:     498070
cpu0_L1D RFO       ACCESS:       2550  HIT:       2216  MISS:        334
cpu0_L1D PREFETCH  ACCESS:          0  HIT:          0  MISS:          0
cpu0_L1D WRITEBACK ACCESS:          0  HIT:          0  MISS:          0
cpu0_L2C TOTAL     ACCESS:     499237  HIT:     483324  MISS:      15913
cpu0_L2C LOAD      ACCESS:     498070  HIT:     482177  MISS:      15893
cpu0_L2C RFO       ACCESS:        334  HIT:        314  MISS:         20
cpu0_L2C PREFETCH  ACCESS:          0  HIT:          0  MISS:          0
cpu0_L2C WRITEBACK ACCESS:        799  HIT:        799  MISS:          0
LLC TOTAL     ACCESS:      15913  HIT:      13502  MISS:       2411
LLC LOAD      ACCESS:      15893  HIT:      13502  MISS:       2391
LLC RFO       ACCESS:         20  HIT:          0  MISS:         20
LLC PREFETCH  ACCESS:          0  HIT:          0  MISS:          0
LLC WRITEBACK ACCESS:          0  HIT:          0  MISS:          0
Heartbeat CPU 0 instructions: 108000001 cycles: 32601192 heartbeat IPC: 2.88703 cumulative IPC: 2.88541 (Simulation time: 0 hr 46 min 9 sec) 

Region of Interest Statistics
cpu0_DTLB TOTAL     ACCESS:    4891906  HIT:    4864968  MISS:      26938
cpu0_DTLB LOAD      ACCESS:    4890459  HIT:    4863828  MISS:      26631
cpu0_DTLB RFO       ACCESS:       1447  HIT:       1140  MISS:        307
cpu0_DTLB PREFETCH  ACCESS:          0  HIT:          0  MISS:          0
cpu0_DTLB WRITEBACK ACCESS:          0  HIT:          0  MISS:          0
cpu0_ITLB TOTAL     ACCESS:    1502946  HIT:    1502946  MISS:          0
cpu0_ITLB LOAD      ACCESS:    1502946  HIT:    1502946  MISS:          0
cpu0_ITLB RFO       ACCESS:          0  HIT:          0  MISS:          0
cpu0_ITLB PREFETCH  ACCESS:          0  HIT:          0  MISS:          0
cpu0_ITLB WRITEBACK ACCESS:          0  HIT:          0  MISS:          0
cpu0_L1I TOTAL     ACCESS:          2  HIT:          2  MISS:          0
cpu0_L1I LOAD      ACCESS:          2  HIT:          2  MISS:          0
cpu0_L1I RFO       ACCESS:          0  HIT:          0  MISS:          0
cpu0_L1I PREFETCH  ACCESS:          0  HIT:          0  MISS:          0
cpu0_L1I WRITEBACK ACCESS:          0  HIT:          0  MISS:          0
cpu0_STLB TOTAL     ACCESS:      26938  HIT:      26903  MISS:         35
cpu0_STLB LOAD      ACCESS:      26631  HIT:      26596  MISS:         35
cpu0_STLB RFO       ACCESS:        307  HIT:        307  MISS:          0
cpu0_STLB PREFETCH  ACCESS:          0  HIT:          0  MISS:          0
cpu0_STLB WRITEBACK ACCESS:          0  HIT:          0  MISS:          0
cpu0_L1D TOTAL     ACCESS:    2012365  HIT:    1496132  MISS:     516233
cpu0_L1D LOAD      ACCESS:    2009695  HIT:    1493841  MISS:     515854
cpu0_L1D RFO       ACCESS:       2635  HIT:       2291  MISS:        344
cpu0_L1D PREFETCH  ACCESS:          0  HIT:          0  MISS:          0
cpu0_L1D WRITEBACK ACCESS:          0  HIT:          0  MISS:          0
cpu0_L2C TOTAL     ACCESS:     517063  HIT:     500475  MISS:      16588
cpu0_L2C LOAD      ACCESS:     515854  HIT:     499286  MISS:      16568
cpu0_L2C RFO       ACCESS:        344  HIT:        324  MISS:         20
cpu0_L2C PREFETCH  ACCESS:          0  HIT:          0  MISS:          0
cpu0_L2C WRITEBACK ACCESS:        830  HIT:        830  MISS:          0
LLC TOTAL     ACCESS:      16588  HIT:      14092  MISS:       2496
LLC LOAD      ACCESS:      16568  HIT:      14092  MISS:       2476
LLC RFO       ACCESS:         20  HIT:          0  MISS:         20
LLC PREFETCH  ACCESS:          0  HIT:          0  MISS:          0
LLC WRITEBACK ACCESS:          0  HIT:          0  MISS:          0
Heartbeat CPU 0 instructions: 110000001 cycles: 33297849 heartbeat IPC: 2.87085 cumulative IPC: 2.88492 (Simulation time: 0 hr 47 min 5 sec) 

Region of Interest Statistics
cpu0_DTLB TOTAL     ACCESS:    5061347  HIT:    5033473  MISS:      27874
cpu0_DTLB LOAD      ACCESS:    5059842  HIT:    5032287  MISS:      27555
cpu0_DTLB RFO       ACCESS:       1505  HIT:       1186  MISS:        319
cpu0_DTLB PREFETCH  ACCESS:          0  HIT:          0  MISS:          0
cpu0_DTLB WRITEBACK ACCESS:          0  HIT:          0  MISS:          0
cpu0_ITLB TOTAL     ACCESS:    1554742  HIT:    1554742  MISS:          0
cpu0_ITLB LOAD      ACCESS:    1554742  HIT:    1554742  MISS:          0
[...]
cpu0_DTLB TOTAL     ACCESS:  126112059  HIT:  125417315  MISS:     694744
cpu0_DTLB LOAD      ACCESS:  126074685  HIT:  125387826  MISS:     686859
cpu0_DTLB RFO       ACCESS:      37374  HIT:      29489  MISS:       7885
cpu0_DTLB PREFETCH  ACCESS:          0  HIT:          0  MISS:          0
cpu0_DTLB WRITEBACK ACCESS:          0  HIT:          0  MISS:          0
cpu0_ITLB TOTAL     ACCESS:   38930408  HIT:   38930408  MISS:          0
cpu0_ITLB LOAD      ACCESS:   38930408  HIT:   38930408  MISS:          0
cpu0_ITLB RFO       ACCESS:          0  HIT:          0  MISS:          0
cpu0_ITLB PREFETCH  ACCESS:          0  HIT:          0  MISS:          0
cpu0_ITLB WRITEBACK ACCESS:          0  HIT:          0  MISS:          0
cpu0_L1I TOTAL     ACCESS:          2  HIT:          2  MISS:          0
cpu0_L1I LOAD      ACCESS:          2  HIT:          2  MISS:          0
cpu0_L1I RFO       ACCESS:          0  HIT:          0  MISS:          0
cpu0_L1I PREFETCH  ACCESS:          0  HIT:          0  MISS:          0
cpu0_L1I WRITEBACK ACCESS:          0  HIT:          0  MISS:          0
cpu0_STLB TOTAL     ACCESS:     694744  HIT:     693831  MISS:        913
cpu0_STLB LOAD      ACCESS:     686859  HIT:     685954  MISS:        905
cpu0_STLB RFO       ACCESS:       7885  HIT:       7877  MISS:          8
cpu0_STLB PREFETCH  ACCESS:          0  HIT:          0  MISS:          0
cpu0_STLB WRITEBACK ACCESS:          0  HIT:          0  MISS:          0
cpu0_L1D TOTAL     ACCESS:   52316500  HIT:   38983652  MISS:   13332848
cpu0_L1D LOAD      ACCESS:   52248321  HIT:   38925266  MISS:   13323055
cpu0_L1D RFO       ACCESS:      67266  HIT:      58386  MISS:       8880
cpu0_L1D PREFETCH  ACCESS:          0  HIT:          0  MISS:          0
cpu0_L1D WRITEBACK ACCESS:          0  HIT:          0  MISS:          0
cpu0_L2C TOTAL     ACCESS:   13354265  HIT:   13229664  MISS:     124601
cpu0_L2C LOAD      ACCESS:   13323055  HIT:   13198985  MISS:     124070
cpu0_L2C RFO       ACCESS:       8880  HIT:       8358  MISS:        522
cpu0_L2C PREFETCH  ACCESS:          0  HIT:          0  MISS:          0
cpu0_L2C WRITEBACK ACCESS:      21417  HIT:      21417  MISS:          0
LLC TOTAL     ACCESS:     125072  HIT:      64466  MISS:      60606
LLC LOAD      ACCESS:     124070  HIT:      64339  MISS:      59731
LLC RFO       ACCESS:        522  HIT:          0  MISS:        522
LLC PREFETCH  ACCESS:          0  HIT:          0  MISS:          0
LLC WRITEBACK ACCESS:        471  HIT:        127  MISS:        344
Heartbeat CPU 0 instructions: 1550000004 cycles: 528829624 heartbeat IPC: 2.91638 cumulative IPC: 2.90512 (Simulation time: 11 hr 7 min 5 sec) 

Region of Interest Statistics
cpu0_DTLB TOTAL     ACCESS:  126280299  HIT:  125584629  MISS:     695670
cpu0_DTLB LOAD      ACCESS:  126242869  HIT:  125555096  MISS:     687773
cpu0_DTLB RFO       ACCESS:      37430  HIT:      29533  MISS:       7897
cpu0_DTLB PREFETCH  ACCESS:          0  HIT:          0  MISS:          0
cpu0_DTLB WRITEBACK ACCESS:          0  HIT:          0  MISS:          0
cpu0_ITLB TOTAL     ACCESS:   38983190  HIT:   38983190  MISS:          0
cpu0_ITLB LOAD      ACCESS:   38983190  HIT:   38983190  MISS:          0
cpu0_ITLB RFO       ACCESS:          0  HIT:          0  MISS:          0
cpu0_ITLB PREFETCH  ACCESS:          0  HIT:          0  MISS:          0
cpu0_ITLB WRITEBACK ACCESS:          0  HIT:          0  MISS:          0
cpu0_L1I TOTAL     ACCESS:          2  HIT:          2  MISS:          0
cpu0_L1I LOAD      ACCESS:          2  HIT:          2  MISS:          0
cpu0_L1I RFO       ACCESS:          0  HIT:          0  MISS:          0
cpu0_L1I PREFETCH  ACCESS:          0  HIT:          0  MISS:          0
cpu0_L1I WRITEBACK ACCESS:          0  HIT:          0  MISS:          0
cpu0_STLB TOTAL     ACCESS:     695670  HIT:     694756  MISS:        914
cpu0_STLB LOAD      ACCESS:     687773  HIT:     686867  MISS:        906
cpu0_STLB RFO       ACCESS:       7897  HIT:       7889  MISS:          8
cpu0_STLB PREFETCH  ACCESS:          0  HIT:          0  MISS:          0
cpu0_STLB WRITEBACK ACCESS:          0  HIT:          0  MISS:          0
cpu0_L1D TOTAL     ACCESS:   52386120  HIT:   39035463  MISS:   13350657
cpu0_L1D LOAD      ACCESS:   52317838  HIT:   38976988  MISS:   13340850
cpu0_L1D RFO       ACCESS:      67368  HIT:      58475  MISS:       8893
cpu0_L1D PREFETCH  ACCESS:          0  HIT:          0  MISS:          0
cpu0_L1D WRITEBACK ACCESS:          0  HIT:          0  MISS:          0
cpu0_L2C TOTAL     ACCESS:   13372105  HIT:   13247425  MISS:     124680
cpu0_L2C LOAD      ACCESS:   13340850  HIT:   13216702  MISS:     124148
cpu0_L2C RFO       ACCESS:       8893  HIT:       8370  MISS:        523
cpu0_L2C PREFETCH  ACCESS:          0  HIT:          0  MISS:          0
cpu0_L2C WRITEBACK ACCESS:      21448  HIT:      21448  MISS:          0
LLC TOTAL     ACCESS:     125152  HIT:      64466  MISS:      60686
LLC LOAD      ACCESS:     124148  HIT:      64339  MISS:      59809
LLC RFO       ACCESS:        523  HIT:          0  MISS:        523
LLC PREFETCH  ACCESS:          0  HIT:          0  MISS:          0
LLC WRITEBACK ACCESS:        472  HIT:        127  MISS:        345
Finished CPU 0 instructions: 1500000002 cycles: 516329560 cumulative IPC: 2.90512 (Simulation time: 11 hr 7 min 5 sec) 

ChampSim completed all CPUs

Region of Interest Statistics

CPU 0 cumulative IPC: 2.90512 instructions: 1500000002 cycles: 516329560
cpu0_DTLB TOTAL     ACCESS:  126280299  HIT:  125584629  MISS:     695670
cpu0_DTLB LOAD      ACCESS:  126242869  HIT:  125555096  MISS:     687773
cpu0_DTLB RFO       ACCESS:      37430  HIT:      29533  MISS:       7897
cpu0_DTLB PREFETCH  ACCESS:          0  HIT:          0  MISS:          0
cpu0_DTLB WRITEBACK ACCESS:          0  HIT:          0  MISS:          0
cpu0_DTLB TRANSLATION ACCESS:          0  HIT:          0  MISS:          0
cpu0_DTLB PREFETCH  REQUESTED:          0  ISSUED:          0  USEFUL:          0  USELESS:          0
cpu0_DTLB AVERAGE MISS LATENCY: 9.30165 cycles
cpu0_ITLB TOTAL     ACCESS:   38983190  HIT:   38983190  MISS:          0
cpu0_ITLB LOAD      ACCESS:   38983190  HIT:   38983190  MISS:          0
cpu0_ITLB RFO       ACCESS:          0  HIT:          0  MISS:          0
cpu0_ITLB PREFETCH  ACCESS:          0  HIT:          0  MISS:          0
cpu0_ITLB WRITEBACK ACCESS:          0  HIT:          0  MISS:          0
cpu0_ITLB TRANSLATION ACCESS:          0  HIT:          0  MISS:          0
cpu0_ITLB PREFETCH  REQUESTED:          0  ISSUED:          0  USEFUL:          0  USELESS:          0
cpu0_ITLB AVERAGE MISS LATENCY: -nan cycles
cpu0_L1I TOTAL     ACCESS:          2  HIT:          2  MISS:          0
cpu0_L1I LOAD      ACCESS:          2  HIT:          2  MISS:          0
cpu0_L1I RFO       ACCESS:          0  HIT:          0  MISS:          0
cpu0_L1I PREFETCH  ACCESS:          0  HIT:          0  MISS:          0
cpu0_L1I WRITEBACK ACCESS:          0  HIT:          0  MISS:          0
cpu0_L1I TRANSLATION ACCESS:          0  HIT:          0  MISS:          0
cpu0_L1I PREFETCH  REQUESTED:          0  ISSUED:          0  USEFUL:          0  USELESS:          0
cpu0_L1I AVERAGE MISS LATENCY: -nan cycles
cpu0_STLB TOTAL     ACCESS:     695670  HIT:     694756  MISS:        914
cpu0_STLB LOAD      ACCESS:     687773  HIT:     686867  MISS:        906
cpu0_STLB RFO       ACCESS:       7897  HIT:       7889  MISS:          8
cpu0_STLB PREFETCH  ACCESS:          0  HIT:          0  MISS:          0
cpu0_STLB WRITEBACK ACCESS:          0  HIT:          0  MISS:          0
cpu0_STLB TRANSLATION ACCESS:          0  HIT:          0  MISS:          0
cpu0_STLB PREFETCH  REQUESTED:          0  ISSUED:          0  USEFUL:          0  USELESS:          0
cpu0_STLB AVERAGE MISS LATENCY: 220.806 cycles
cpu0_L1D TOTAL     ACCESS:   52386120  HIT:   39035463  MISS:   13350657
cpu0_L1D LOAD      ACCESS:   52317838  HIT:   38976988  MISS:   13340850
cpu0_L1D RFO       ACCESS:      67368  HIT:      58475  MISS:       8893
cpu0_L1D PREFETCH  ACCESS:          0  HIT:          0  MISS:          0
cpu0_L1D WRITEBACK ACCESS:          0  HIT:          0  MISS:          0
cpu0_L1D TRANSLATION ACCESS:        914  HIT:          0  MISS:        914
cpu0_L1D PREFETCH  REQUESTED:          0  ISSUED:          0  USEFUL:          0  USELESS:          0
cpu0_L1D AVERAGE MISS LATENCY: 11.9713 cycles
cpu0_L2C TOTAL     ACCESS:   13372105  HIT:   13247425  MISS:     124680
cpu0_L2C LOAD      ACCESS:   13340850  HIT:   13216702  MISS:     124148
cpu0_L2C RFO       ACCESS:       8893  HIT:       8370  MISS:        523
cpu0_L2C PREFETCH  ACCESS:          0  HIT:          0  MISS:          0
cpu0_L2C WRITEBACK ACCESS:      21448  HIT:      21448  MISS:          0
cpu0_L2C TRANSLATION ACCESS:        914  HIT:        905  MISS:          9
cpu0_L2C PREFETCH  REQUESTED:          0  ISSUED:          0  USEFUL:          0  USELESS:          0
cpu0_L2C AVERAGE MISS LATENCY: 99.4725 cycles
LLC TOTAL     ACCESS:     125152  HIT:      64466  MISS:      60686
LLC LOAD      ACCESS:     124148  HIT:      64339  MISS:      59809
LLC RFO       ACCESS:        523  HIT:          0  MISS:        523
LLC PREFETCH  ACCESS:          0  HIT:          0  MISS:          0
LLC WRITEBACK ACCESS:        472  HIT:        127  MISS:        345
LLC TRANSLATION ACCESS:          9  HIT:          0  MISS:          9
LLC PREFETCH  REQUESTED:          0  ISSUED:          0  USEFUL:          0  USELESS:          0
LLC AVERAGE MISS LATENCY: 161.223 cycles
~~~~~~~~~~Reuse Distance Profiler output~~~~~~~~~~
0	0	0
1	0	0
2	0	0
3	0	0
4	0	0
5	0	0
6	0	0
7	0	0
8	0	0
9	0	0
10	0	0
11	0	0
12	0	0
13	0	0
14	0	0
15	0	0
16	0	0
17	0	0
18	0	0
19	0	0
20	0	0
21	0	0
22	0	0
23	0	0
24	0	0
25	0	0
26	0	0
27	0	0
28	0	0
29	0	0
30	0	0
31	0	0
32	0	0
33	0	0
34	0	0
35	0	0
36	0	0
37	0	0
38	0	0
39	0	0
40	0	0
41	0	0
42	0	0
43	0	0
44	0	0
45	0	0
46	0	0
47	0	0
48	0	0
49	0	0
50	0	0
51	0	0
52	0	0
53	0	0
54	0	0
55	0	0
56	0	0
57	0	0
58	0	0
59	0	0
60	0	0
61	0	0
62	0	0
63	0	0
64	0	0
66	0	0
68	0	0
70	0	0
72	0	0
74	0	0
76	0	0
78	0	0
80	0	0
82	0	0
84	0	0
86	0	0
88	0	0
90	0	0
92	0	0
94	0	0
96	0	0
98	0	0
100	0	0
102	0	0
104	0	0
106	0	0
108	0	0
110	0	0
112	0	0
114	0	0
116	0	0
118	0	0
120	0	0
122	0	0
124	0	0
126	0	0
128	0	0
132	0	0
136	0	0
140	0	0
144	0	0
148	0	0
152	0	0
156	0	0
160	0	0
164	0	0
168	0	0
172	0	0
176	0	0
180	0	0
184	0	0
188	0	0
192	0	0
196	0	0
200	0	0
204	0	0
208	0	0
212	0	0
216	0	0
220	0	0
224	0	0
228	0	0
232	0	0
236	0	0
240	0	0
244	0	0
248	0	0
252	0	0
256	0	0
264	0	0
272	0	0
280	0	0
288	0	0
296	0	0
304	0	0
312	0	0
320	0	0
328	0	0
336	0	0
344	0	0
352	0	0
360	0	0
368	0	0
376	0	0
384	0	0
392	0	0
400	0	0
408	0	0
416	0	0
424	0	0
432	0	0
440	0	0
448	0	0
456	0	0
464	0	0
472	0	0
480	0	0
488	0	0
496	0	0
504	0	0
512	0	0
528	0	0
544	0	0
560	0	0
576	0	0
592	0	0
608	0	0
624	0	0
640	0	0
656	0	0
672	0	0
688	0	0
704	0	0
720	0	0
736	0	0
752	0	0
768	0	0
784	0	0
800	0	0
816	0	0
832	0	0
848	0	0
864	0	0
880	0	0
896	0	0
912	0	0
928	0	0
944	0	0
960	0	0
976	0	0
992	0	0
1008	0	0
1024	0	0
1056	0	0
1088	0	0
1120	0	0
1152	0	0
1184	0	0
1216	0	0
1248	0	0
1280	0	0
1312	0	0
1344	0	0
1376	0	0
1408	0	0
1440	0	0
1472	0	0
1504	0	0
1536	0	0
1568	0	0
1600	0	0
1632	0	0
1664	0	0
1696	0	0
1728	0	0
1760	0	0
1792	0	0
1824	0	0
1856	0	0
1888	0	0
1920	0	0
1952	0	0
1984	0	0
2016	0	0
2048	0	0
2112	0	0
2176	0	0
2240	0	0
2304	0	0
2368	0	0
2432	0	0
2496	0	0
2560	0	0
2624	0	0
2688	0	0
2752	0	0
2816	0	0
2880	0	0
2944	0	0
3008	0	0
3072	0	0
3136	0	0
3200	0	0
3264	0	0
3328	0	0
3392	0	0
3456	0	0
3520	0	0
3584	0	0
3648	0	0
3712	0	0
3776	0	0
3840	0	0
3904	0	0
3968	0	0
4032	0	0
4096	0	0
4224	0	0
4352	0	0
4480	0	0
4608	0	0
4736	0	0
4864	0	0
4992	0	0
5120	0	0
5248	0	0
5376	0	0
5504	0	0
5632	0	0
5760	0	0
5888	0	0
6016	0	0
6144	0	0
6272	0	0
6400	0	0
6528	0	0
6656	0	0
6784	0	0
6912	0	0
7040	0	0
7168	0	0
7296	0	0
7424	0	0
7552	0	0
7680	0	0
7808	0	0
7936	0	0
8064	0	0
8192	0	0
8448	0	0
8704	0	0
8960	0	0
9216	0	0
9472	0	0
9728	0	0
9984	0	0
10240	0	0
10496	0	0
10752	0	0
11008	0	0
11264	0	0
11520	0	0
11776	0	0
12032	0	0
12288	0	0
12544	0	0
12800	0	0
13056	0	0
13312	0	0
13568	0	0
13824	0	0
14080	0	0
14336	0	0
14592	0	0
14848	0	0
15104	0	0
15360	0	0
15616	0	0
15872	0	0
16128	0	0
16384	0	0
16896	0	0
17408	0	0
17920	0	0
18432	0	0
18944	0	0
19456	0	0
19968	0	0
20480	0	0
20992	0	0
21504	0	0
22016	0	0
22528	0	0
23040	0	0
23552	0	0
24064	0	0
24576	0	0
25088	0	0
25600	0	0
26112	0	0
26624	0	0
27136	0	0
27648	0	0
28160	0	0
28672	0	0
29184	0	0
29696	0	0
30208	0	0
30720	0	0
31232	0	0
31744	0	0
32256	0	0
32768	0	0
33792	0	0
34816	0	0
35840	0	0
36864	0	0
37888	0	0
38912	0	0
39936	0	0
40960	0	0
41984	0	0
43008	0	0
44032	0	0
45056	0	0
46080	0	0
47104	0	0
48128	0	0
49152	0	0
50176	0	0
51200	0	0
52224	0	0
53248	0	0
54272	0	0
55296	0	0
56320	0	0
57344	0	0
58368	0	0
59392	0	0
60416	0	0
61440	0	0
62464	0	0
63488	0	0
64512	0	0
65536	0	0
67584	0	0
69632	0	0
71680	0	0
73728	0	0
75776	0	0
77824	0	0
79872	0	0
81920	0	0
83968	0	0
86016	0	0
88064	0	0
90112	0	0
92160	0	0
94208	0	0
96256	0	0
98304	0	0
100352	0	0
102400	0	0
104448	0	0
106496	0	0
108544	0	0
110592	0	0
112640	0	0
114688	0	0
116736	0	0
118784	0	0
120832	0	0
122880	0	0
124928	0	0
126976	0	0
129024	0	0
131072	0	0
135168	0	0
139264	0	0
143360	0	0
147456	0	0
151552	0	0
155648	0	0
159744	0	0
163840	0	0
167936	0	0
172032	0	0
176128	0	0
180224	0	0
184320	0	0
188416	0	0
192512	0	0
196608	0	0
200704	0	0
204800	0	0
208896	0	0
212992	0	0
217088	0	0
221184	0	0
225280	0	0
229376	0	0
233472	0	0
237568	0	0
241664	0	0
245760	0	0
249856	0	0
253952	0	0
258048	0	0
262144	0	0
270336	0	0
278528	0	0
286720	0	0
294912	0	0
303104	0	0
311296	0	0
319488	0	0
327680	0	0
335872	0	0
344064	0	0
352256	0	0
360448	0	0
368640	0	0
376832	0	0
385024	0	0
393216	0	0
401408	0	0
409600	0	0
417792	0	0
425984	0	0
434176	0	0
442368	0	0
450560	0	0
458752	0	0
466944	0	0
475136	0	0
483328	0	0
491520	0	0
499712	0	0
507904	0	0
516096	0	0
524288	0	0
540672	0	0
557056	0	0
573440	0	0
589824	0	0
606208	0	0
622592	0	0
638976	0	0
655360	0	0
671744	0	0
688128	0	0
704512	0	0
720896	0	0
737280	0	0
753664	0	0
770048	0	0
786432	0	0
802816	0	0
819200	0	0
835584	0	0
851968	0	0
868352	0	0
884736	0	0
901120	0	0
917504	0	0
933888	0	0
950272	0	0
966656	0	0
983040	0	0
999424	0	0
1015808	0	0
1032192	0	0
1048576	0	0
1081344	0	0
1114112	0	0
1146880	0	0
1179648	0	0
1212416	0	0
1245184	0	0
1277952	0	0
1310720	0	0
1343488	0	0
1376256	0	0
1409024	0	0
1441792	0	0
1474560	0	0
1507328	0	0
1540096	0	0
1572864	0	0
1605632	0	0
1638400	0	0
1671168	0	0
1703936	0	0
1736704	0	0
1769472	0	0
1802240	0	0
1835008	0	0
1867776	0	0
1900544	0	0
1933312	0	0
1966080	0	0
1998848	0	0
2031616	0	0
2064384	0	0
2097152	0	0
2162688	0	0
2228224	0	0
2293760	0	0
2359296	0	0
2424832	0	0
2490368	0	0
2555904	0	0
2621440	0	0
2686976	0	0
2752512	0	0
2818048	0	0
2883584	0	0
2949120	0	0
3014656	0	0
3080192	0	0
3145728	0	0
3211264	0	0
3276800	0	0
3342336	0	0
3407872	0	0
3473408	0	0
3538944	0	0
3604480	0	0
3670016	0	0
3735552	0	0
3801088	0	0
3866624	0	0
3932160	0	0
3997696	0	0
4063232	0	0
4128768	0	0
4194304	0	0
4325376	0	0
4456448	0	0
4587520	0	0
4718592	0	0
4849664	0	0
4980736	0	0
5111808	0	0
5242880	0	0
5373952	0	0
5505024	0	0
5636096	0	0
5767168	0	0
5898240	0	0
6029312	0	0
6160384	0	0
6291456	0	0
6422528	0	0
6553600	0	0
6684672	0	0
6815744	0	0
6946816	0	0
7077888	0	0
7208960	0	0
7340032	0	0
7471104	0	0
7602176	0	0
7733248	0	0
7864320	0	0
7995392	0	0
8126464	0	0
8257536	0	0
8388608	0	0
8650752	0	0
8912896	0	0
9175040	0	0
9437184	0	0
9699328	0	0
9961472	0	0
10223616	0	0
10485760	0	0
10747904	0	0
11010048	0	0
11272192	0	0
11534336	0	0
11796480	0	0
12058624	0	0
12320768	0	0
12582912	0	0
12845056	0	0
13107200	0	0
13369344	0	0
13631488	0	0
13893632	0	0
14155776	0	0
14417920	0	0
14680064	0	0
14942208	0	0
15204352	0	0
15466496	0	0
15728640	0	0
15990784	0	0
16252928	0	0
16515072	0	0
16777216	0	0
17301504	0	0
17825792	0	0
18350080	0	0
18874368	0	0
19398656	0	0
19922944	0	0
20447232	0	0
20971520	0	0
21495808	0	0
22020096	0	0
22544384	0	0
23068672	0	0
23592960	0	0
24117248	0	0
24641536	0	0
25165824	0	0
25690112	0	0
26214400	0	0
26738688	0	0
27262976	0	0
27787264	0	0
28311552	0	0
28835840	0	0
29360128	0	0
29884416	0	0
30408704	0	0
30932992	0	0
31457280	0	0
31981568	0	0
32505856	0	0
33030144	0	0
33554432	0	0
34603008	0	0
35651584	0	0
36700160	0	0
37748736	0	0
38797312	0	0
39845888	0	0
40894464	0	0
41943040	0	0
42991616	0	0
44040192	0	0
45088768	0	0
46137344	0	0
47185920	0	0
48234496	0	0
49283072	0	0
50331648	0	0
51380224	0	0
52428800	0	0
53477376	0	0
54525952	0	0
55574528	0	0
56623104	0	0
57671680	0	0
58720256	0	0
59768832	0	0
60817408	0	0
61865984	0	0
62914560	0	0
63963136	0	0
65011712	0	0
66060288	0	0
67108864	0	0
69206016	0	0
71303168	0	0
73400320	0	0
75497472	0	0
77594624	0	0
79691776	0	0
81788928	0	0
83886080	0	0
85983232	0	0
88080384	0	0
90177536	0	0
92274688	0	0
94371840	0	0
96468992	0	0
98566144	0	0
100663296	0	0
102760448	0	0
104857600	0	0
106954752	0	0
109051904	0	0
111149056	0	0
113246208	0	0
115343360	0	0
117440512	0	0
119537664	0	0
121634816	0	0
123731968	0	0
125829120	0	0
127926272	0	0
130023424	0	0
132120576	0	0
134217728	0	0
138412032	0	0
142606336	0	0
146800640	0	0
150994944	0	0
155189248	0	0
159383552	0	0
163577856	0	0
167772160	0	0
171966464	0	0
176160768	0	0
180355072	0	0
184549376	0	0
188743680	0	0
192937984	0	0
197132288	0	0
201326592	0	0
205520896	0	0
209715200	0	0
213909504	0	0
218103808	0	0
222298112	0	0
226492416	0	0
230686720	0	0
234881024	0	0
239075328	0	0
243269632	0	0
247463936	0	0
251658240	0	0
255852544	0	0
260046848	0	0
264241152	0	0
268435456	0	0
276824064	0	0
285212672	0	0
293601280	0	0
301989888	0	0
310378496	0	0
318767104	0	0
327155712	0	0
335544320	0	0
343932928	0	0
352321536	0	0
360710144	0	0
369098752	0	0
377487360	0	0
385875968	0	0
394264576	0	0
402653184	0	0
411041792	0	0
419430400	0	0
427819008	0	0
436207616	0	0
444596224	0	0
452984832	0	0
461373440	0	0
469762048	0	0
478150656	0	0
486539264	0	0
494927872	0	0
503316480	0	0
511705088	0	0
520093696	0	0
528482304	0	0
536870912	0	0
553648128	0	0
570425344	0	0
587202560	0	0
603979776	0	0
620756992	0	0
637534208	0	0
654311424	0	0
671088640	0	0
687865856	0	0
704643072	0	0
721420288	0	0
738197504	0	0
754974720	0	0
771751936	0	0
788529152	0	0
805306368	0	0
822083584	0	0
838860800	0	0
855638016	0	0
872415232	0	0
889192448	0	0
905969664	0	0
922746880	0	0
939524096	0	0
956301312	0	0
973078528	0	0
989855744	0	0
1006632960	0	0
1023410176	0	0
1040187392	0	0
1056964608	0	0
1073741824	0	0
1107296256	0	0
1140850688	0	0
1174405120	0	0
1207959552	0	0
1241513984	0	0
1275068416	0	0
1308622848	0	0
1342177280	0	0
1375731712	0	0
1409286144	0	0
1442840576	0	0
1476395008	0	0
1509949440	0	0
1543503872	0	0
1577058304	0	0
1610612736	0	0
1644167168	0	0
1677721600	0	0
1711276032	0	0
1744830464	0	0
1778384896	0	0
1811939328	0	0
1845493760	0	0
1879048192	0	0
1912602624	0	0
1946157056	0	0
1979711488	0	0
2013265920	0	0
2046820352	0	0
2080374784	0	0
2113929216	0	0
2147483648	0	0
2214592512	0	0
2281701376	0	0
2348810240	0	0
2415919104	0	0
2483027968	0	0
2550136832	0	0
2617245696	0	0
2684354560	0	0
2751463424	0	0
2818572288	0	0
2885681152	0	0
2952790016	0	0
3019898880	0	0
3087007744	0	0
3154116608	0	0
3221225472	0	0
3288334336	0	0
3355443200	0	0
3422552064	0	0
3489660928	0	0
3556769792	0	0
3623878656	0	0
3690987520	0	0
3758096384	0	0
3825205248	0	0
3892314112	0	0
3959422976	0	0
4026531840	0	0
4093640704	0	0
4160749568	0	0
4227858432	0	0
~~~~~~~~~~Reuse Distance Profiler output end~~~~~~~~~~


DRAM Statistics
 CHANNEL 0
 RQ ROW_BUFFER_HIT:         39  ROW_BUFFER_MISS:      60302
 DBUS AVG_CONGESTED_CYCLE:    3.45714
 WQ ROW_BUFFER_HIT:          0  ROW_BUFFER_MISS:        457  FULL:          0


CPU 0 Branch Prediction Accuracy: 99.396% MPKI: 0.625164 Average ROB Occupancy at Mispredict: 189.216
Branch type MPKI
BRANCH_DIRECT_JUMP: 1.33333e-06
BRANCH_INDIRECT: 0
BRANCH_CONDITIONAL: 0.625163
BRANCH_DIRECT_CALL: 0
BRANCH_INDIRECT_CALL: 0
BRANCH_RETURN: 0

