
*** ChampSim Multicore Out-of-Order Simulator ***

Warmup Instructions: 50000000
Simulation Instructions: 1500000000
Number of CPUs: 1
Off-chip DRAM Size: 4 GiB Channels: 1 Width: 64-bit Data Rate: 3200 MT/s

VirtualMemory physical capacity: 8588881920 num_ppages: 2096895
VirtualMemory page size: 4096 log2_page_size: 12

CPU 0 runs traces/644.nab_s-12521B.champsimtrace.xz
CPU 0 Bimodal branch predictor
Basic BTB sets: 1024 ways: 8 indirect buffer size: 4096 RAS size: 64
Initializing LRU.
Initializing LRU.
Initializing LRU.
Initializing LRU.
Initializing rdLRU.
Initializing LRU.
Initializing LRU.
Heartbeat CPU 0 instructions: 2000000 cycles: 587024 heartbeat IPC: 3.40702 cumulative IPC: 3.40702 (Simulation time: 0 hr 0 min 45 sec) 
Heartbeat CPU 0 instructions: 4000002 cycles: 1173934 heartbeat IPC: 3.40768 cumulative IPC: 3.40735 (Simulation time: 0 hr 1 min 34 sec) 
Heartbeat CPU 0 instructions: 6000000 cycles: 1760795 heartbeat IPC: 3.40796 cumulative IPC: 3.40755 (Simulation time: 0 hr 2 min 35 sec) 
Heartbeat CPU 0 instructions: 8000003 cycles: 2347602 heartbeat IPC: 3.40828 cumulative IPC: 3.40773 (Simulation time: 0 hr 3 min 32 sec) 
Heartbeat CPU 0 instructions: 10000002 cycles: 2934347 heartbeat IPC: 3.40863 cumulative IPC: 3.40791 (Simulation time: 0 hr 4 min 30 sec) 
Heartbeat CPU 0 instructions: 12000002 cycles: 3521091 heartbeat IPC: 3.40864 cumulative IPC: 3.40804 (Simulation time: 0 hr 5 min 24 sec) 
Heartbeat CPU 0 instructions: 14000003 cycles: 4107863 heartbeat IPC: 3.40848 cumulative IPC: 3.4081 (Simulation time: 0 hr 6 min 13 sec) 
Heartbeat CPU 0 instructions: 16000004 cycles: 4694731 heartbeat IPC: 3.40792 cumulative IPC: 3.40808 (Simulation time: 0 hr 7 min 4 sec) 
Heartbeat CPU 0 instructions: 18000001 cycles: 5281584 heartbeat IPC: 3.408 cumulative IPC: 3.40807 (Simulation time: 0 hr 7 min 54 sec) 
Heartbeat CPU 0 instructions: 20000000 cycles: 5868388 heartbeat IPC: 3.40829 cumulative IPC: 3.40809 (Simulation time: 0 hr 8 min 43 sec) 
Heartbeat CPU 0 instructions: 22000002 cycles: 6455168 heartbeat IPC: 3.40844 cumulative IPC: 3.40812 (Simulation time: 0 hr 9 min 34 sec) 
Heartbeat CPU 0 instructions: 24000004 cycles: 7042074 heartbeat IPC: 3.4077 cumulative IPC: 3.40809 (Simulation time: 0 hr 10 min 23 sec) 
Heartbeat CPU 0 instructions: 26000001 cycles: 7628990 heartbeat IPC: 3.40764 cumulative IPC: 3.40805 (Simulation time: 0 hr 11 min 10 sec) 
Heartbeat CPU 0 instructions: 28000000 cycles: 8215888 heartbeat IPC: 3.40775 cumulative IPC: 3.40803 (Simulation time: 0 hr 11 min 58 sec) 
Heartbeat CPU 0 instructions: 30000003 cycles: 8802625 heartbeat IPC: 3.40869 cumulative IPC: 3.40807 (Simulation time: 0 hr 12 min 45 sec) 
Heartbeat CPU 0 instructions: 32000004 cycles: 9389079 heartbeat IPC: 3.41033 cumulative IPC: 3.40822 (Simulation time: 0 hr 13 min 30 sec) 
Heartbeat CPU 0 instructions: 34000002 cycles: 9975577 heartbeat IPC: 3.41007 cumulative IPC: 3.40832 (Simulation time: 0 hr 14 min 18 sec) 
Heartbeat CPU 0 instructions: 36000003 cycles: 10562555 heartbeat IPC: 3.40728 cumulative IPC: 3.40827 (Simulation time: 0 hr 15 min 4 sec) 
Heartbeat CPU 0 instructions: 38000001 cycles: 11149507 heartbeat IPC: 3.40743 cumulative IPC: 3.40822 (Simulation time: 0 hr 15 min 50 sec) 
Heartbeat CPU 0 instructions: 40000002 cycles: 11736454 heartbeat IPC: 3.40746 cumulative IPC: 3.40818 (Simulation time: 0 hr 16 min 40 sec) 
Heartbeat CPU 0 instructions: 42000002 cycles: 12323346 heartbeat IPC: 3.40778 cumulative IPC: 3.40817 (Simulation time: 0 hr 17 min 27 sec) 
Heartbeat CPU 0 instructions: 44000000 cycles: 12910221 heartbeat IPC: 3.40788 cumulative IPC: 3.40815 (Simulation time: 0 hr 18 min 13 sec) 
Heartbeat CPU 0 instructions: 46000003 cycles: 13497129 heartbeat IPC: 3.40769 cumulative IPC: 3.40813 (Simulation time: 0 hr 19 min 3 sec) 
Heartbeat CPU 0 instructions: 48000003 cycles: 14084091 heartbeat IPC: 3.40738 cumulative IPC: 3.4081 (Simulation time: 0 hr 19 min 48 sec) 
Heartbeat CPU 0 instructions: 50000000 cycles: 14671040 heartbeat IPC: 3.40745 cumulative IPC: 3.40807 (Simulation time: 0 hr 20 min 40 sec) 

Warmup complete CPU 0 instructions: 50000005 cycles: 14671041 (Simulation time: 0 hr 20 min 40 sec) 

Heartbeat CPU 0 instructions: 52000003 cycles: 15698804 heartbeat IPC: 1.94597 cumulative IPC: 1.94597 (Simulation time: 0 hr 21 min 46 sec) 

Region of Interest Statistics
cpu0_DTLB TOTAL     ACCESS:     421473  HIT:     421329  MISS:        144
cpu0_DTLB LOAD      ACCESS:     402973  HIT:     402829  MISS:        144
cpu0_DTLB RFO       ACCESS:      18500  HIT:      18500  MISS:          0
cpu0_DTLB PREFETCH  ACCESS:          0  HIT:          0  MISS:          0
cpu0_DTLB WRITEBACK ACCESS:          0  HIT:          0  MISS:          0
cpu0_ITLB TOTAL     ACCESS:       1477  HIT:       1477  MISS:          0
cpu0_ITLB LOAD      ACCESS:       1477  HIT:       1477  MISS:          0
cpu0_ITLB RFO       ACCESS:          0  HIT:          0  MISS:          0
cpu0_ITLB PREFETCH  ACCESS:          0  HIT:          0  MISS:          0
cpu0_ITLB WRITEBACK ACCESS:          0  HIT:          0  MISS:          0
cpu0_STLB TOTAL     ACCESS:        144  HIT:        108  MISS:         36
cpu0_STLB LOAD      ACCESS:        144  HIT:        108  MISS:         36
cpu0_STLB RFO       ACCESS:          0  HIT:          0  MISS:          0
cpu0_STLB PREFETCH  ACCESS:          0  HIT:          0  MISS:          0
cpu0_STLB WRITEBACK ACCESS:          0  HIT:          0  MISS:          0
cpu0_L1D TOTAL     ACCESS:     535260  HIT:     516610  MISS:      18650
cpu0_L1D LOAD      ACCESS:     479929  HIT:     461329  MISS:      18600
cpu0_L1D RFO       ACCESS:      55295  HIT:      55263  MISS:         32
cpu0_L1D PREFETCH  ACCESS:          0  HIT:          0  MISS:          0
cpu0_L1D WRITEBACK ACCESS:          0  HIT:          0  MISS:          0
cpu0_L2C TOTAL     ACCESS:      24876  HIT:      23655  MISS:       1221
cpu0_L2C LOAD      ACCESS:      18600  HIT:      17379  MISS:       1221
cpu0_L2C RFO       ACCESS:         32  HIT:         32  MISS:          0
cpu0_L2C PREFETCH  ACCESS:          0  HIT:          0  MISS:          0
cpu0_L2C WRITEBACK ACCESS:       6226  HIT:       6226  MISS:          0
LLC TOTAL     ACCESS:       1254  HIT:         56  MISS:       1198
LLC LOAD      ACCESS:       1221  HIT:         23  MISS:       1198
LLC RFO       ACCESS:          0  HIT:          0  MISS:          0
LLC PREFETCH  ACCESS:          0  HIT:          0  MISS:          0
LLC WRITEBACK ACCESS:         33  HIT:         33  MISS:          0
Heartbeat CPU 0 instructions: 54000002 cycles: 16766291 heartbeat IPC: 1.87356 cumulative IPC: 1.90908 (Simulation time: 0 hr 22 min 50 sec) 

Region of Interest Statistics
cpu0_DTLB TOTAL     ACCESS:     847262  HIT:     846819  MISS:        443
cpu0_DTLB LOAD      ACCESS:     810120  HIT:     809679  MISS:        441
cpu0_DTLB RFO       ACCESS:      37142  HIT:      37140  MISS:          2
cpu0_DTLB PREFETCH  ACCESS:          0  HIT:          0  MISS:          0
cpu0_DTLB WRITEBACK ACCESS:          0  HIT:          0  MISS:          0
cpu0_ITLB TOTAL     ACCESS:       5641  HIT:       5641  MISS:          0
cpu0_ITLB LOAD      ACCESS:       5641  HIT:       5641  MISS:          0
cpu0_ITLB RFO       ACCESS:          0  HIT:          0  MISS:          0
cpu0_ITLB PREFETCH  ACCESS:          0  HIT:          0  MISS:          0
cpu0_ITLB WRITEBACK ACCESS:          0  HIT:          0  MISS:          0
cpu0_STLB TOTAL     ACCESS:        443  HIT:        335  MISS:        108
cpu0_STLB LOAD      ACCESS:        441  HIT:        333  MISS:        108
cpu0_STLB RFO       ACCESS:          2  HIT:          2  MISS:          0
cpu0_STLB PREFETCH  ACCESS:          0  HIT:          0  MISS:          0
cpu0_STLB WRITEBACK ACCESS:          0  HIT:          0  MISS:          0
cpu0_L1D TOTAL     ACCESS:    1070196  HIT:    1048415  MISS:      21781
cpu0_L1D LOAD      ACCESS:     959067  HIT:     937362  MISS:      21705
cpu0_L1D RFO       ACCESS:     111021  HIT:     110964  MISS:         57
cpu0_L1D PREFETCH  ACCESS:          0  HIT:          0  MISS:          0
cpu0_L1D WRITEBACK ACCESS:          0  HIT:          0  MISS:          0
cpu0_L2C TOTAL     ACCESS:      28686  HIT:      26199  MISS:       2487
cpu0_L2C LOAD      ACCESS:      21704  HIT:      19217  MISS:       2487
cpu0_L2C RFO       ACCESS:         57  HIT:         57  MISS:          0
cpu0_L2C PREFETCH  ACCESS:          0  HIT:          0  MISS:          0
cpu0_L2C WRITEBACK ACCESS:       6906  HIT:       6906  MISS:          0
LLC TOTAL     ACCESS:       2544  HIT:         82  MISS:       2462
LLC LOAD      ACCESS:       2487  HIT:         25  MISS:       2462
LLC RFO       ACCESS:          0  HIT:          0  MISS:          0
LLC PREFETCH  ACCESS:          0  HIT:          0  MISS:          0
LLC WRITEBACK ACCESS:         57  HIT:         57  MISS:          0
Heartbeat CPU 0 instructions: 56000001 cycles: 17844708 heartbeat IPC: 1.85457 cumulative IPC: 1.89056 (Simulation time: 0 hr 23 min 53 sec) 

Region of Interest Statistics
cpu0_DTLB TOTAL     ACCESS:    1275332  HIT:    1274653  MISS:        679
cpu0_DTLB LOAD      ACCESS:    1219440  HIT:    1218764  MISS:        676
cpu0_DTLB RFO       ACCESS:      55892  HIT:      55889  MISS:          3
cpu0_DTLB PREFETCH  ACCESS:          0  HIT:          0  MISS:          0
cpu0_DTLB WRITEBACK ACCESS:          0  HIT:          0  MISS:          0
cpu0_ITLB TOTAL     ACCESS:      10592  HIT:      10592  MISS:          0
cpu0_ITLB LOAD      ACCESS:      10592  HIT:      10592  MISS:          0
cpu0_ITLB RFO       ACCESS:          0  HIT:          0  MISS:          0
cpu0_ITLB PREFETCH  ACCESS:          0  HIT:          0  MISS:          0
cpu0_ITLB WRITEBACK ACCESS:          0  HIT:          0  MISS:          0
cpu0_STLB TOTAL     ACCESS:        679  HIT:        485  MISS:        194
cpu0_STLB LOAD      ACCESS:        676  HIT:        482  MISS:        194
cpu0_STLB RFO       ACCESS:          3  HIT:          3  MISS:          0
cpu0_STLB PREFETCH  ACCESS:          0  HIT:          0  MISS:          0
cpu0_STLB WRITEBACK ACCESS:          0  HIT:          0  MISS:          0
cpu0_L1D TOTAL     ACCESS:    1605004  HIT:    1581540  MISS:      23464
cpu0_L1D LOAD      ACCESS:    1437875  HIT:    1414491  MISS:      23384
cpu0_L1D RFO       ACCESS:     166935  HIT:     166875  MISS:         60
cpu0_L1D PREFETCH  ACCESS:          0  HIT:          0  MISS:          0
cpu0_L1D WRITEBACK ACCESS:          0  HIT:          0  MISS:          0
cpu0_L2C TOTAL     ACCESS:      30530  HIT:      26728  MISS:       3802
cpu0_L2C LOAD      ACCESS:      23383  HIT:      19581  MISS:       3802
cpu0_L2C RFO       ACCESS:         60  HIT:         60  MISS:          0
cpu0_L2C PREFETCH  ACCESS:          0  HIT:          0  MISS:          0
cpu0_L2C WRITEBACK ACCESS:       7067  HIT:       7067  MISS:          0
LLC TOTAL     ACCESS:       3900  HIT:        138  MISS:       3762
LLC LOAD      ACCESS:       3802  HIT:         40  MISS:       3762
LLC RFO       ACCESS:          0  HIT:          0  MISS:          0
LLC PREFETCH  ACCESS:          0  HIT:          0  MISS:          0
LLC WRITEBACK ACCESS:         98  HIT:         98  MISS:          0
Heartbeat CPU 0 instructions: 58000000 cycles: 18915889 heartbeat IPC: 1.8671 cumulative IPC: 1.88464 (Simulation time: 0 hr 24 min 55 sec) 

Region of Interest Statistics
cpu0_DTLB TOTAL     ACCESS:    1700739  HIT:    1699953  MISS:        786
cpu0_DTLB LOAD      ACCESS:    1626158  HIT:    1625376  MISS:        782
cpu0_DTLB RFO       ACCESS:      74581  HIT:      74577  MISS:          4
cpu0_DTLB PREFETCH  ACCESS:          0  HIT:          0  MISS:          0
cpu0_DTLB WRITEBACK ACCESS:          0  HIT:          0  MISS:          0
cpu0_ITLB TOTAL     ACCESS:      15115  HIT:      15115  MISS:          0
cpu0_ITLB LOAD      ACCESS:      15115  HIT:      15115  MISS:          0
cpu0_ITLB RFO       ACCESS:          0  HIT:          0  MISS:          0
cpu0_ITLB PREFETCH  ACCESS:          0  HIT:          0  MISS:          0
cpu0_ITLB WRITEBACK ACCESS:          0  HIT:          0  MISS:          0
cpu0_STLB TOTAL     ACCESS:        786  HIT:        513  MISS:        273
cpu0_STLB LOAD      ACCESS:        782  HIT:        509  MISS:        273
cpu0_STLB RFO       ACCESS:          4  HIT:          4  MISS:          0
cpu0_STLB PREFETCH  ACCESS:          0  HIT:          0  MISS:          0
cpu0_STLB WRITEBACK ACCESS:          0  HIT:          0  MISS:          0
cpu0_L1D TOTAL     ACCESS:    2139913  HIT:    2114408  MISS:      25505
cpu0_L1D LOAD      ACCESS:    1916866  HIT:    1891446  MISS:      25420
cpu0_L1D RFO       ACCESS:     222774  HIT:     222712  MISS:         62
cpu0_L1D PREFETCH  ACCESS:          0  HIT:          0  MISS:          0
cpu0_L1D WRITEBACK ACCESS:          0  HIT:          0  MISS:          0
cpu0_L2C TOTAL     ACCESS:      32796  HIT:      27689  MISS:       5107
cpu0_L2C LOAD      ACCESS:      25419  HIT:      20314  MISS:       5105
cpu0_L2C RFO       ACCESS:         62  HIT:         62  MISS:          0
cpu0_L2C PREFETCH  ACCESS:          0  HIT:          0  MISS:          0
cpu0_L2C WRITEBACK ACCESS:       7292  HIT:       7291  MISS:          1
LLC TOTAL     ACCESS:       5251  HIT:        205  MISS:       5046
LLC LOAD      ACCESS:       5105  HIT:         59  MISS:       5046
LLC RFO       ACCESS:          0  HIT:          0  MISS:          0
LLC PREFETCH  ACCESS:          0  HIT:          0  MISS:          0
LLC WRITEBACK ACCESS:        145  HIT:        145  MISS:          0
Heartbeat CPU 0 instructions: 60000000 cycles: 19974521 heartbeat IPC: 1.88923 cumulative IPC: 1.88555 (Simulation time: 0 hr 25 min 57 sec) 

Region of Interest Statistics
cpu0_DTLB TOTAL     ACCESS:    2127362  HIT:    2126474  MISS:        888
cpu0_DTLB LOAD      ACCESS:    2034166  HIT:    2033282  MISS:        884
cpu0_DTLB RFO       ACCESS:      93196  HIT:      93192  MISS:          4
cpu0_DTLB PREFETCH  ACCESS:          0  HIT:          0  MISS:          0
cpu0_DTLB WRITEBACK ACCESS:          0  HIT:          0  MISS:          0
cpu0_ITLB TOTAL     ACCESS:      18572  HIT:      18572  MISS:          0
cpu0_ITLB LOAD      ACCESS:      18572  HIT:      18572  MISS:          0
cpu0_ITLB RFO       ACCESS:          0  HIT:          0  MISS:          0
cpu0_ITLB PREFETCH  ACCESS:          0  HIT:          0  MISS:          0
cpu0_ITLB WRITEBACK ACCESS:          0  HIT:          0  MISS:          0
cpu0_STLB TOTAL     ACCESS:        888  HIT:        548  MISS:        340
cpu0_STLB LOAD      ACCESS:        884  HIT:        544  MISS:        340
cpu0_STLB RFO       ACCESS:          4  HIT:          4  MISS:          0
cpu0_STLB PREFETCH  ACCESS:          0  HIT:          0  MISS:          0
cpu0_STLB WRITEBACK ACCESS:          0  HIT:          0  MISS:          0
cpu0_L1D TOTAL     ACCESS:    2675125  HIT:    2646267  MISS:      28858
cpu0_L1D LOAD      ACCESS:    2396397  HIT:    2367628  MISS:      28769
cpu0_L1D RFO       ACCESS:     278388  HIT:     278323  MISS:         65
cpu0_L1D PREFETCH  ACCESS:          0  HIT:          0  MISS:          0
cpu0_L1D WRITEBACK ACCESS:          0  HIT:          0  MISS:          0
cpu0_L2C TOTAL     ACCESS:      36831  HIT:      30465  MISS:       6366
cpu0_L2C LOAD      ACCESS:      28767  HIT:      22404  MISS:       6363
cpu0_L2C RFO       ACCESS:         65  HIT:         65  MISS:          0
cpu0_L2C PREFETCH  ACCESS:          0  HIT:          0  MISS:          0
cpu0_L2C WRITEBACK ACCESS:       7975  HIT:       7973  MISS:          2
LLC TOTAL     ACCESS:       6566  HIT:        278  MISS:       6288
LLC LOAD      ACCESS:       6363  HIT:         75  MISS:       6288
LLC RFO       ACCESS:          0  HIT:          0  MISS:          0
LLC PREFETCH  ACCESS:          0  HIT:          0  MISS:          0
LLC WRITEBACK ACCESS:        202  HIT:        202  MISS:          0
Heartbeat CPU 0 instructions: 62000000 cycles: 21022569 heartbeat IPC: 1.90831 cumulative IPC: 1.88931 (Simulation time: 0 hr 27 min 4 sec) 

Region of Interest Statistics
cpu0_DTLB TOTAL     ACCESS:    2551455  HIT:    2550488  MISS:        967
cpu0_DTLB LOAD      ACCESS:    2439697  HIT:    2438735  MISS:        962
cpu0_DTLB RFO       ACCESS:     111758  HIT:     111753  MISS:          5
cpu0_DTLB PREFETCH  ACCESS:          0  HIT:          0  MISS:          0
cpu0_DTLB WRITEBACK ACCESS:          0  HIT:          0  MISS:          0
cpu0_ITLB TOTAL     ACCESS:      21161  HIT:      21161  MISS:          0
cpu0_ITLB LOAD      ACCESS:      21161  HIT:      21161  MISS:          0
cpu0_ITLB RFO       ACCESS:          0  HIT:          0  MISS:          0
cpu0_ITLB PREFETCH  ACCESS:          0  HIT:          0  MISS:          0
cpu0_ITLB WRITEBACK ACCESS:          0  HIT:          0  MISS:          0
cpu0_STLB TOTAL     ACCESS:        967  HIT:        571  MISS:        396
cpu0_STLB LOAD      ACCESS:        962  HIT:        566  MISS:        396
cpu0_STLB RFO       ACCESS:          5  HIT:          5  MISS:          0
cpu0_STLB PREFETCH  ACCESS:          0  HIT:          0  MISS:          0
cpu0_STLB WRITEBACK ACCESS:          0  HIT:          0  MISS:          0
cpu0_L1D TOTAL     ACCESS:    3210079  HIT:    3176507  MISS:      33572
cpu0_L1D LOAD      ACCESS:    2875796  HIT:    2842315  MISS:      33481
cpu0_L1D RFO       ACCESS:     333887  HIT:     333820  MISS:         67
cpu0_L1D PREFETCH  ACCESS:          0  HIT:          0  MISS:          0
cpu0_L1D WRITEBACK ACCESS:          0  HIT:          0  MISS:          0
cpu0_L2C TOTAL     ACCESS:      42776  HIT:      35161  MISS:       7615
cpu0_L2C LOAD      ACCESS:      33479  HIT:      25867  MISS:       7612
cpu0_L2C RFO       ACCESS:         67  HIT:         67  MISS:          0
cpu0_L2C PREFETCH  ACCESS:          0  HIT:          0  MISS:          0
cpu0_L2C WRITEBACK ACCESS:       9206  HIT:       9204  MISS:          2
LLC TOTAL     ACCESS:       7835  HIT:        319  MISS:       7516
LLC LOAD      ACCESS:       7612  HIT:         96  MISS:       7516
LLC RFO       ACCESS:          0  HIT:          0  MISS:          0
LLC PREFETCH  ACCESS:          0  HIT:          0  MISS:          0
LLC WRITEBACK ACCESS:        222  HIT:        222  MISS:          0
Heartbeat CPU 0 instructions: 64000000 cycles: 22079601 heartbeat IPC: 1.89209 cumulative IPC: 1.88971 (Simulation time: 0 hr 28 min 11 sec) 

Region of Interest Statistics
cpu0_DTLB TOTAL     ACCESS:    2976589  HIT:    2975481  MISS:       1108
cpu0_DTLB LOAD      ACCESS:    2846197  HIT:    2845094  MISS:       1103
cpu0_DTLB RFO       ACCESS:     130392  HIT:     130387  MISS:          5
cpu0_DTLB PREFETCH  ACCESS:          0  HIT:          0  MISS:          0
cpu0_DTLB WRITEBACK ACCESS:          0  HIT:          0  MISS:          0
cpu0_ITLB TOTAL     ACCESS:      24626  HIT:      24626  MISS:          0
cpu0_ITLB LOAD      ACCESS:      24626  HIT:      24626  MISS:          0
cpu0_ITLB RFO       ACCESS:          0  HIT:          0  MISS:          0
cpu0_ITLB PREFETCH  ACCESS:          0  HIT:          0  MISS:          0
cpu0_ITLB WRITEBACK ACCESS:          0  HIT:          0  MISS:          0
cpu0_STLB TOTAL     ACCESS:       1108  HIT:        646  MISS:        462
cpu0_STLB LOAD      ACCESS:       1103  HIT:        641  MISS:        462
cpu0_STLB RFO       ACCESS:          5  HIT:          5  MISS:          0
cpu0_STLB PREFETCH  ACCESS:          0  HIT:          0  MISS:          0
cpu0_STLB WRITEBACK ACCESS:          0  HIT:          0  MISS:          0
cpu0_L1D TOTAL     ACCESS:    3744827  HIT:    3706724  MISS:      38103
cpu0_L1D LOAD      ACCESS:    3354838  HIT:    3316838  MISS:      38000
cpu0_L1D RFO       ACCESS:     389527  HIT:     389451  MISS:         76
cpu0_L1D PREFETCH  ACCESS:          0  HIT:          0  MISS:          0
cpu0_L1D WRITEBACK ACCESS:          0  HIT:          0  MISS:          0
cpu0_L2C TOTAL     ACCESS:      48431  HIT:      39398  MISS:       9033
cpu0_L2C LOAD      ACCESS:      37998  HIT:      28975  MISS:       9023
cpu0_L2C RFO       ACCESS:         76  HIT:         76  MISS:          0
cpu0_L2C PREFETCH  ACCESS:          0  HIT:          0  MISS:          0
cpu0_L2C WRITEBACK ACCESS:      10330  HIT:      10321  MISS:          9
LLC TOTAL     ACCESS:       9278  HIT:        504  MISS:       8774
LLC LOAD      ACCESS:       9023  HIT:        249  MISS:       8774
LLC RFO       ACCESS:          0  HIT:          0  MISS:          0
LLC PREFETCH  ACCESS:          0  HIT:          0  MISS:          0
LLC WRITEBACK ACCESS:        254  HIT:        254  MISS:          0
Heartbeat CPU 0 instructions: 66000002 cycles: 23120997 heartbeat IPC: 1.9205 cumulative IPC: 1.8935 (Simulation time: 0 hr 29 min 19 sec) 

Region of Interest Statistics
cpu0_DTLB TOTAL     ACCESS:    3398416  HIT:    3397204  MISS:       1212
cpu0_DTLB LOAD      ACCESS:    3249490  HIT:    3248283  MISS:       1207
cpu0_DTLB RFO       ACCESS:     148926  HIT:     148921  MISS:          5
cpu0_DTLB PREFETCH  ACCESS:          0  HIT:          0  MISS:          0
cpu0_DTLB WRITEBACK ACCESS:          0  HIT:          0  MISS:          0
cpu0_ITLB TOTAL     ACCESS:      26622  HIT:      26622  MISS:          0
cpu0_ITLB LOAD      ACCESS:      26622  HIT:      26622  MISS:          0
cpu0_ITLB RFO       ACCESS:          0  HIT:          0  MISS:          0
cpu0_ITLB PREFETCH  ACCESS:          0  HIT:          0  MISS:          0
cpu0_ITLB WRITEBACK ACCESS:          0  HIT:          0  MISS:          0
cpu0_STLB TOTAL     ACCESS:       1212  HIT:        703  MISS:        509
cpu0_STLB LOAD      ACCESS:       1207  HIT:        698  MISS:        509
cpu0_STLB RFO       ACCESS:          5  HIT:          5  MISS:          0
cpu0_STLB PREFETCH  ACCESS:          0  HIT:          0  MISS:          0
cpu0_STLB WRITEBACK ACCESS:          0  HIT:          0  MISS:          0
cpu0_L1D TOTAL     ACCESS:    4279730  HIT:    4227779  MISS:      51951
cpu0_L1D LOAD      ACCESS:    3834326  HIT:    3782504  MISS:      51822
cpu0_L1D RFO       ACCESS:     444895  HIT:     444800  MISS:         95
cpu0_L1D PREFETCH  ACCESS:          0  HIT:          0  MISS:          0
cpu0_L1D WRITEBACK ACCESS:          0  HIT:          0  MISS:          0
cpu0_L2C TOTAL     ACCESS:      66694  HIT:      56335  MISS:      10359
cpu0_L2C LOAD      ACCESS:      51820  HIT:      41472  MISS:      10348
cpu0_L2C RFO       ACCESS:         95  HIT:         95  MISS:          0
cpu0_L2C PREFETCH  ACCESS:          0  HIT:          0  MISS:          0
cpu0_L2C WRITEBACK ACCESS:      14745  HIT:      14735  MISS:         10
LLC TOTAL     ACCESS:      10648  HIT:        658  MISS:       9990
LLC LOAD      ACCESS:      10348  HIT:        358  MISS:       9990
LLC RFO       ACCESS:          0  HIT:          0  MISS:          0
LLC PREFETCH  ACCESS:          0  HIT:          0  MISS:          0
LLC WRITEBACK ACCESS:        299  HIT:        299  MISS:          0
Heartbeat CPU 0 instructions: 68000003 cycles: 24162672 heartbeat IPC: 1.91999 cumulative IPC: 1.89641 (Simulation time: 0 hr 30 min 27 sec) 

Region of Interest Statistics
cpu0_DTLB TOTAL     ACCESS:    3821019  HIT:    3819706  MISS:       1313
cpu0_DTLB LOAD      ACCESS:    3653514  HIT:    3652207  MISS:       1307
cpu0_DTLB RFO       ACCESS:     167505  HIT:     167499  MISS:          6
cpu0_DTLB PREFETCH  ACCESS:          0  HIT:          0  MISS:          0
cpu0_DTLB WRITEBACK ACCESS:          0  HIT:          0  MISS:          0
cpu0_ITLB TOTAL     ACCESS:      28824  HIT:      28824  MISS:          0
cpu0_ITLB LOAD      ACCESS:      28824  HIT:      28824  MISS:          0
cpu0_ITLB RFO       ACCESS:          0  HIT:          0  MISS:          0
cpu0_ITLB PREFETCH  ACCESS:          0  HIT:          0  MISS:          0
cpu0_ITLB WRITEBACK ACCESS:          0  HIT:          0  MISS:          0
cpu0_STLB TOTAL     ACCESS:       1313  HIT:        754  MISS:        559
cpu0_STLB LOAD      ACCESS:       1307  HIT:        748  MISS:        559
cpu0_STLB RFO       ACCESS:          6  HIT:          6  MISS:          0
cpu0_STLB PREFETCH  ACCESS:          0  HIT:          0  MISS:          0
cpu0_STLB WRITEBACK ACCESS:          0  HIT:          0  MISS:          0
cpu0_L1D TOTAL     ACCESS:    4814576  HIT:    4750807  MISS:      63769
cpu0_L1D LOAD      ACCESS:    4313704  HIT:    4250088  MISS:      63616
cpu0_L1D RFO       ACCESS:     500313  HIT:     500207  MISS:        106
cpu0_L1D PREFETCH  ACCESS:          0  HIT:          0  MISS:          0
cpu0_L1D WRITEBACK ACCESS:          0  HIT:          0  MISS:          0
cpu0_L2C TOTAL     ACCESS:      81898  HIT:      70093  MISS:      11805
cpu0_L2C LOAD      ACCESS:      63614  HIT:      51821  MISS:      11793
cpu0_L2C RFO       ACCESS:        106  HIT:        106  MISS:          0
cpu0_L2C PREFETCH  ACCESS:          0  HIT:          0  MISS:          0
cpu0_L2C WRITEBACK ACCESS:      18131  HIT:      18121  MISS:         10
LLC TOTAL     ACCESS:      12113  HIT:        909  MISS:      11204
LLC LOAD      ACCESS:      11793  HIT:        589  MISS:      11204
LLC RFO       ACCESS:          0  HIT:          0  MISS:          0
LLC PREFETCH  ACCESS:          0  HIT:          0  MISS:          0
LLC WRITEBACK ACCESS:        318  HIT:        318  MISS:          0
Heartbeat CPU 0 instructions: 70000004 cycles: 25198013 heartbeat IPC: 1.93173 cumulative IPC: 1.89988 (Simulation time: 0 hr 31 min 35 sec) 

Region of Interest Statistics
cpu0_DTLB TOTAL     ACCESS:    4241398  HIT:    4239909  MISS:       1489
cpu0_DTLB LOAD      ACCESS:    4055340  HIT:    4053859  MISS:       1481
cpu0_DTLB RFO       ACCESS:     186058  HIT:     186050  MISS:          8
cpu0_DTLB PREFETCH  ACCESS:          0  HIT:          0  MISS:          0
cpu0_DTLB WRITEBACK ACCESS:          0  HIT:          0  MISS:          0
cpu0_ITLB TOTAL     ACCESS:      30645  HIT:      30645  MISS:          0
cpu0_ITLB LOAD      ACCESS:      30645  HIT:      30645  MISS:          0
cpu0_ITLB RFO       ACCESS:          0  HIT:          0  MISS:          0
cpu0_ITLB PREFETCH  ACCESS:          0  HIT:          0  MISS:          0
cpu0_ITLB WRITEBACK ACCESS:          0  HIT:          0  MISS:          0
cpu0_STLB TOTAL     ACCESS:       1489  HIT:        885  MISS:        604
cpu0_STLB LOAD      ACCESS:       1481  HIT:        877  MISS:        604
cpu0_STLB RFO       ACCESS:          8  HIT:          8  MISS:          0
cpu0_STLB PREFETCH  ACCESS:          0  HIT:          0  MISS:          0
cpu0_STLB WRITEBACK ACCESS:          0  HIT:          0  MISS:          0
cpu0_L1D TOTAL     ACCESS:    5349319  HIT:    5266254  MISS:      83065
cpu0_L1D LOAD      ACCESS:    4793080  HIT:    4710206  MISS:      82874
cpu0_L1D RFO       ACCESS:     555635  HIT:     555504  MISS:        131
cpu0_L1D PREFETCH  ACCESS:          0  HIT:          0  MISS:          0
cpu0_L1D WRITEBACK ACCESS:          0  HIT:          0  MISS:          0
cpu0_L2C TOTAL     ACCESS:     107648  HIT:      94585  MISS:      13063
cpu0_L2C LOAD      ACCESS:      82872  HIT:      69822  MISS:      13050
cpu0_L2C RFO       ACCESS:        131  HIT:        131  MISS:          0
cpu0_L2C PREFETCH  ACCESS:          0  HIT:          0  MISS:          0
cpu0_L2C WRITEBACK ACCESS:      24585  HIT:      24575  MISS:         10
LLC TOTAL     ACCESS:      13373  HIT:        961  MISS:      12412
LLC LOAD      ACCESS:      13050  HIT:        638  MISS:      12412
LLC RFO       ACCESS:          0  HIT:          0  MISS:          0
LLC PREFETCH  ACCESS:          0  HIT:          0  MISS:          0
LLC WRITEBACK ACCESS:        320  HIT:        320  MISS:          0
Heartbeat CPU 0 instructions: 72000004 cycles: 26235701 heartbeat IPC: 1.92736 cumulative IPC: 1.90235 (Simulation time: 0 hr 32 min 44 sec) 

Region of Interest Statistics
cpu0_DTLB TOTAL     ACCESS:    4662659  HIT:    4661003  MISS:       1656
cpu0_DTLB LOAD      ACCESS:    4458029  HIT:    4456382  MISS:       1647
cpu0_DTLB RFO       ACCESS:     204630  HIT:     204621  MISS:          9
cpu0_DTLB PREFETCH  ACCESS:          0  HIT:          0  MISS:          0
cpu0_DTLB WRITEBACK ACCESS:          0  HIT:          0  MISS:          0
cpu0_ITLB TOTAL     ACCESS:      32198  HIT:      32198  MISS:          0
cpu0_ITLB LOAD      ACCESS:      32198  HIT:      32198  MISS:          0
cpu0_ITLB RFO       ACCESS:          0  HIT:          0  MISS:          0
cpu0_ITLB PREFETCH  ACCESS:          0  HIT:          0  MISS:          0
cpu0_ITLB WRITEBACK ACCESS:          0  HIT:          0  MISS:          0
cpu0_STLB TOTAL     ACCESS:       1656  HIT:       1006  MISS:        650
cpu0_STLB LOAD      ACCESS:       1647  HIT:        997  MISS:        650
cpu0_STLB RFO       ACCESS:          9  HIT:          9  MISS:          0
cpu0_STLB PREFETCH  ACCESS:          0  HIT:          0  MISS:          0
cpu0_STLB WRITEBACK ACCESS:          0  HIT:          0  MISS:          0
cpu0_L1D TOTAL     ACCESS:    5884015  HIT:    5782322  MISS:     101693
cpu0_L1D LOAD      ACCESS:    5272414  HIT:    5170948  MISS:     101466
cpu0_L1D RFO       ACCESS:     610951  HIT:     610796  MISS:        155
cpu0_L1D PREFETCH  ACCESS:          0  HIT:          0  MISS:          0
cpu0_L1D WRITEBACK ACCESS:          0  HIT:          0  MISS:          0
cpu0_L2C TOTAL     ACCESS:     132357  HIT:     117961  MISS:      14396
cpu0_L2C LOAD      ACCESS:     101464  HIT:      87081  MISS:      14383
cpu0_L2C RFO       ACCESS:        155  HIT:        155  MISS:          0
cpu0_L2C PREFETCH  ACCESS:          0  HIT:          0  MISS:          0
cpu0_L2C WRITEBACK ACCESS:      30666  HIT:      30656  MISS:         10
LLC TOTAL     ACCESS:      14720  HIT:       1088  MISS:      13632
LLC LOAD      ACCESS:      14383  HIT:        751  MISS:      13632
LLC RFO       ACCESS:          0  HIT:          0  MISS:          0
LLC PREFETCH  ACCESS:          0  HIT:          0  MISS:          0
LLC WRITEBACK ACCESS:        334  HIT:        334  MISS:          0
Heartbeat CPU 0 instructions: 74000000 cycles: 27268373 heartbeat IPC: 1.93672 cumulative IPC: 1.90516 (Simulation time: 0 hr 33 min 53 sec) 

Region of Interest Statistics
cpu0_DTLB TOTAL     ACCESS:    5085178  HIT:    5083390  MISS:       1788
cpu0_DTLB LOAD      ACCESS:    4861952  HIT:    4860175  MISS:       1777
cpu0_DTLB RFO       ACCESS:     223226  HIT:     223215  MISS:         11
cpu0_DTLB PREFETCH  ACCESS:          0  HIT:          0  MISS:          0
cpu0_DTLB WRITEBACK ACCESS:          0  HIT:          0  MISS:          0
cpu0_ITLB TOTAL     ACCESS:      33907  HIT:      33907  MISS:          0
cpu0_ITLB LOAD      ACCESS:      33907  HIT:      33907  MISS:          0
cpu0_ITLB RFO       ACCESS:          0  HIT:          0  MISS:          0
cpu0_ITLB PREFETCH  ACCESS:          0  HIT:          0  MISS:          0
cpu0_ITLB WRITEBACK ACCESS:          0  HIT:          0  MISS:          0
cpu0_STLB TOTAL     ACCESS:       1788  HIT:       1101  MISS:        687
cpu0_STLB LOAD      ACCESS:       1777  HIT:       1090  MISS:        687
cpu0_STLB RFO       ACCESS:         11  HIT:         11  MISS:          0
cpu0_STLB PREFETCH  ACCESS:          0  HIT:          0  MISS:          0
cpu0_STLB WRITEBACK ACCESS:          0  HIT:          0  MISS:          0
cpu0_L1D TOTAL     ACCESS:    6418590  HIT:    6297752  MISS:     120838
cpu0_L1D LOAD      ACCESS:    5751663  HIT:    5631099  MISS:     120564
cpu0_L1D RFO       ACCESS:     666240  HIT:     666055  MISS:        185
cpu0_L1D PREFETCH  ACCESS:          0  HIT:          0  MISS:          0
cpu0_L1D WRITEBACK ACCESS:          0  HIT:          0  MISS:          0
cpu0_L2C TOTAL     ACCESS:     157897  HIT:     142186  MISS:      15711
cpu0_L2C LOAD      ACCESS:     120562  HIT:     104864  MISS:      15698
cpu0_L2C RFO       ACCESS:        185  HIT:        185  MISS:          0
cpu0_L2C PREFETCH  ACCESS:          0  HIT:          0  MISS:          0
cpu0_L2C WRITEBACK ACCESS:      37061  HIT:      37051  MISS:         10
LLC TOTAL     ACCESS:      16074  HIT:       1221  MISS:      14853
LLC LOAD      ACCESS:      15698  HIT:        845  MISS:      14853
LLC RFO       ACCESS:          0  HIT:          0  MISS:          0
LLC PREFETCH  ACCESS:          0  HIT:          0  MISS:          0
LLC WRITEBACK ACCESS:        373  HIT:        373  MISS:          0
Heartbeat CPU 0 instructions: 76000001 cycles: 28303497 heartbeat IPC: 1.93214 cumulative IPC: 1.90721 (Simulation time: 0 hr 35 min 4 sec) 

Region of Interest Statistics
cpu0_DTLB TOTAL     ACCESS:    5508039  HIT:    5506115  MISS:       1924
cpu0_DTLB LOAD      ACCESS:    5266212  HIT:    5264301  MISS:       1911
cpu0_DTLB RFO       ACCESS:     241827  HIT:     241814  MISS:         13
cpu0_DTLB PREFETCH  ACCESS:          0  HIT:          0  MISS:          0
cpu0_DTLB WRITEBACK ACCESS:          0  HIT:          0  MISS:          0
cpu0_ITLB TOTAL     ACCESS:      35950  HIT:      35950  MISS:          0
cpu0_ITLB LOAD      ACCESS:      35950  HIT:      35950  MISS:          0
cpu0_ITLB RFO       ACCESS:          0  HIT:          0  MISS:          0
cpu0_ITLB PREFETCH  ACCESS:          0  HIT:          0  MISS:          0
cpu0_ITLB WRITEBACK ACCESS:          0  HIT:          0  MISS:          0
cpu0_STLB TOTAL     ACCESS:       1924  HIT:       1193  MISS:        731
cpu0_STLB LOAD      ACCESS:       1911  HIT:       1180  MISS:        731
cpu0_STLB RFO       ACCESS:         13  HIT:         13  MISS:          0
cpu0_STLB PREFETCH  ACCESS:          0  HIT:          0  MISS:          0
cpu0_STLB WRITEBACK ACCESS:          0  HIT:          0  MISS:          0
cpu0_L1D TOTAL     ACCESS:    6953223  HIT:    6819455  MISS:     133768
cpu0_L1D LOAD      ACCESS:    6230914  HIT:    6097477  MISS:     133437
cpu0_L1D RFO       ACCESS:     721578  HIT:     721355  MISS:        223
cpu0_L1D PREFETCH  ACCESS:          0  HIT:          0  MISS:          0
cpu0_L1D WRITEBACK ACCESS:          0  HIT:          0  MISS:          0
cpu0_L2C TOTAL     ACCESS:     175029  HIT:     158057  MISS:      16972
cpu0_L2C LOAD      ACCESS:     133434  HIT:     116475  MISS:      16959
cpu0_L2C RFO       ACCESS:        223  HIT:        223  MISS:          0
cpu0_L2C PREFETCH  ACCESS:          0  HIT:          0  MISS:          0
cpu0_L2C WRITEBACK ACCESS:      41264  HIT:      41254  MISS:         10
LLC TOTAL     ACCESS:      17383  HIT:       1311  MISS:      16072
LLC LOAD      ACCESS:      16959  HIT:        887  MISS:      16072
LLC RFO       ACCESS:          0  HIT:          0  MISS:          0
LLC PREFETCH  ACCESS:          0  HIT:          0  MISS:          0
LLC WRITEBACK ACCESS:        421  HIT:        421  MISS:          0
Heartbeat CPU 0 instructions: 78000001 cycles: 29340646 heartbeat IPC: 1.92836 cumulative IPC: 1.90871 (Simulation time: 0 hr 36 min 12 sec) 

Region of Interest Statistics
cpu0_DTLB TOTAL     ACCESS:    5931534  HIT:    5929433  MISS:       2101
cpu0_DTLB LOAD      ACCESS:    5671108  HIT:    5669021  MISS:       2087
cpu0_DTLB RFO       ACCESS:     260426  HIT:     260412  MISS:         14
cpu0_DTLB PREFETCH  ACCESS:          0  HIT:          0  MISS:          0
cpu0_DTLB WRITEBACK ACCESS:          0  HIT:          0  MISS:          0
cpu0_ITLB TOTAL     ACCESS:      37883  HIT:      37883  MISS:          0
cpu0_ITLB LOAD      ACCESS:      37883  HIT:      37883  MISS:          0
cpu0_ITLB RFO       ACCESS:          0  HIT:          0  MISS:          0
cpu0_ITLB PREFETCH  ACCESS:          0  HIT:          0  MISS:          0
cpu0_ITLB WRITEBACK ACCESS:          0  HIT:          0  MISS:          0
cpu0_STLB TOTAL     ACCESS:       2101  HIT:       1325  MISS:        776
cpu0_STLB LOAD      ACCESS:       2087  HIT:       1311  MISS:        776
cpu0_STLB RFO       ACCESS:         14  HIT:         14  MISS:          0
cpu0_STLB PREFETCH  ACCESS:          0  HIT:          0  MISS:          0
cpu0_STLB WRITEBACK ACCESS:          0  HIT:          0  MISS:          0
cpu0_L1D TOTAL     ACCESS:    7488154  HIT:    7336960  MISS:     151194
cpu0_L1D LOAD      ACCESS:    6710489  HIT:    6559666  MISS:     150823
cpu0_L1D RFO       ACCESS:     776889  HIT:     776638  MISS:        251
cpu0_L1D PREFETCH  ACCESS:          0  HIT:          0  MISS:          0
cpu0_L1D WRITEBACK ACCESS:          0  HIT:          0  MISS:          0
cpu0_L2C TOTAL     ACCESS:     198313  HIT:     180132  MISS:      18181
cpu0_L2C LOAD      ACCESS:     150820  HIT:     132652  MISS:      18168
cpu0_L2C RFO       ACCESS:        251  HIT:        251  MISS:          0
cpu0_L2C PREFETCH  ACCESS:          0  HIT:          0  MISS:          0
cpu0_L2C WRITEBACK ACCESS:      47122  HIT:      47112  MISS:         10
LLC TOTAL     ACCESS:      18611  HIT:       1333  MISS:      17278
LLC LOAD      ACCESS:      18168  HIT:        890  MISS:      17278
LLC RFO       ACCESS:          0  HIT:          0  MISS:          0
LLC PREFETCH  ACCESS:          0  HIT:          0  MISS:          0
LLC WRITEBACK ACCESS:        440  HIT:        440  MISS:          0
Heartbeat CPU 0 instructions: 80000004 cycles: 30377793 heartbeat IPC: 1.92837 cumulative IPC: 1.91001 (Simulation time: 0 hr 37 min 18 sec) 

Region of Interest Statistics
cpu0_DTLB TOTAL     ACCESS:    6355290  HIT:    6353013  MISS:       2277
cpu0_DTLB LOAD      ACCESS:    6076304  HIT:    6074042  MISS:       2262
cpu0_DTLB RFO       ACCESS:     278986  HIT:     278971  MISS:         15
cpu0_DTLB PREFETCH  ACCESS:          0  HIT:          0  MISS:          0
cpu0_DTLB WRITEBACK ACCESS:          0  HIT:          0  MISS:          0
cpu0_ITLB TOTAL     ACCESS:      39722  HIT:      39722  MISS:          0
cpu0_ITLB LOAD      ACCESS:      39722  HIT:      39722  MISS:          0
cpu0_ITLB RFO       ACCESS:          0  HIT:          0  MISS:          0
cpu0_ITLB PREFETCH  ACCESS:          0  HIT:          0  MISS:          0
cpu0_ITLB WRITEBACK ACCESS:          0  HIT:          0  MISS:          0
cpu0_STLB TOTAL     ACCESS:       2277  HIT:       1458  MISS:        819
cpu0_STLB LOAD      ACCESS:       2262  HIT:       1443  MISS:        819
cpu0_STLB RFO       ACCESS:         15  HIT:         15  MISS:          0
cpu0_STLB PREFETCH  ACCESS:          0  HIT:          0  MISS:          0
cpu0_STLB WRITEBACK ACCESS:          0  HIT:          0  MISS:          0
cpu0_L1D TOTAL     ACCESS:    8023093  HIT:    7850700  MISS:     172393
cpu0_L1D LOAD      ACCESS:    7190117  HIT:    7018140  MISS:     171977
cpu0_L1D RFO       ACCESS:     832157  HIT:     831872  MISS:        285
cpu0_L1D PREFETCH  ACCESS:          0  HIT:          0  MISS:          0
cpu0_L1D WRITEBACK ACCESS:          0  HIT:          0  MISS:          0
cpu0_L2C TOTAL     ACCESS:     226656  HIT:     207221  MISS:      19435
cpu0_L2C LOAD      ACCESS:     171973  HIT:     152551  MISS:      19422
cpu0_L2C RFO       ACCESS:        285  HIT:        285  MISS:          0
cpu0_L2C PREFETCH  ACCESS:          0  HIT:          0  MISS:          0
cpu0_L2C WRITEBACK ACCESS:      54267  HIT:      54257  MISS:         10
LLC TOTAL     ACCESS:      19870  HIT:       1385  MISS:      18485
LLC LOAD      ACCESS:      19422  HIT:        937  MISS:      18485
LLC RFO       ACCESS:          0  HIT:          0  MISS:          0
LLC PREFETCH  ACCESS:          0  HIT:          0  MISS:          0
LLC WRITEBACK ACCESS:        445  HIT:        445  MISS:          0
Heartbeat CPU 0 instructions: 82000004 cycles: 31414581 heartbeat IPC: 1.92903 cumulative IPC: 1.91118 (Simulation time: 0 hr 38 min 28 sec) 

Region of Interest Statistics
cpu0_DTLB TOTAL     ACCESS:    6776032  HIT:    6773581  MISS:       2451
cpu0_DTLB LOAD      ACCESS:    6478465  HIT:    6476030  MISS:       2435
cpu0_DTLB RFO       ACCESS:     297567  HIT:     297551  MISS:         16
cpu0_DTLB PREFETCH  ACCESS:          0  HIT:          0  MISS:          0
cpu0_DTLB WRITEBACK ACCESS:          0  HIT:          0  MISS:          0
cpu0_ITLB TOTAL     ACCESS:      41837  HIT:      41837  MISS:          0
cpu0_ITLB LOAD      ACCESS:      41837  HIT:      41837  MISS:          0
cpu0_ITLB RFO       ACCESS:          0  HIT:          0  MISS:          0
cpu0_ITLB PREFETCH  ACCESS:          0  HIT:          0  MISS:          0
cpu0_ITLB WRITEBACK ACCESS:          0  HIT:          0  MISS:          0
cpu0_STLB TOTAL     ACCESS:       2451  HIT:       1588  MISS:        863
cpu0_STLB LOAD      ACCESS:       2435  HIT:       1572  MISS:        863
cpu0_STLB RFO       ACCESS:         16  HIT:         16  MISS:          0
cpu0_STLB PREFETCH  ACCESS:          0  HIT:          0  MISS:          0
cpu0_STLB WRITEBACK ACCESS:          0  HIT:          0  MISS:          0
cpu0_L1D TOTAL     ACCESS:    8557822  HIT:    8367583  MISS:     190239
cpu0_L1D LOAD      ACCESS:    7669429  HIT:    7479623  MISS:     189806
cpu0_L1D RFO       ACCESS:     887530  HIT:     887232  MISS:        298
cpu0_L1D PREFETCH  ACCESS:          0  HIT:          0  MISS:          0
cpu0_L1D WRITEBACK ACCESS:          0  HIT:          0  MISS:          0
cpu0_L2C TOTAL     ACCESS:     250510  HIT:     229853  MISS:      20657
cpu0_L2C LOAD      ACCESS:     189802  HIT:     169158  MISS:      20644
cpu0_L2C RFO       ACCESS:        298  HIT:        298  MISS:          0
cpu0_L2C PREFETCH  ACCESS:          0  HIT:          0  MISS:          0
cpu0_L2C WRITEBACK ACCESS:      60275  HIT:      60265  MISS:         10
LLC TOTAL     ACCESS:      21122  HIT:       1427  MISS:      19695
LLC LOAD      ACCESS:      20644  HIT:        949  MISS:      19695
LLC RFO       ACCESS:          0  HIT:          0  MISS:          0
LLC PREFETCH  ACCESS:          0  HIT:          0  MISS:          0
LLC WRITEBACK ACCESS:        475  HIT:        475  MISS:          0
Heartbeat CPU 0 instructions: 84000000 cycles: 32458088 heartbeat IPC: 1.91661 cumulative IPC: 1.9115 (Simulation time: 0 hr 39 min 36 sec) 

Region of Interest Statistics
cpu0_DTLB TOTAL     ACCESS:    7198844  HIT:    7196235  MISS:       2609
cpu0_DTLB LOAD      ACCESS:    6882678  HIT:    6880086  MISS:       2592
cpu0_DTLB RFO       ACCESS:     316166  HIT:     316149  MISS:         17
cpu0_DTLB PREFETCH  ACCESS:          0  HIT:          0  MISS:          0
cpu0_DTLB WRITEBACK ACCESS:          0  HIT:          0  MISS:          0
cpu0_ITLB TOTAL     ACCESS:      44125  HIT:      44125  MISS:          0
cpu0_ITLB LOAD      ACCESS:      44125  HIT:      44125  MISS:          0
cpu0_ITLB RFO       ACCESS:          0  HIT:          0  MISS:          0
cpu0_ITLB PREFETCH  ACCESS:          0  HIT:          0  MISS:          0
cpu0_ITLB WRITEBACK ACCESS:          0  HIT:          0  MISS:          0
cpu0_STLB TOTAL     ACCESS:       2609  HIT:       1693  MISS:        916
cpu0_STLB LOAD      ACCESS:       2592  HIT:       1676  MISS:        916
cpu0_STLB RFO       ACCESS:         17  HIT:         17  MISS:          0
cpu0_STLB PREFETCH  ACCESS:          0  HIT:          0  MISS:          0
cpu0_STLB WRITEBACK ACCESS:          0  HIT:          0  MISS:          0
cpu0_L1D TOTAL     ACCESS:    9092879  HIT:    8891049  MISS:     201830
cpu0_L1D LOAD      ACCESS:    8148951  HIT:    7947566  MISS:     201385
cpu0_L1D RFO       ACCESS:     943012  HIT:     942710  MISS:        302
cpu0_L1D PREFETCH  ACCESS:          0  HIT:          0  MISS:          0
cpu0_L1D WRITEBACK ACCESS:          0  HIT:          0  MISS:          0
cpu0_L2C TOTAL     ACCESS:     265854  HIT:     243923  MISS:      21931
cpu0_L2C LOAD      ACCESS:     201381  HIT:     179465  MISS:      21916
cpu0_L2C RFO       ACCESS:        302  HIT:        302  MISS:          0
cpu0_L2C PREFETCH  ACCESS:          0  HIT:          0  MISS:          0
cpu0_L2C WRITEBACK ACCESS:      64028  HIT:      64018  MISS:         10
LLC TOTAL     ACCESS:      22403  HIT:       1481  MISS:      20922
LLC LOAD      ACCESS:      21916  HIT:        994  MISS:      20922
LLC RFO       ACCESS:          0  HIT:          0  MISS:          0
LLC PREFETCH  ACCESS:          0  HIT:          0  MISS:          0
LLC WRITEBACK ACCESS:        482  HIT:        482  MISS:          0
Heartbeat CPU 0 instructions: 86000002 cycles: 33528818 heartbeat IPC: 1.86789 cumulative IPC: 1.90903 (Simulation time: 0 hr 40 min 50 sec) 

Region of Interest Statistics
cpu0_DTLB TOTAL     ACCESS:    7626011  HIT:    7623308  MISS:       2703
cpu0_DTLB LOAD      ACCESS:    7291107  HIT:    7288422  MISS:       2685
cpu0_DTLB RFO       ACCESS:     334904  HIT:     334886  MISS:         18
cpu0_DTLB PREFETCH  ACCESS:          0  HIT:          0  MISS:          0
cpu0_DTLB WRITEBACK ACCESS:          0  HIT:          0  MISS:          0
cpu0_ITLB TOTAL     ACCESS:      48421  HIT:      48421  MISS:          0
cpu0_ITLB LOAD      ACCESS:      48421  HIT:      48421  MISS:          0
cpu0_ITLB RFO       ACCESS:          0  HIT:          0  MISS:          0
cpu0_ITLB PREFETCH  ACCESS:          0  HIT:          0  MISS:          0
cpu0_ITLB WRITEBACK ACCESS:          0  HIT:          0  MISS:          0
cpu0_STLB TOTAL     ACCESS:       2703  HIT:       1712  MISS:        991
cpu0_STLB LOAD      ACCESS:       2685  HIT:       1694  MISS:        991
cpu0_STLB RFO       ACCESS:         18  HIT:         18  MISS:          0
cpu0_STLB PREFETCH  ACCESS:          0  HIT:          0  MISS:          0
cpu0_STLB WRITEBACK ACCESS:          0  HIT:          0  MISS:          0
cpu0_L1D TOTAL     ACCESS:    9627979  HIT:    9424690  MISS:     203289
cpu0_L1D LOAD      ACCESS:    8628195  HIT:    8425353  MISS:     202842
cpu0_L1D RFO       ACCESS:     998793  HIT:     998489  MISS:        304
cpu0_L1D PREFETCH  ACCESS:          0  HIT:          0  MISS:          0
cpu0_L1D WRITEBACK ACCESS:          0  HIT:          0  MISS:          0
cpu0_L2C TOTAL     ACCESS:     267425  HIT:     244185  MISS:      23240
cpu0_L2C LOAD      ACCESS:     202838  HIT:     179613  MISS:      23225
cpu0_L2C RFO       ACCESS:        304  HIT:        304  MISS:          0
cpu0_L2C PREFETCH  ACCESS:          0  HIT:          0  MISS:          0
cpu0_L2C WRITEBACK ACCESS:      64140  HIT:      64130  MISS:         10
LLC TOTAL     ACCESS:      23757  HIT:       1565  MISS:      22192
LLC LOAD      ACCESS:      23225  HIT:       1034  MISS:      22191
LLC RFO       ACCESS:          0  HIT:          0  MISS:          0
LLC PREFETCH  ACCESS:          0  HIT:          0  MISS:          0
LLC WRITEBACK ACCESS:        527  HIT:        526  MISS:          1
Heartbeat CPU 0 instructions: 88000002 cycles: 34608953 heartbeat IPC: 1.85162 cumulative IPC: 1.90592 (Simulation time: 0 hr 42 min 6 sec) 

Region of Interest Statistics
cpu0_DTLB TOTAL     ACCESS:    8051097  HIT:    8048295  MISS:       2802
cpu0_DTLB LOAD      ACCESS:    7697437  HIT:    7694653  MISS:       2784
cpu0_DTLB RFO       ACCESS:     353660  HIT:     353642  MISS:         18
cpu0_DTLB PREFETCH  ACCESS:          0  HIT:          0  MISS:          0
cpu0_DTLB WRITEBACK ACCESS:          0  HIT:          0  MISS:          0
cpu0_ITLB TOTAL     ACCESS:      53596  HIT:      53596  MISS:          0
cpu0_ITLB LOAD      ACCESS:      53596  HIT:      53596  MISS:          0
cpu0_ITLB RFO       ACCESS:          0  HIT:          0  MISS:          0
cpu0_ITLB PREFETCH  ACCESS:          0  HIT:          0  MISS:          0
cpu0_ITLB WRITEBACK ACCESS:          0  HIT:          0  MISS:          0
cpu0_STLB TOTAL     ACCESS:       2802  HIT:       1724  MISS:       1078
cpu0_STLB LOAD      ACCESS:       2784  HIT:       1706  MISS:       1078
cpu0_STLB RFO       ACCESS:         18  HIT:         18  MISS:          0
cpu0_STLB PREFETCH  ACCESS:          0  HIT:          0  MISS:          0
cpu0_STLB WRITEBACK ACCESS:          0  HIT:          0  MISS:          0
cpu0_L1D TOTAL     ACCESS:   10162963  HIT:    9958266  MISS:     204697
cpu0_L1D LOAD      ACCESS:    9107144  HIT:    8902897  MISS:     204247
cpu0_L1D RFO       ACCESS:    1054741  HIT:    1054436  MISS:        305
cpu0_L1D PREFETCH  ACCESS:          0  HIT:          0  MISS:          0
cpu0_L1D WRITEBACK ACCESS:          0  HIT:          0  MISS:          0
cpu0_L2C TOTAL     ACCESS:     268898  HIT:     244318  MISS:      24580
cpu0_L2C LOAD      ACCESS:     204243  HIT:     179679  MISS:      24564
cpu0_L2C RFO       ACCESS:        305  HIT:        305  MISS:          0
cpu0_L2C PREFETCH  ACCESS:          0  HIT:          0  MISS:          0
cpu0_L2C WRITEBACK ACCESS:      64205  HIT:      64194  MISS:         11
LLC TOTAL     ACCESS:      25128  HIT:       1627  MISS:      23501
LLC LOAD      ACCESS:      24564  HIT:       1064  MISS:      23500
LLC RFO       ACCESS:          0  HIT:          0  MISS:          0
LLC PREFETCH  ACCESS:          0  HIT:          0  MISS:          0
LLC WRITEBACK ACCESS:        559  HIT:        558  MISS:          1
Heartbeat CPU 0 instructions: 90000000 cycles: 35709867 heartbeat IPC: 1.81667 cumulative IPC: 1.90125 (Simulation time: 0 hr 43 min 30 sec) 

Region of Interest Statistics
cpu0_DTLB TOTAL     ACCESS:    8476341  HIT:    8473417  MISS:       2924
cpu0_DTLB LOAD      ACCESS:    8103825  HIT:    8100920  MISS:       2905
cpu0_DTLB RFO       ACCESS:     372516  HIT:     372497  MISS:         19
cpu0_DTLB PREFETCH  ACCESS:          0  HIT:          0  MISS:          0
cpu0_DTLB WRITEBACK ACCESS:          0  HIT:          0  MISS:          0
cpu0_ITLB TOTAL     ACCESS:      59796  HIT:      59796  MISS:          0
cpu0_ITLB LOAD      ACCESS:      59796  HIT:      59796  MISS:          0
cpu0_ITLB RFO       ACCESS:          0  HIT:          0  MISS:          0
cpu0_ITLB PREFETCH  ACCESS:          0  HIT:          0  MISS:          0
cpu0_ITLB WRITEBACK ACCESS:          0  HIT:          0  MISS:          0
cpu0_STLB TOTAL     ACCESS:       2924  HIT:       1741  MISS:       1183
cpu0_STLB LOAD      ACCESS:       2905  HIT:       1722  MISS:       1183
cpu0_STLB RFO       ACCESS:         19  HIT:         19  MISS:          0
cpu0_STLB PREFETCH  ACCESS:          0  HIT:          0  MISS:          0
cpu0_STLB WRITEBACK ACCESS:          0  HIT:          0  MISS:          0
cpu0_L1D TOTAL     ACCESS:   10697817  HIT:   10491727  MISS:     206090
cpu0_L1D LOAD      ACCESS:    9585761  HIT:    9380122  MISS:     205639
cpu0_L1D RFO       ACCESS:    1110873  HIT:    1110568  MISS:        305
cpu0_L1D PREFETCH  ACCESS:          0  HIT:          0  MISS:          0
cpu0_L1D WRITEBACK ACCESS:          0  HIT:          0  MISS:          0
cpu0_L2C TOTAL     ACCESS:     270342  HIT:     244368  MISS:      25974
cpu0_L2C LOAD      ACCESS:     205635  HIT:     179686  MISS:      25949
cpu0_L2C RFO       ACCESS:        305  HIT:        305  MISS:          0
cpu0_L2C PREFETCH  ACCESS:          0  HIT:          0  MISS:          0
cpu0_L2C WRITEBACK ACCESS:      64256  HIT:      64236  MISS:         20
LLC TOTAL     ACCESS:      26583  HIT:       1747  MISS:      24836
LLC LOAD      ACCESS:      25949  HIT:       1116  MISS:      24833
LLC RFO       ACCESS:          0  HIT:          0  MISS:          0
LLC PREFETCH  ACCESS:          0  HIT:          0  MISS:          0
LLC WRITEBACK ACCESS:        629  HIT:        626  MISS:          3
Heartbeat CPU 0 instructions: 92000000 cycles: 36881054 heartbeat IPC: 1.70767 cumulative IPC: 1.89104 (Simulation time: 0 hr 44 min 55 sec) 

Region of Interest Statistics
cpu0_DTLB TOTAL     ACCESS:    8902541  HIT:    8899416  MISS:       3125
cpu0_DTLB LOAD      ACCESS:    8510787  HIT:    8507683  MISS:       3104
cpu0_DTLB RFO       ACCESS:     391754  HIT:     391733  MISS:         21
cpu0_DTLB PREFETCH  ACCESS:          0  HIT:          0  MISS:          0
cpu0_DTLB WRITEBACK ACCESS:          0  HIT:          0  MISS:          0
cpu0_ITLB TOTAL     ACCESS:      71334  HIT:      71334  MISS:          0
cpu0_ITLB LOAD      ACCESS:      71334  HIT:      71334  MISS:          0
cpu0_ITLB RFO       ACCESS:          0  HIT:          0  MISS:          0
cpu0_ITLB PREFETCH  ACCESS:          0  HIT:          0  MISS:          0
cpu0_ITLB WRITEBACK ACCESS:          0  HIT:          0  MISS:          0
cpu0_STLB TOTAL     ACCESS:       3125  HIT:       1757  MISS:       1368
cpu0_STLB LOAD      ACCESS:       3104  HIT:       1736  MISS:       1368
cpu0_STLB RFO       ACCESS:         21  HIT:         21  MISS:          0
cpu0_STLB PREFETCH  ACCESS:          0  HIT:          0  MISS:          0
cpu0_STLB WRITEBACK ACCESS:          0  HIT:          0  MISS:          0
cpu0_L1D TOTAL     ACCESS:   11232392  HIT:   11024609  MISS:     207783
cpu0_L1D LOAD      ACCESS:   10063001  HIT:    9855671  MISS:     207330
cpu0_L1D RFO       ACCESS:    1168023  HIT:    1167718  MISS:        305
cpu0_L1D PREFETCH  ACCESS:          0  HIT:          0  MISS:          0
cpu0_L1D WRITEBACK ACCESS:          0  HIT:          0  MISS:          0
cpu0_L2C TOTAL     ACCESS:     272124  HIT:     244607  MISS:      27517
cpu0_L2C LOAD      ACCESS:     207326  HIT:     179834  MISS:      27492
cpu0_L2C RFO       ACCESS:        305  HIT:        305  MISS:          0
cpu0_L2C PREFETCH  ACCESS:          0  HIT:          0  MISS:          0
cpu0_L2C WRITEBACK ACCESS:      64345  HIT:      64325  MISS:         20
LLC TOTAL     ACCESS:      28230  HIT:       1878  MISS:      26352
LLC LOAD      ACCESS:      27492  HIT:       1144  MISS:      26348
LLC RFO       ACCESS:          0  HIT:          0  MISS:          0
LLC PREFETCH  ACCESS:          0  HIT:          0  MISS:          0
LLC WRITEBACK ACCESS:        733  HIT:        729  MISS:          4
Heartbeat CPU 0 instructions: 94000002 cycles: 38002429 heartbeat IPC: 1.78353 cumulative IPC: 1.88587 (Simulation time: 0 hr 46 min 13 sec) 

Region of Interest Statistics
cpu0_DTLB TOTAL     ACCESS:    9328152  HIT:    9324845  MISS:       3307
cpu0_DTLB LOAD      ACCESS:    8917407  HIT:    8914122  MISS:       3285
cpu0_DTLB RFO       ACCESS:     410745  HIT:     410723  MISS:         22
cpu0_DTLB PREFETCH  ACCESS:          0  HIT:          0  MISS:          0
cpu0_DTLB WRITEBACK ACCESS:          0  HIT:          0  MISS:          0
cpu0_ITLB TOTAL     ACCESS:      79484  HIT:      79484  MISS:          0
cpu0_ITLB LOAD      ACCESS:      79484  HIT:      79484  MISS:          0
cpu0_ITLB RFO       ACCESS:          0  HIT:          0  MISS:          0
cpu0_ITLB PREFETCH  ACCESS:          0  HIT:          0  MISS:          0
cpu0_ITLB WRITEBACK ACCESS:          0  HIT:          0  MISS:          0
cpu0_STLB TOTAL     ACCESS:       3307  HIT:       1812  MISS:       1495
cpu0_STLB LOAD      ACCESS:       3285  HIT:       1790  MISS:       1495
cpu0_STLB RFO       ACCESS:         22  HIT:         22  MISS:          0
cpu0_STLB PREFETCH  ACCESS:          0  HIT:          0  MISS:          0
cpu0_STLB WRITEBACK ACCESS:          0  HIT:          0  MISS:          0
cpu0_L1D TOTAL     ACCESS:   11767053  HIT:   11556977  MISS:     210076
cpu0_L1D LOAD      ACCESS:   10541043  HIT:   10331425  MISS:     209618
cpu0_L1D RFO       ACCESS:    1224515  HIT:    1224206  MISS:        309
cpu0_L1D PREFETCH  ACCESS:          0  HIT:          0  MISS:          0
cpu0_L1D WRITEBACK ACCESS:          0  HIT:          0  MISS:          0
cpu0_L2C TOTAL     ACCESS:     274603  HIT:     245435  MISS:      29168
cpu0_L2C LOAD      ACCESS:     209614  HIT:     180476  MISS:      29138
cpu0_L2C RFO       ACCESS:        309  HIT:        309  MISS:          0
cpu0_L2C PREFETCH  ACCESS:          0  HIT:          0  MISS:          0
cpu0_L2C WRITEBACK ACCESS:      64531  HIT:      64506  MISS:         25
LLC TOTAL     ACCESS:      29966  HIT:       2211  MISS:      27755
LLC LOAD      ACCESS:      29138  HIT:       1388  MISS:      27750
LLC RFO       ACCESS:          0  HIT:          0  MISS:          0
LLC PREFETCH  ACCESS:          0  HIT:          0  MISS:          0
LLC WRITEBACK ACCESS:        823  HIT:        818  MISS:          5
Heartbeat CPU 0 instructions: 96000001 cycles: 39044979 heartbeat IPC: 1.91837 cumulative IPC: 1.88726 (Simulation time: 0 hr 47 min 32 sec) 

Region of Interest Statistics
cpu0_DTLB TOTAL     ACCESS:    9752846  HIT:    9749247  MISS:       3599
cpu0_DTLB LOAD      ACCESS:    9323505  HIT:    9319929  MISS:       3576
cpu0_DTLB RFO       ACCESS:     429341  HIT:     429318  MISS:         23
cpu0_DTLB PREFETCH  ACCESS:          0  HIT:          0  MISS:          0
cpu0_DTLB WRITEBACK ACCESS:          0  HIT:          0  MISS:          0
cpu0_ITLB TOTAL     ACCESS:      81986  HIT:      81986  MISS:          0
cpu0_ITLB LOAD      ACCESS:      81986  HIT:      81986  MISS:          0
cpu0_ITLB RFO       ACCESS:          0  HIT:          0  MISS:          0
cpu0_ITLB PREFETCH  ACCESS:          0  HIT:          0  MISS:          0
cpu0_ITLB WRITEBACK ACCESS:          0  HIT:          0  MISS:          0
cpu0_STLB TOTAL     ACCESS:       3599  HIT:       2057  MISS:       1542
cpu0_STLB LOAD      ACCESS:       3576  HIT:       2034  MISS:       1542
cpu0_STLB RFO       ACCESS:         23  HIT:         23  MISS:          0
cpu0_STLB PREFETCH  ACCESS:          0  HIT:          0  MISS:          0
cpu0_STLB WRITEBACK ACCESS:          0  HIT:          0  MISS:          0
cpu0_L1D TOTAL     ACCESS:   12301360  HIT:   12078186  MISS:     223174
cpu0_L1D LOAD      ACCESS:   11019985  HIT:   10797314  MISS:     222671
cpu0_L1D RFO       ACCESS:    1279833  HIT:    1279482  MISS:        351
cpu0_L1D PREFETCH  ACCESS:          0  HIT:          0  MISS:          0
cpu0_L1D WRITEBACK ACCESS:          0  HIT:          0  MISS:          0
cpu0_L2C TOTAL     ACCESS:     291716  HIT:     260979  MISS:      30737
cpu0_L2C LOAD      ACCESS:     222667  HIT:     191961  MISS:      30706
cpu0_L2C RFO       ACCESS:        351  HIT:        351  MISS:          0
cpu0_L2C PREFETCH  ACCESS:          0  HIT:          0  MISS:          0
cpu0_L2C WRITEBACK ACCESS:      68546  HIT:      68521  MISS:         25
LLC TOTAL     ACCESS:      31575  HIT:       2582  MISS:      28993
LLC LOAD      ACCESS:      30706  HIT:       1718  MISS:      28988
LLC RFO       ACCESS:          0  HIT:          0  MISS:          0
LLC PREFETCH  ACCESS:          0  HIT:          0  MISS:          0
LLC WRITEBACK ACCESS:        863  HIT:        858  MISS:          5
Heartbeat CPU 0 instructions: 98000003 cycles: 40087185 heartbeat IPC: 1.91901 cumulative IPC: 1.88856 (Simulation time: 0 hr 48 min 49 sec) 

Region of Interest Statistics
cpu0_DTLB TOTAL     ACCESS:   10173498  HIT:   10169625  MISS:       3873
cpu0_DTLB LOAD      ACCESS:    9725613  HIT:    9721764  MISS:       3849
cpu0_DTLB RFO       ACCESS:     447885  HIT:     447861  MISS:         24
cpu0_DTLB PREFETCH  ACCESS:          0  HIT:          0  MISS:          0
cpu0_DTLB WRITEBACK ACCESS:          0  HIT:          0  MISS:          0
cpu0_ITLB TOTAL     ACCESS:      83500  HIT:      83500  MISS:          0
cpu0_ITLB LOAD      ACCESS:      83500  HIT:      83500  MISS:          0
cpu0_ITLB RFO       ACCESS:          0  HIT:          0  MISS:          0
cpu0_ITLB PREFETCH  ACCESS:          0  HIT:          0  MISS:          0
cpu0_ITLB WRITEBACK ACCESS:          0  HIT:          0  MISS:          0
cpu0_STLB TOTAL     ACCESS:       3873  HIT:       2285  MISS:       1588
cpu0_STLB LOAD      ACCESS:       3849  HIT:       2261  MISS:       1588
cpu0_STLB RFO       ACCESS:         24  HIT:         24  MISS:          0
cpu0_STLB PREFETCH  ACCESS:          0  HIT:          0  MISS:          0
cpu0_STLB WRITEBACK ACCESS:          0  HIT:          0  MISS:          0
cpu0_L1D TOTAL     ACCESS:   12835796  HIT:   12595639  MISS:     240157
cpu0_L1D LOAD      ACCESS:   11499108  HIT:   11259503  MISS:     239605
cpu0_L1D RFO       ACCESS:    1335100  HIT:    1334708  MISS:        392
cpu0_L1D PREFETCH  ACCESS:          0  HIT:          0  MISS:          0
cpu0_L1D WRITEBACK ACCESS:          0  HIT:          0  MISS:          0
cpu0_L2C TOTAL     ACCESS:     314285  HIT:     282227  MISS:      32058
cpu0_L2C LOAD      ACCESS:     239600  HIT:     207574  MISS:      32026
cpu0_L2C RFO       ACCESS:        392  HIT:        392  MISS:          0
cpu0_L2C PREFETCH  ACCESS:          0  HIT:          0  MISS:          0
cpu0_L2C WRITEBACK ACCESS:      74133  HIT:      74108  MISS:         25
LLC TOTAL     ACCESS:      32906  HIT:       2646  MISS:      30260
LLC LOAD      ACCESS:      32026  HIT:       1771  MISS:      30255
LLC RFO       ACCESS:          0  HIT:          0  MISS:          0
LLC PREFETCH  ACCESS:          0  HIT:          0  MISS:          0
LLC WRITEBACK ACCESS:        873  HIT:        868  MISS:          5
Heartbeat CPU 0 instructions: 100000000 cycles: 41131280 heartbeat IPC: 1.91553 cumulative IPC: 1.88963 (Simulation time: 0 hr 50 min 5 sec) 

Region of Interest Statistics
cpu0_DTLB TOTAL     ACCESS:   10596646  HIT:   10592474  MISS:       4172
cpu0_DTLB LOAD      ACCESS:   10130203  HIT:   10126056  MISS:       4147
cpu0_DTLB RFO       ACCESS:     466443  HIT:     466418  MISS:         25
cpu0_DTLB PREFETCH  ACCESS:          0  HIT:          0  MISS:          0
cpu0_DTLB WRITEBACK ACCESS:          0  HIT:          0  MISS:          0
cpu0_ITLB TOTAL     ACCESS:      85603  HIT:      85603  MISS:          0
cpu0_ITLB LOAD      ACCESS:      85603  HIT:      85603  MISS:          0
cpu0_ITLB RFO       ACCESS:          0  HIT:          0  MISS:          0
cpu0_ITLB PREFETCH  ACCESS:          0  HIT:          0  MISS:          0
cpu0_ITLB WRITEBACK ACCESS:          0  HIT:          0  MISS:          0
cpu0_STLB TOTAL     ACCESS:       4172  HIT:       2537  MISS:       1635
cpu0_STLB LOAD      ACCESS:       4147  HIT:       2512  MISS:       1635
cpu0_STLB RFO       ACCESS:         25  HIT:         25  MISS:          0
cpu0_STLB PREFETCH  ACCESS:          0  HIT:          0  MISS:          0
cpu0_STLB WRITEBACK ACCESS:          0  HIT:          0  MISS:          0
cpu0_L1D TOTAL     ACCESS:   13370480  HIT:   13115171  MISS:     255309
cpu0_L1D LOAD      ACCESS:   11978447  HIT:   11723740  MISS:     254707
cpu0_L1D RFO       ACCESS:    1390398  HIT:    1389964  MISS:        434
cpu0_L1D PREFETCH  ACCESS:          0  HIT:          0  MISS:          0
cpu0_L1D WRITEBACK ACCESS:          0  HIT:          0  MISS:          0
cpu0_L2C TOTAL     ACCESS:     334327  HIT:     301058  MISS:      33269
cpu0_L2C LOAD      ACCESS:     254702  HIT:     221465  MISS:      33237
cpu0_L2C RFO       ACCESS:        434  HIT:        434  MISS:          0
cpu0_L2C PREFETCH  ACCESS:          0  HIT:          0  MISS:          0
cpu0_L2C WRITEBACK ACCESS:      79023  HIT:      78998  MISS:         25
LLC TOTAL     ACCESS:      34125  HIT:       2654  MISS:      31471
LLC LOAD      ACCESS:      33237  HIT:       1771  MISS:      31466
LLC RFO       ACCESS:          0  HIT:          0  MISS:          0
LLC PREFETCH  ACCESS:          0  HIT:          0  MISS:          0
LLC WRITEBACK ACCESS:        881  HIT:        876  MISS:          5
Heartbeat CPU 0 instructions: 102000000 cycles: 42169665 heartbeat IPC: 1.92607 cumulative IPC: 1.891 (Simulation time: 0 hr 51 min 24 sec) 

Region of Interest Statistics
cpu0_DTLB TOTAL     ACCESS:   11016921  HIT:   11012489  MISS:       4432
cpu0_DTLB LOAD      ACCESS:   10531944  HIT:   10527538  MISS:       4406
cpu0_DTLB RFO       ACCESS:     484977  HIT:     484951  MISS:         26
cpu0_DTLB PREFETCH  ACCESS:          0  HIT:          0  MISS:          0
cpu0_DTLB WRITEBACK ACCESS:          0  HIT:          0  MISS:          0
cpu0_ITLB TOTAL     ACCESS:      87193  HIT:      87193  MISS:          0
cpu0_ITLB LOAD      ACCESS:      87193  HIT:      87193  MISS:          0
cpu0_ITLB RFO       ACCESS:          0  HIT:          0  MISS:          0
cpu0_ITLB PREFETCH  ACCESS:          0  HIT:          0  MISS:          0
cpu0_ITLB WRITEBACK ACCESS:          0  HIT:          0  MISS:          0
cpu0_STLB TOTAL     ACCESS:       4432  HIT:       2753  MISS:       1679
cpu0_STLB LOAD      ACCESS:       4406  HIT:       2727  MISS:       1679
cpu0_STLB RFO       ACCESS:         26  HIT:         26  MISS:          0
cpu0_STLB PREFETCH  ACCESS:          0  HIT:          0  MISS:          0
cpu0_STLB WRITEBACK ACCESS:          0  HIT:          0  MISS:          0
cpu0_L1D TOTAL     ACCESS:   13905197  HIT:   13632584  MISS:     272613
cpu0_L1D LOAD      ACCESS:   12457849  HIT:   12185885  MISS:     271964
cpu0_L1D RFO       ACCESS:    1445669  HIT:    1445201  MISS:        468
cpu0_L1D PREFETCH  ACCESS:          0  HIT:          0  MISS:          0
cpu0_L1D WRITEBACK ACCESS:          0  HIT:          0  MISS:          0
cpu0_L2C TOTAL     ACCESS:     357323  HIT:     322821  MISS:      34502
cpu0_L2C LOAD      ACCESS:     271959  HIT:     237491  MISS:      34468
cpu0_L2C RFO       ACCESS:        468  HIT:        468  MISS:          0
cpu0_L2C PREFETCH  ACCESS:          0  HIT:          0  MISS:          0
cpu0_L2C WRITEBACK ACCESS:      84715  HIT:      84690  MISS:         25
LLC TOTAL     ACCESS:      35376  HIT:       2674  MISS:      32702
LLC LOAD      ACCESS:      34468  HIT:       1772  MISS:      32696
LLC RFO       ACCESS:          0  HIT:          0  MISS:          0
LLC PREFETCH  ACCESS:          0  HIT:          0  MISS:          0
LLC WRITEBACK ACCESS:        899  HIT:        893  MISS:          6
Heartbeat CPU 0 instructions: 104000003 cycles: 43210474 heartbeat IPC: 1.92159 cumulative IPC: 1.89212 (Simulation time: 0 hr 52 min 38 sec) 

Region of Interest Statistics
cpu0_DTLB TOTAL     ACCESS:   11437051  HIT:   11432356  MISS:       4695
cpu0_DTLB LOAD      ACCESS:   10933538  HIT:   10928870  MISS:       4668
cpu0_DTLB RFO       ACCESS:     503513  HIT:     503486  MISS:         27
cpu0_DTLB PREFETCH  ACCESS:          0  HIT:          0  MISS:          0
cpu0_DTLB WRITEBACK ACCESS:          0  HIT:          0  MISS:          0
cpu0_ITLB TOTAL     ACCESS:      89094  HIT:      89094  MISS:          0
cpu0_ITLB LOAD      ACCESS:      89094  HIT:      89094  MISS:          0
cpu0_ITLB RFO       ACCESS:          0  HIT:          0  MISS:          0
cpu0_ITLB PREFETCH  ACCESS:          0  HIT:          0  MISS:          0
cpu0_ITLB WRITEBACK ACCESS:          0  HIT:          0  MISS:          0
cpu0_STLB TOTAL     ACCESS:       4695  HIT:       2971  MISS:       1724
cpu0_STLB LOAD      ACCESS:       4668  HIT:       2944  MISS:       1724
cpu0_STLB RFO       ACCESS:         27  HIT:         27  MISS:          0
cpu0_STLB PREFETCH  ACCESS:          0  HIT:          0  MISS:          0
cpu0_STLB WRITEBACK ACCESS:          0  HIT:          0  MISS:          0
cpu0_L1D TOTAL     ACCESS:   14439905  HIT:   14149563  MISS:     290342
cpu0_L1D LOAD      ACCESS:   12937218  HIT:   12647572  MISS:     289646
cpu0_L1D RFO       ACCESS:    1500963  HIT:    1500454  MISS:        509
cpu0_L1D PREFETCH  ACCESS:          0  HIT:          0  MISS:          0
cpu0_L1D WRITEBACK ACCESS:          0  HIT:          0  MISS:          0
cpu0_L2C TOTAL     ACCESS:     380804  HIT:     345056  MISS:      35748
cpu0_L2C LOAD      ACCESS:     289641  HIT:     253927  MISS:      35714
cpu0_L2C RFO       ACCESS:        509  HIT:        509  MISS:          0
cpu0_L2C PREFETCH  ACCESS:          0  HIT:          0  MISS:          0
cpu0_L2C WRITEBACK ACCESS:      90467  HIT:      90442  MISS:         25
LLC TOTAL     ACCESS:      36642  HIT:       2694  MISS:      33948
LLC LOAD      ACCESS:      35714  HIT:       1773  MISS:      33941
LLC RFO       ACCESS:          0  HIT:          0  MISS:          0
LLC PREFETCH  ACCESS:          0  HIT:          0  MISS:          0
LLC WRITEBACK ACCESS:        919  HIT:        912  MISS:          7
Heartbeat CPU 0 instructions: 106000003 cycles: 44250924 heartbeat IPC: 1.92225 cumulative IPC: 1.89318 (Simulation time: 0 hr 53 min 58 sec) 

Region of Interest Statistics
cpu0_DTLB TOTAL     ACCESS:   11857454  HIT:   11852536  MISS:       4918
cpu0_DTLB LOAD      ACCESS:   11335399  HIT:   11330510  MISS:       4889
cpu0_DTLB RFO       ACCESS:     522055  HIT:     522026  MISS:         29
cpu0_DTLB PREFETCH  ACCESS:          0  HIT:          0  MISS:          0
cpu0_DTLB WRITEBACK ACCESS:          0  HIT:          0  MISS:          0
cpu0_ITLB TOTAL     ACCESS:      90701  HIT:      90701  MISS:          0
cpu0_ITLB LOAD      ACCESS:      90701  HIT:      90701  MISS:          0
cpu0_ITLB RFO       ACCESS:          0  HIT:          0  MISS:          0
cpu0_ITLB PREFETCH  ACCESS:          0  HIT:          0  MISS:          0
cpu0_ITLB WRITEBACK ACCESS:          0  HIT:          0  MISS:          0
cpu0_STLB TOTAL     ACCESS:       4918  HIT:       3149  MISS:       1769
cpu0_STLB LOAD      ACCESS:       4889  HIT:       3120  MISS:       1769
cpu0_STLB RFO       ACCESS:         29  HIT:         29  MISS:          0
cpu0_STLB PREFETCH  ACCESS:          0  HIT:          0  MISS:          0
cpu0_STLB WRITEBACK ACCESS:          0  HIT:          0  MISS:          0
cpu0_L1D TOTAL     ACCESS:   14974856  HIT:   14667033  MISS:     307823
cpu0_L1D LOAD      ACCESS:   13416843  HIT:   13109755  MISS:     307088
cpu0_L1D RFO       ACCESS:    1556244  HIT:    1555704  MISS:        540
cpu0_L1D PREFETCH  ACCESS:          0  HIT:          0  MISS:          0
cpu0_L1D WRITEBACK ACCESS:          0  HIT:          0  MISS:          0
cpu0_L2C TOTAL     ACCESS:     403839  HIT:     366855  MISS:      36984
cpu0_L2C LOAD      ACCESS:     307082  HIT:     270132  MISS:      36950
cpu0_L2C RFO       ACCESS:        540  HIT:        540  MISS:          0
cpu0_L2C PREFETCH  ACCESS:          0  HIT:          0  MISS:          0
cpu0_L2C WRITEBACK ACCESS:      96022  HIT:      95997  MISS:         25
LLC TOTAL     ACCESS:      37906  HIT:       2724  MISS:      35182
LLC LOAD      ACCESS:      36950  HIT:       1776  MISS:      35174
LLC RFO       ACCESS:          0  HIT:          0  MISS:          0
LLC PREFETCH  ACCESS:          0  HIT:          0  MISS:          0
LLC WRITEBACK ACCESS:        947  HIT:        939  MISS:          8
Heartbeat CPU 0 instructions: 108000000 cycles: 45293789 heartbeat IPC: 1.91779 cumulative IPC: 1.89402 (Simulation time: 0 hr 55 min 16 sec) 

Region of Interest Statistics
cpu0_DTLB TOTAL     ACCESS:   12277384  HIT:   12272264  MISS:       5120
cpu0_DTLB LOAD      ACCESS:   11736793  HIT:   11731703  MISS:       5090
cpu0_DTLB RFO       ACCESS:     540591  HIT:     540561  MISS:         30
cpu0_DTLB PREFETCH  ACCESS:          0  HIT:          0  MISS:          0
cpu0_DTLB WRITEBACK ACCESS:          0  HIT:          0  MISS:          0
cpu0_ITLB TOTAL     ACCESS:      92268  HIT:      92268  MISS:          0
cpu0_ITLB LOAD      ACCESS:      92268  HIT:      92268  MISS:          0
cpu0_ITLB RFO       ACCESS:          0  HIT:          0  MISS:          0
cpu0_ITLB PREFETCH  ACCESS:          0  HIT:          0  MISS:          0
cpu0_ITLB WRITEBACK ACCESS:          0  HIT:          0  MISS:          0
cpu0_STLB TOTAL     ACCESS:       5120  HIT:       3310  MISS:       1810
cpu0_STLB LOAD      ACCESS:       5090  HIT:       3280  MISS:       1810
cpu0_STLB RFO       ACCESS:         30  HIT:         30  MISS:          0
cpu0_STLB PREFETCH  ACCESS:          0  HIT:          0  MISS:          0
cpu0_STLB WRITEBACK ACCESS:          0  HIT:          0  MISS:          0
cpu0_L1D TOTAL     ACCESS:   15509476  HIT:   15182391  MISS:     327085
cpu0_L1D LOAD      ACCESS:   13896167  HIT:   13569860  MISS:     326307
cpu0_L1D RFO       ACCESS:    1611499  HIT:    1610926  MISS:        573
cpu0_L1D PREFETCH  ACCESS:          0  HIT:          0  MISS:          0
cpu0_L1D WRITEBACK ACCESS:          0  HIT:          0  MISS:          0
cpu0_L2C TOTAL     ACCESS:     429343  HIT:     391052  MISS:      38291
cpu0_L2C LOAD      ACCESS:     326299  HIT:     288042  MISS:      38257
cpu0_L2C RFO       ACCESS:        573  HIT:        573  MISS:          0
cpu0_L2C PREFETCH  ACCESS:          0  HIT:          0  MISS:          0
cpu0_L2C WRITEBACK ACCESS:     102266  HIT:     102241  MISS:         25
LLC TOTAL     ACCESS:      39222  HIT:       2734  MISS:      36488
LLC LOAD      ACCESS:      38257  HIT:       1777  MISS:      36480
LLC RFO       ACCESS:          0  HIT:          0  MISS:          0
LLC PREFETCH  ACCESS:          0  HIT:          0  MISS:          0
LLC WRITEBACK ACCESS:        956  HIT:        948  MISS:          8
Heartbeat CPU 0 instructions: 110000000 cycles: 46334177 heartbeat IPC: 1.92236 cumulative IPC: 1.89495 (Simulation time: 0 hr 56 min 34 sec) 

Region of Interest Statistics
cpu0_DTLB TOTAL     ACCESS:   12698950  HIT:   12693695  MISS:       5255
cpu0_DTLB LOAD      ACCESS:   12139830  HIT:   12134606  MISS:       5224
cpu0_DTLB RFO       ACCESS:     559120  HIT:     559089  MISS:         31
cpu0_DTLB PREFETCH  ACCESS:          0  HIT:          0  MISS:          0
cpu0_DTLB WRITEBACK ACCESS:          0  HIT:          0  MISS:          0
cpu0_ITLB TOTAL     ACCESS:      93736  HIT:      93736  MISS:          0
cpu0_ITLB LOAD      ACCESS:      93736  HIT:      93736  MISS:          0
cpu0_ITLB RFO       ACCESS:          0  HIT:          0  MISS:          0
cpu0_ITLB PREFETCH  ACCESS:          0  HIT:          0  MISS:          0
cpu0_ITLB WRITEBACK ACCESS:          0  HIT:          0  MISS:          0
cpu0_STLB TOTAL     ACCESS:       5255  HIT:       3408  MISS:       1847
cpu0_STLB LOAD      ACCESS:       5224  HIT:       3377  MISS:       1847
cpu0_STLB RFO       ACCESS:         31  HIT:         31  MISS:          0
cpu0_STLB PREFETCH  ACCESS:          0  HIT:          0  MISS:          0
cpu0_STLB WRITEBACK ACCESS:          0  HIT:          0  MISS:          0
cpu0_L1D TOTAL     ACCESS:   16044148  HIT:   15698133  MISS:     346015
cpu0_L1D LOAD      ACCESS:   14375537  HIT:   14030345  MISS:     345192
cpu0_L1D RFO       ACCESS:    1666764  HIT:    1666158  MISS:        606
cpu0_L1D PREFETCH  ACCESS:          0  HIT:          0  MISS:          0
cpu0_L1D WRITEBACK ACCESS:          0  HIT:          0  MISS:          0
cpu0_L2C TOTAL     ACCESS:     454435  HIT:     414829  MISS:      39606
cpu0_L2C LOAD      ACCESS:     345184  HIT:     305612  MISS:      39572
cpu0_L2C RFO       ACCESS:        606  HIT:        606  MISS:          0
cpu0_L2C PREFETCH  ACCESS:          0  HIT:          0  MISS:          0
cpu0_L2C WRITEBACK ACCESS:     108428  HIT:     108403  MISS:         25
LLC TOTAL     ACCESS:      40543  HIT:       2746  MISS:      37797
LLC LOAD      ACCESS:      39572  HIT:       1783  MISS:      37789
LLC RFO       ACCESS:          0  HIT:          0  MISS:          0
LLC PREFETCH  ACCESS:          0  HIT:          0  MISS:          0
LLC WRITEBACK ACCESS:        962  HIT:        954  MISS:          8
Heartbeat CPU 0 instructions: 112000003 cycles: 47360474 heartbeat IPC: 1.94876 cumulative IPC: 1.89664 (Simulation time: 0 hr 57 min 50 sec) 

Region of Interest Statistics
cpu0_DTLB TOTAL     ACCESS:   13119372  HIT:   13113997  MISS:       5375
cpu0_DTLB LOAD      ACCESS:   12541733  HIT:   12536391  MISS:       5342
cpu0_DTLB RFO       ACCESS:     577639  HIT:     577606  MISS:         33
cpu0_DTLB PREFETCH  ACCESS:          0  HIT:          0  MISS:          0
cpu0_DTLB WRITEBACK ACCESS:          0  HIT:          0  MISS:          0
cpu0_ITLB TOTAL     ACCESS:      95452  HIT:      95452  MISS:          0
cpu0_ITLB LOAD      ACCESS:      95452  HIT:      95452  MISS:          0
cpu0_ITLB RFO       ACCESS:          0  HIT:          0  MISS:          0
cpu0_ITLB PREFETCH  ACCESS:          0  HIT:          0  MISS:          0
cpu0_ITLB WRITEBACK ACCESS:          0  HIT:          0  MISS:          0
cpu0_STLB TOTAL     ACCESS:       5375  HIT:       3500  MISS:       1875
cpu0_STLB LOAD      ACCESS:       5342  HIT:       3467  MISS:       1875
cpu0_STLB RFO       ACCESS:         33  HIT:         33  MISS:          0
cpu0_STLB PREFETCH  ACCESS:          0  HIT:          0  MISS:          0
cpu0_STLB WRITEBACK ACCESS:          0  HIT:          0  MISS:          0
cpu0_L1D TOTAL     ACCESS:   16578941  HIT:   16213737  MISS:     365204
cpu0_L1D LOAD      ACCESS:   14855010  HIT:   14490669  MISS:     364341
cpu0_L1D RFO       ACCESS:    1722056  HIT:    1721420  MISS:        636
cpu0_L1D PREFETCH  ACCESS:          0  HIT:          0  MISS:          0
cpu0_L1D WRITEBACK ACCESS:          0  HIT:          0  MISS:          0
cpu0_L2C TOTAL     ACCESS:     479941  HIT:     439132  MISS:      40809
cpu0_L2C LOAD      ACCESS:     364333  HIT:     323558  MISS:      40775
cpu0_L2C RFO       ACCESS:        636  HIT:        636  MISS:          0
cpu0_L2C PREFETCH  ACCESS:          0  HIT:          0  MISS:          0
cpu0_L2C WRITEBACK ACCESS:     114745  HIT:     114720  MISS:         25
LLC TOTAL     ACCESS:      41762  HIT:       2767  MISS:      38995
LLC LOAD      ACCESS:      40775  HIT:       1788  MISS:      38987
LLC RFO       ACCESS:          0  HIT:          0  MISS:          0
LLC PREFETCH  ACCESS:          0  HIT:          0  MISS:          0
LLC WRITEBACK ACCESS:        978  HIT:        970  MISS:          8
Heartbeat CPU 0 instructions: 114000001 cycles: 48382340 heartbeat IPC: 1.9572 cumulative IPC: 1.89847 (Simulation time: 0 hr 59 min 3 sec) 

Region of Interest Statistics
cpu0_DTLB TOTAL     ACCESS:   13541536  HIT:   13536070  MISS:       5466
cpu0_DTLB LOAD      ACCESS:   12945377  HIT:   12939945  MISS:       5432
cpu0_DTLB RFO       ACCESS:     596159  HIT:     596125  MISS:         34
cpu0_DTLB PREFETCH  ACCESS:          0  HIT:          0  MISS:          0
cpu0_DTLB WRITEBACK ACCESS:          0  HIT:          0  MISS:          0
cpu0_ITLB TOTAL     ACCESS:      96970  HIT:      96970  MISS:          0
cpu0_ITLB LOAD      ACCESS:      96970  HIT:      96970  MISS:          0
cpu0_ITLB RFO       ACCESS:          0  HIT:          0  MISS:          0
cpu0_ITLB PREFETCH  ACCESS:          0  HIT:          0  MISS:          0
cpu0_ITLB WRITEBACK ACCESS:          0  HIT:          0  MISS:          0
cpu0_STLB TOTAL     ACCESS:       5466  HIT:       3569  MISS:       1897
cpu0_STLB LOAD      ACCESS:       5432  HIT:       3535  MISS:       1897
cpu0_STLB RFO       ACCESS:         34  HIT:         34  MISS:          0
cpu0_STLB PREFETCH  ACCESS:          0  HIT:          0  MISS:          0
cpu0_STLB WRITEBACK ACCESS:          0  HIT:          0  MISS:          0
cpu0_L1D TOTAL     ACCESS:   17113899  HIT:   16726947  MISS:     386952
cpu0_L1D LOAD      ACCESS:   15334667  HIT:   14948620  MISS:     386047
cpu0_L1D RFO       ACCESS:    1777335  HIT:    1776677  MISS:        658
cpu0_L1D PREFETCH  ACCESS:          0  HIT:          0  MISS:          0
cpu0_L1D WRITEBACK ACCESS:          0  HIT:          0  MISS:          0
cpu0_L2C TOTAL     ACCESS:     509078  HIT:     467048  MISS:      42030
cpu0_L2C LOAD      ACCESS:     386039  HIT:     344043  MISS:      41996
cpu0_L2C RFO       ACCESS:        658  HIT:        658  MISS:          0
cpu0_L2C PREFETCH  ACCESS:          0  HIT:          0  MISS:          0
cpu0_L2C WRITEBACK ACCESS:     122134  HIT:     122109  MISS:         25
LLC TOTAL     ACCESS:      42998  HIT:       2791  MISS:      40207
LLC LOAD      ACCESS:      41996  HIT:       1797  MISS:      40199
LLC RFO       ACCESS:          0  HIT:          0  MISS:          0
LLC PREFETCH  ACCESS:          0  HIT:          0  MISS:          0
LLC WRITEBACK ACCESS:        993  HIT:        985  MISS:          8
Heartbeat CPU 0 instructions: 116000000 cycles: 49402658 heartbeat IPC: 1.96017 cumulative IPC: 1.90029 (Simulation time: 1 hr 0 min 15 sec) 

Region of Interest Statistics
cpu0_DTLB TOTAL     ACCESS:   13963968  HIT:   13958422  MISS:       5546
cpu0_DTLB LOAD      ACCESS:   13349277  HIT:   13343766  MISS:       5511
cpu0_DTLB RFO       ACCESS:     614691  HIT:     614656  MISS:         35
cpu0_DTLB PREFETCH  ACCESS:          0  HIT:          0  MISS:          0
[...]
cpu0_DTLB LOAD      ACCESS:  286948952  HIT:  286386058  MISS:     562894
cpu0_DTLB RFO       ACCESS:   18978124  HIT:   18968038  MISS:      10086
cpu0_DTLB PREFETCH  ACCESS:          0  HIT:          0  MISS:          0
cpu0_DTLB WRITEBACK ACCESS:          0  HIT:          0  MISS:          0
cpu0_ITLB TOTAL     ACCESS:    7764652  HIT:    7764628  MISS:         24
cpu0_ITLB LOAD      ACCESS:    7764652  HIT:    7764628  MISS:         24
cpu0_ITLB RFO       ACCESS:          0  HIT:          0  MISS:          0
cpu0_ITLB PREFETCH  ACCESS:          0  HIT:          0  MISS:          0
cpu0_ITLB WRITEBACK ACCESS:          0  HIT:          0  MISS:          0
cpu0_L1I TOTAL     ACCESS:   18916251  HIT:   18915773  MISS:        478
cpu0_L1I LOAD      ACCESS:   18916251  HIT:   18915773  MISS:        478
cpu0_L1I RFO       ACCESS:          0  HIT:          0  MISS:          0
cpu0_L1I PREFETCH  ACCESS:          0  HIT:          0  MISS:          0
cpu0_L1I WRITEBACK ACCESS:          0  HIT:          0  MISS:          0
cpu0_STLB TOTAL     ACCESS:     573004  HIT:     540799  MISS:      32205
cpu0_STLB LOAD      ACCESS:     562918  HIT:     532276  MISS:      30642
cpu0_STLB RFO       ACCESS:      10086  HIT:       8523  MISS:       1563
cpu0_STLB PREFETCH  ACCESS:          0  HIT:          0  MISS:          0
cpu0_STLB WRITEBACK ACCESS:          0  HIT:          0  MISS:          0
cpu0_L1D TOTAL     ACCESS:  394185216  HIT:  381793133  MISS:   12392083
cpu0_L1D LOAD      ACCESS:  339667608  HIT:  327400766  MISS:   12266842
cpu0_L1D RFO       ACCESS:   54486550  HIT:   54371620  MISS:     114930
cpu0_L1D PREFETCH  ACCESS:          0  HIT:          0  MISS:          0
cpu0_L1D WRITEBACK ACCESS:          0  HIT:          0  MISS:          0
cpu0_L2C TOTAL     ACCESS:   16527255  HIT:   14653476  MISS:    1873779
cpu0_L2C LOAD      ACCESS:   12267269  HIT:   10499015  MISS:    1768254
cpu0_L2C RFO       ACCESS:     114930  HIT:      10329  MISS:     104601
cpu0_L2C PREFETCH  ACCESS:          0  HIT:          0  MISS:          0
cpu0_L2C WRITEBACK ACCESS:    4134745  HIT:    4134076  MISS:        669
LLC TOTAL     ACCESS:    2283280  HIT:     759018  MISS:    1524262
LLC LOAD      ACCESS:    1768252  HIT:     346814  MISS:    1421438
LLC RFO       ACCESS:     104601  HIT:       3161  MISS:     101440
LLC PREFETCH  ACCESS:          0  HIT:          0  MISS:          0
LLC WRITEBACK ACCESS:     410172  HIT:     408839  MISS:       1333
Heartbeat CPU 0 instructions: 1550000001 cycles: 838037423 heartbeat IPC: 1.92509 cumulative IPC: 1.82179 (Simulation time: 13 hr 2 min 32 sec) 

Region of Interest Statistics
cpu0_DTLB TOTAL     ACCESS:  306346929  HIT:  305772674  MISS:     574255
cpu0_DTLB LOAD      ACCESS:  287350309  HIT:  286786152  MISS:     564157
cpu0_DTLB RFO       ACCESS:   18996620  HIT:   18986522  MISS:      10098
cpu0_DTLB PREFETCH  ACCESS:          0  HIT:          0  MISS:          0
cpu0_DTLB WRITEBACK ACCESS:          0  HIT:          0  MISS:          0
cpu0_ITLB TOTAL     ACCESS:    7765373  HIT:    7765349  MISS:         24
cpu0_ITLB LOAD      ACCESS:    7765373  HIT:    7765349  MISS:         24
cpu0_ITLB RFO       ACCESS:          0  HIT:          0  MISS:          0
cpu0_ITLB PREFETCH  ACCESS:          0  HIT:          0  MISS:          0
cpu0_ITLB WRITEBACK ACCESS:          0  HIT:          0  MISS:          0
cpu0_L1I TOTAL     ACCESS:   18916251  HIT:   18915773  MISS:        478
cpu0_L1I LOAD      ACCESS:   18916251  HIT:   18915773  MISS:        478
cpu0_L1I RFO       ACCESS:          0  HIT:          0  MISS:          0
cpu0_L1I PREFETCH  ACCESS:          0  HIT:          0  MISS:          0
cpu0_L1I WRITEBACK ACCESS:          0  HIT:          0  MISS:          0
cpu0_STLB TOTAL     ACCESS:     574279  HIT:     542038  MISS:      32241
cpu0_STLB LOAD      ACCESS:     564181  HIT:     533503  MISS:      30678
cpu0_STLB RFO       ACCESS:      10098  HIT:       8535  MISS:       1563
cpu0_STLB PREFETCH  ACCESS:          0  HIT:          0  MISS:          0
cpu0_STLB WRITEBACK ACCESS:          0  HIT:          0  MISS:          0
cpu0_L1D TOTAL     ACCESS:  394719134  HIT:  382303957  MISS:   12415177
cpu0_L1D LOAD      ACCESS:  340146353  HIT:  327856456  MISS:   12289897
cpu0_L1D RFO       ACCESS:   54541688  HIT:   54426742  MISS:     114946
cpu0_L1D PREFETCH  ACCESS:          0  HIT:          0  MISS:          0
cpu0_L1D WRITEBACK ACCESS:          0  HIT:          0  MISS:          0
cpu0_L2C TOTAL     ACCESS:   16558114  HIT:   14682865  MISS:    1875249
cpu0_L2C LOAD      ACCESS:   12290323  HIT:   10520599  MISS:    1769724
cpu0_L2C RFO       ACCESS:     114946  HIT:      10345  MISS:     104601
cpu0_L2C PREFETCH  ACCESS:          0  HIT:          0  MISS:          0
cpu0_L2C WRITEBACK ACCESS:    4142511  HIT:    4141842  MISS:        669
LLC TOTAL     ACCESS:    2284800  HIT:     759143  MISS:    1525657
LLC LOAD      ACCESS:    1769722  HIT:     346892  MISS:    1422830
LLC RFO       ACCESS:     104601  HIT:       3161  MISS:     101440
LLC PREFETCH  ACCESS:          0  HIT:          0  MISS:          0
LLC WRITEBACK ACCESS:     410222  HIT:     408886  MISS:       1336
Finished CPU 0 instructions: 1500000001 cycles: 823366383 cumulative IPC: 1.82179 (Simulation time: 13 hr 2 min 32 sec) 

ChampSim completed all CPUs

Region of Interest Statistics

CPU 0 cumulative IPC: 1.82179 instructions: 1500000001 cycles: 823366383
cpu0_DTLB TOTAL     ACCESS:  306346929  HIT:  305772674  MISS:     574255
cpu0_DTLB LOAD      ACCESS:  287350309  HIT:  286786152  MISS:     564157
cpu0_DTLB RFO       ACCESS:   18996620  HIT:   18986522  MISS:      10098
cpu0_DTLB PREFETCH  ACCESS:          0  HIT:          0  MISS:          0
cpu0_DTLB WRITEBACK ACCESS:          0  HIT:          0  MISS:          0
cpu0_DTLB TRANSLATION ACCESS:          0  HIT:          0  MISS:          0
cpu0_DTLB PREFETCH  REQUESTED:          0  ISSUED:          0  USEFUL:          0  USELESS:          0
cpu0_DTLB AVERAGE MISS LATENCY: 22.0831 cycles
cpu0_ITLB TOTAL     ACCESS:    7765373  HIT:    7765349  MISS:         24
cpu0_ITLB LOAD      ACCESS:    7765373  HIT:    7765349  MISS:         24
cpu0_ITLB RFO       ACCESS:          0  HIT:          0  MISS:          0
cpu0_ITLB PREFETCH  ACCESS:          0  HIT:          0  MISS:          0
cpu0_ITLB WRITEBACK ACCESS:          0  HIT:          0  MISS:          0
cpu0_ITLB TRANSLATION ACCESS:          0  HIT:          0  MISS:          0
cpu0_ITLB PREFETCH  REQUESTED:          0  ISSUED:          0  USEFUL:          0  USELESS:          0
cpu0_ITLB AVERAGE MISS LATENCY: 279.5 cycles
cpu0_L1I TOTAL     ACCESS:   18916251  HIT:   18915773  MISS:        478
cpu0_L1I LOAD      ACCESS:   18916251  HIT:   18915773  MISS:        478
cpu0_L1I RFO       ACCESS:          0  HIT:          0  MISS:          0
cpu0_L1I PREFETCH  ACCESS:          0  HIT:          0  MISS:          0
cpu0_L1I WRITEBACK ACCESS:          0  HIT:          0  MISS:          0
cpu0_L1I TRANSLATION ACCESS:          0  HIT:          0  MISS:          0
cpu0_L1I PREFETCH  REQUESTED:          0  ISSUED:          0  USEFUL:          0  USELESS:          0
cpu0_L1I AVERAGE MISS LATENCY: 205.236 cycles
cpu0_STLB TOTAL     ACCESS:     574279  HIT:     542038  MISS:      32241
cpu0_STLB LOAD      ACCESS:     564181  HIT:     533503  MISS:      30678
cpu0_STLB RFO       ACCESS:      10098  HIT:       8535  MISS:       1563
cpu0_STLB PREFETCH  ACCESS:          0  HIT:          0  MISS:          0
cpu0_STLB WRITEBACK ACCESS:          0  HIT:          0  MISS:          0
cpu0_STLB TRANSLATION ACCESS:          0  HIT:          0  MISS:          0
cpu0_STLB PREFETCH  REQUESTED:          0  ISSUED:          0  USEFUL:          0  USELESS:          0
cpu0_STLB AVERAGE MISS LATENCY: 232.723 cycles
cpu0_L1D TOTAL     ACCESS:  394719134  HIT:  382303957  MISS:   12415177
cpu0_L1D LOAD      ACCESS:  340146353  HIT:  327856456  MISS:   12289897
cpu0_L1D RFO       ACCESS:   54541688  HIT:   54426742  MISS:     114946
cpu0_L1D PREFETCH  ACCESS:          0  HIT:          0  MISS:          0
cpu0_L1D WRITEBACK ACCESS:          0  HIT:          0  MISS:          0
cpu0_L1D TRANSLATION ACCESS:      31093  HIT:      20759  MISS:      10334
cpu0_L1D PREFETCH  REQUESTED:          0  ISSUED:          0  USEFUL:          0  USELESS:          0
cpu0_L1D AVERAGE MISS LATENCY: 44.1775 cycles
cpu0_L2C TOTAL     ACCESS:   16558114  HIT:   14682865  MISS:    1875249
cpu0_L2C LOAD      ACCESS:   12290323  HIT:   10520599  MISS:    1769724
cpu0_L2C RFO       ACCESS:     114946  HIT:      10345  MISS:     104601
cpu0_L2C PREFETCH  ACCESS:          0  HIT:          0  MISS:          0
cpu0_L2C WRITEBACK ACCESS:    4142511  HIT:    4141842  MISS:        669
cpu0_L2C TRANSLATION ACCESS:      10334  HIT:      10079  MISS:        255
cpu0_L2C PREFETCH  REQUESTED:          0  ISSUED:          0  USEFUL:          0  USELESS:          0
cpu0_L2C AVERAGE MISS LATENCY: 219.589 cycles
LLC TOTAL     ACCESS:    2284800  HIT:     759143  MISS:    1525657
LLC LOAD      ACCESS:    1769722  HIT:     346892  MISS:    1422830
LLC RFO       ACCESS:     104601  HIT:       3161  MISS:     101440
LLC PREFETCH  ACCESS:          0  HIT:          0  MISS:          0
LLC WRITEBACK ACCESS:     410222  HIT:     408886  MISS:       1336
LLC TRANSLATION ACCESS:        255  HIT:        204  MISS:         51
LLC PREFETCH  REQUESTED:          0  ISSUED:          0  USEFUL:          0  USELESS:          0
LLC AVERAGE MISS LATENCY: 244.103 cycles
~~~~~~~~~~Reuse Distance Profiler output~~~~~~~~~~
0	0	0
1	0	0
2	0	0
3	0	0
4	0	0
5	0	0
6	0	0
7	0	0
8	0	0
9	0	0
10	0	0
11	0	0
12	0	0
13	0	0
14	0	0
15	0	0
16	0	0
17	0	0
18	0	0
19	0	0
20	0	0
21	0	0
22	0	0
23	0	0
24	0	0
25	0	0
26	0	0
27	0	0
28	0	0
29	0	0
30	0	0
31	0	0
32	0	0
33	0	0
34	0	0
35	0	0
36	0	0
37	0	0
38	0	0
39	0	0
40	0	0
41	0	0
42	0	0
43	0	0
44	0	0
45	0	0
46	0	0
47	0	0
48	0	0
49	0	0
50	0	0
51	0	0
52	0	0
53	0	0
54	0	0
55	0	0
56	0	0
57	0	0
58	0	0
59	0	0
60	0	0
61	0	0
62	0	0
63	0	0
64	0	0
66	0	0
68	0	0
70	0	0
72	0	0
74	0	0
76	0	0
78	0	0
80	0	0
82	0	0
84	0	0
86	0	0
88	0	0
90	0	0
92	0	0
94	0	0
96	0	0
98	0	0
100	0	0
102	0	0
104	0	0
106	0	0
108	0	0
110	0	0
112	0	0
114	0	0
116	0	0
118	0	0
120	0	0
122	0	0
124	0	0
126	0	0
128	0	0
132	0	0
136	0	0
140	0	0
144	0	0
148	0	0
152	0	0
156	0	0
160	0	0
164	0	0
168	0	0
172	0	0
176	0	0
180	0	0
184	0	0
188	0	0
192	0	0
196	0	0
200	0	0
204	0	0
208	0	0
212	0	0
216	0	0
220	0	0
224	0	0
228	0	0
232	0	0
236	0	0
240	0	0
244	0	0
248	0	0
252	0	0
256	0	0
264	0	0
272	0	0
280	0	0
288	0	0
296	0	0
304	0	0
312	0	0
320	0	0
328	0	0
336	0	0
344	0	0
352	0	0
360	0	0
368	0	0
376	0	0
384	0	0
392	0	0
400	0	0
408	0	0
416	0	0
424	0	0
432	0	0
440	0	0
448	0	0
456	0	0
464	0	0
472	0	0
480	0	0
488	0	0
496	0	0
504	0	0
512	0	0
528	0	0
544	0	0
560	0	0
576	0	0
592	0	0
608	0	0
624	0	0
640	0	0
656	0	0
672	0	0
688	0	0
704	0	0
720	0	0
736	0	0
752	0	0
768	0	0
784	0	0
800	0	0
816	0	0
832	0	0
848	0	0
864	0	0
880	0	0
896	0	0
912	0	0
928	0	0
944	0	0
960	0	0
976	0	0
992	0	0
1008	0	0
1024	0	0
1056	0	0
1088	0	0
1120	0	0
1152	0	0
1184	0	0
1216	0	0
1248	0	0
1280	0	0
1312	0	0
1344	0	0
1376	0	0
1408	0	0
1440	0	0
1472	0	0
1504	0	0
1536	0	0
1568	0	0
1600	0	0
1632	0	0
1664	0	0
1696	0	0
1728	0	0
1760	0	0
1792	0	0
1824	0	0
1856	0	0
1888	0	0
1920	0	0
1952	0	0
1984	0	0
2016	0	0
2048	0	0
2112	0	0
2176	0	0
2240	0	0
2304	0	0
2368	0	0
2432	0	0
2496	0	0
2560	0	0
2624	0	0
2688	0	0
2752	0	0
2816	0	0
2880	0	0
2944	0	0
3008	0	0
3072	0	0
3136	0	0
3200	0	0
3264	0	0
3328	0	0
3392	0	0
3456	0	0
3520	0	0
3584	0	0
3648	0	0
3712	0	0
3776	0	0
3840	0	0
3904	0	0
3968	0	0
4032	0	0
4096	0	0
4224	0	0
4352	0	0
4480	0	0
4608	0	0
4736	0	0
4864	0	0
4992	0	0
5120	0	0
5248	0	0
5376	0	0
5504	0	0
5632	0	0
5760	0	0
5888	0	0
6016	0	0
6144	0	0
6272	0	0
6400	0	0
6528	0	0
6656	0	0
6784	0	0
6912	0	0
7040	0	0
7168	0	0
7296	0	0
7424	0	0
7552	0	0
7680	0	0
7808	0	0
7936	0	0
8064	0	0
8192	0	0
8448	0	0
8704	0	0
8960	0	0
9216	0	0
9472	0	0
9728	0	0
9984	0	0
10240	0	0
10496	0	0
10752	0	0
11008	0	0
11264	0	0
11520	0	0
11776	0	0
12032	0	0
12288	0	0
12544	0	0
12800	0	0
13056	0	0
13312	0	0
13568	0	0
13824	0	0
14080	0	0
14336	0	0
14592	0	0
14848	0	0
15104	0	0
15360	0	0
15616	0	0
15872	0	0
16128	0	0
16384	0	0
16896	0	0
17408	0	0
17920	0	0
18432	0	0
18944	0	0
19456	0	0
19968	0	0
20480	0	0
20992	0	0
21504	0	0
22016	0	0
22528	0	0
23040	0	0
23552	0	0
24064	0	0
24576	0	0
25088	0	0
25600	0	0
26112	0	0
26624	0	0
27136	0	0
27648	0	0
28160	0	0
28672	0	0
29184	0	0
29696	0	0
30208	0	0
30720	0	0
31232	0	0
31744	0	0
32256	0	0
32768	0	0
33792	0	0
34816	0	0
35840	0	0
36864	0	0
37888	0	0
38912	0	0
39936	0	0
40960	0	0
41984	0	0
43008	0	0
44032	0	0
45056	0	0
46080	0	0
47104	0	0
48128	0	0
49152	0	0
50176	0	0
51200	0	0
52224	0	0
53248	0	0
54272	0	0
55296	0	0
56320	0	0
57344	0	0
58368	0	0
59392	0	0
60416	0	0
61440	0	0
62464	0	0
63488	0	0
64512	0	0
65536	0	0
67584	0	0
69632	0	0
71680	0	0
73728	0	0
75776	0	0
77824	0	0
79872	0	0
81920	0	0
83968	0	0
86016	0	0
88064	0	0
90112	0	0
92160	0	0
94208	0	0
96256	0	0
98304	0	0
100352	0	0
102400	0	0
104448	0	0
106496	0	0
108544	0	0
110592	0	0
112640	0	0
114688	0	0
116736	0	0
118784	0	0
120832	0	0
122880	0	0
124928	0	0
126976	0	0
129024	0	0
131072	0	0
135168	0	0
139264	0	0
143360	0	0
147456	0	0
151552	0	0
155648	0	0
159744	0	0
163840	0	0
167936	0	0
172032	0	0
176128	0	0
180224	0	0
184320	0	0
188416	0	0
192512	0	0
196608	0	0
200704	0	0
204800	0	0
208896	0	0
212992	0	0
217088	0	0
221184	0	0
225280	0	0
229376	0	0
233472	0	0
237568	0	0
241664	0	0
245760	0	0
249856	0	0
253952	0	0
258048	0	0
262144	0	0
270336	0	0
278528	0	0
286720	0	0
294912	0	0
303104	0	0
311296	0	0
319488	0	0
327680	0	0
335872	0	0
344064	0	0
352256	0	0
360448	0	0
368640	0	0
376832	0	0
385024	0	0
393216	0	0
401408	0	0
409600	0	0
417792	0	0
425984	0	0
434176	0	0
442368	0	0
450560	0	0
458752	0	0
466944	0	0
475136	0	0
483328	0	0
491520	0	0
499712	0	0
507904	0	0
516096	0	0
524288	0	0
540672	0	0
557056	0	0
573440	0	0
589824	0	0
606208	0	0
622592	0	0
638976	0	0
655360	0	0
671744	0	0
688128	0	0
704512	0	0
720896	0	0
737280	0	0
753664	0	0
770048	0	0
786432	0	0
802816	0	0
819200	0	0
835584	0	0
851968	0	0
868352	0	0
884736	0	0
901120	0	0
917504	0	0
933888	0	0
950272	0	0
966656	0	0
983040	0	0
999424	0	0
1015808	0	0
1032192	0	0
1048576	0	0
1081344	0	0
1114112	0	0
1146880	0	0
1179648	0	0
1212416	0	0
1245184	0	0
1277952	0	0
1310720	0	0
1343488	0	0
1376256	0	0
1409024	0	0
1441792	0	0
1474560	0	0
1507328	0	0
1540096	0	0
1572864	0	0
1605632	0	0
1638400	0	0
1671168	0	0
1703936	0	0
1736704	0	0
1769472	0	0
1802240	0	0
1835008	0	0
1867776	0	0
1900544	0	0
1933312	0	0
1966080	0	0
1998848	0	0
2031616	0	0
2064384	0	0
2097152	0	0
2162688	0	0
2228224	0	0
2293760	0	0
2359296	0	0
2424832	0	0
2490368	0	0
2555904	0	0
2621440	0	0
2686976	0	0
2752512	0	0
2818048	0	0
2883584	0	0
2949120	0	0
3014656	0	0
3080192	0	0
3145728	0	0
3211264	0	0
3276800	0	0
3342336	0	0
3407872	0	0
3473408	0	0
3538944	0	0
3604480	0	0
3670016	0	0
3735552	0	0
3801088	0	0
3866624	0	0
3932160	0	0
3997696	0	0
4063232	0	0
4128768	0	0
4194304	0	0
4325376	0	0
4456448	0	0
4587520	0	0
4718592	0	0
4849664	0	0
4980736	0	0
5111808	0	0
5242880	0	0
5373952	0	0
5505024	0	0
5636096	0	0
5767168	0	0
5898240	0	0
6029312	0	0
6160384	0	0
6291456	0	0
6422528	0	0
6553600	0	0
6684672	0	0
6815744	0	0
6946816	0	0
7077888	0	0
7208960	0	0
7340032	0	0
7471104	0	0
7602176	0	0
7733248	0	0
7864320	0	0
7995392	0	0
8126464	0	0
8257536	0	0
8388608	0	0
8650752	0	0
8912896	0	0
9175040	0	0
9437184	0	0
9699328	0	0
9961472	0	0
10223616	0	0
10485760	0	0
10747904	0	0
11010048	0	0
11272192	0	0
11534336	0	0
11796480	0	0
12058624	0	0
12320768	0	0
12582912	0	0
12845056	0	0
13107200	0	0
13369344	0	0
13631488	0	0
13893632	0	0
14155776	0	0
14417920	0	0
14680064	0	0
14942208	0	0
15204352	0	0
15466496	0	0
15728640	0	0
15990784	0	0
16252928	0	0
16515072	0	0
16777216	0	0
17301504	0	0
17825792	0	0
18350080	0	0
18874368	0	0
19398656	0	0
19922944	0	0
20447232	0	0
20971520	0	0
21495808	0	0
22020096	0	0
22544384	0	0
23068672	0	0
23592960	0	0
24117248	0	0
24641536	0	0
25165824	0	0
25690112	0	0
26214400	0	0
26738688	0	0
27262976	0	0
27787264	0	0
28311552	0	0
28835840	0	0
29360128	0	0
29884416	0	0
30408704	0	0
30932992	0	0
31457280	0	0
31981568	0	0
32505856	0	0
33030144	0	0
33554432	0	0
34603008	0	0
35651584	0	0
36700160	0	0
37748736	0	0
38797312	0	0
39845888	0	0
40894464	0	0
41943040	0	0
42991616	0	0
44040192	0	0
45088768	0	0
46137344	0	0
47185920	0	0
48234496	0	0
49283072	0	0
50331648	0	0
51380224	0	0
52428800	0	0
53477376	0	0
54525952	0	0
55574528	0	0
56623104	0	0
57671680	0	0
58720256	0	0
59768832	0	0
60817408	0	0
61865984	0	0
62914560	0	0
63963136	0	0
65011712	0	0
66060288	0	0
67108864	0	0
69206016	0	0
71303168	0	0
73400320	0	0
75497472	0	0
77594624	0	0
79691776	0	0
81788928	0	0
83886080	0	0
85983232	0	0
88080384	0	0
90177536	0	0
92274688	0	0
94371840	0	0
96468992	0	0
98566144	0	0
100663296	0	0
102760448	0	0
104857600	0	0
106954752	0	0
109051904	0	0
111149056	0	0
113246208	0	0
115343360	0	0
117440512	0	0
119537664	0	0
121634816	0	0
123731968	0	0
125829120	0	0
127926272	0	0
130023424	0	0
132120576	0	0
134217728	0	0
138412032	0	0
142606336	0	0
146800640	0	0
150994944	0	0
155189248	0	0
159383552	0	0
163577856	0	0
167772160	0	0
171966464	0	0
176160768	0	0
180355072	0	0
184549376	0	0
188743680	0	0
192937984	0	0
197132288	0	0
201326592	0	0
205520896	0	0
209715200	0	0
213909504	0	0
218103808	0	0
222298112	0	0
226492416	0	0
230686720	0	0
234881024	0	0
239075328	0	0
243269632	0	0
247463936	0	0
251658240	0	0
255852544	0	0
260046848	0	0
264241152	0	0
268435456	0	0
276824064	0	0
285212672	0	0
293601280	0	0
301989888	0	0
310378496	0	0
318767104	0	0
327155712	0	0
335544320	0	0
343932928	0	0
352321536	0	0
360710144	0	0
369098752	0	0
377487360	0	0
385875968	0	0
394264576	0	0
402653184	0	0
411041792	0	0
419430400	0	0
427819008	0	0
436207616	0	0
444596224	0	0
452984832	0	0
461373440	0	0
469762048	0	0
478150656	0	0
486539264	0	0
494927872	0	0
503316480	0	0
511705088	0	0
520093696	0	0
528482304	0	0
536870912	0	0
553648128	0	0
570425344	0	0
587202560	0	0
603979776	0	0
620756992	0	0
637534208	0	0
654311424	0	0
671088640	0	0
687865856	0	0
704643072	0	0
721420288	0	0
738197504	0	0
754974720	0	0
771751936	0	0
788529152	0	0
805306368	0	0
822083584	0	0
838860800	0	0
855638016	0	0
872415232	0	0
889192448	0	0
905969664	0	0
922746880	0	0
939524096	0	0
956301312	0	0
973078528	0	0
989855744	0	0
1006632960	0	0
1023410176	0	0
1040187392	0	0
1056964608	0	0
1073741824	0	0
1107296256	0	0
1140850688	0	0
1174405120	0	0
1207959552	0	0
1241513984	0	0
1275068416	0	0
1308622848	0	0
1342177280	0	0
1375731712	0	0
1409286144	0	0
1442840576	0	0
1476395008	0	0
1509949440	0	0
1543503872	0	0
1577058304	0	0
1610612736	0	0
1644167168	0	0
1677721600	0	0
1711276032	0	0
1744830464	0	0
1778384896	0	0
1811939328	0	0
1845493760	0	0
1879048192	0	0
1912602624	0	0
1946157056	0	0
1979711488	0	0
2013265920	0	0
2046820352	0	0
2080374784	0	0
2113929216	0	0
2147483648	0	0
2214592512	0	0
2281701376	0	0
2348810240	0	0
2415919104	0	0
2483027968	0	0
2550136832	0	0
2617245696	0	0
2684354560	0	0
2751463424	0	0
2818572288	0	0
2885681152	0	0
2952790016	0	0
3019898880	0	0
3087007744	0	0
3154116608	0	0
3221225472	0	0
3288334336	0	0
3355443200	0	0
3422552064	0	0
3489660928	0	0
3556769792	0	0
3623878656	0	0
3690987520	0	0
3758096384	0	0
3825205248	0	0
3892314112	0	0
3959422976	0	0
4026531840	0	0
4093640704	0	0
4160749568	0	0
4227858432	0	0
~~~~~~~~~~Reuse Distance Profiler output end~~~~~~~~~~


DRAM Statistics
 CHANNEL 0
 RQ ROW_BUFFER_HIT:     627649  ROW_BUFFER_MISS:     896445
 DBUS AVG_CONGESTED_CYCLE:    3.94749
 WQ ROW_BUFFER_HIT:      35343  ROW_BUFFER_MISS:     236196  FULL:          0


CPU 0 Branch Prediction Accuracy: 99.6101% MPKI: 0.368872 Average ROB Occupancy at Mispredict: 153.264
Branch type MPKI
BRANCH_DIRECT_JUMP: 6.13333e-05
BRANCH_INDIRECT: 0.0929827
BRANCH_CONDITIONAL: 0.275796
BRANCH_DIRECT_CALL: 1.6e-05
BRANCH_INDIRECT_CALL: 0
BRANCH_RETURN: 1.6e-05

