
*** ChampSim Multicore Out-of-Order Simulator ***

Warmup Instructions: 50000000
Simulation Instructions: 1500000000
Number of CPUs: 1
Off-chip DRAM Size: 4 GiB Channels: 1 Width: 64-bit Data Rate: 3200 MT/s

VirtualMemory physical capacity: 8588881920 num_ppages: 2096895
VirtualMemory page size: 4096 log2_page_size: 12

CPU 0 runs traces/644.nab_s-12521B.champsimtrace.xz
CPU 0 Bimodal branch predictor
Basic BTB sets: 1024 ways: 8 indirect buffer size: 4096 RAS size: 64
Initializing LRU.
Initializing LRU.
Initializing LRU.
Initializing LRU.
Initializing rdLRU.
Initializing LRU.
Initializing LRU.
Heartbeat CPU 0 instructions: 2000000 cycles: 587024 heartbeat IPC: 3.40702 cumulative IPC: 3.40702 (Simulation time: 0 hr 1 min 11 sec) 
Heartbeat CPU 0 instructions: 4000002 cycles: 1173934 heartbeat IPC: 3.40768 cumulative IPC: 3.40735 (Simulation time: 0 hr 2 min 29 sec) 
Heartbeat CPU 0 instructions: 6000000 cycles: 1760795 heartbeat IPC: 3.40796 cumulative IPC: 3.40755 (Simulation time: 0 hr 3 min 47 sec) 
Heartbeat CPU 0 instructions: 8000003 cycles: 2347602 heartbeat IPC: 3.40828 cumulative IPC: 3.40773 (Simulation time: 0 hr 5 min 3 sec) 
Heartbeat CPU 0 instructions: 10000002 cycles: 2934347 heartbeat IPC: 3.40863 cumulative IPC: 3.40791 (Simulation time: 0 hr 6 min 15 sec) 
Heartbeat CPU 0 instructions: 12000002 cycles: 3521091 heartbeat IPC: 3.40864 cumulative IPC: 3.40804 (Simulation time: 0 hr 7 min 30 sec) 
Heartbeat CPU 0 instructions: 14000003 cycles: 4107863 heartbeat IPC: 3.40848 cumulative IPC: 3.4081 (Simulation time: 0 hr 8 min 45 sec) 
Heartbeat CPU 0 instructions: 16000004 cycles: 4694731 heartbeat IPC: 3.40792 cumulative IPC: 3.40808 (Simulation time: 0 hr 9 min 59 sec) 
Heartbeat CPU 0 instructions: 18000001 cycles: 5281584 heartbeat IPC: 3.408 cumulative IPC: 3.40807 (Simulation time: 0 hr 11 min 14 sec) 
Heartbeat CPU 0 instructions: 20000000 cycles: 5868388 heartbeat IPC: 3.40829 cumulative IPC: 3.40809 (Simulation time: 0 hr 12 min 32 sec) 
Heartbeat CPU 0 instructions: 22000002 cycles: 6455168 heartbeat IPC: 3.40844 cumulative IPC: 3.40812 (Simulation time: 0 hr 13 min 46 sec) 
Heartbeat CPU 0 instructions: 24000004 cycles: 7042074 heartbeat IPC: 3.4077 cumulative IPC: 3.40809 (Simulation time: 0 hr 15 min 3 sec) 
Heartbeat CPU 0 instructions: 26000001 cycles: 7628990 heartbeat IPC: 3.40764 cumulative IPC: 3.40805 (Simulation time: 0 hr 16 min 19 sec) 
Heartbeat CPU 0 instructions: 28000000 cycles: 8215888 heartbeat IPC: 3.40775 cumulative IPC: 3.40803 (Simulation time: 0 hr 17 min 35 sec) 
Heartbeat CPU 0 instructions: 30000003 cycles: 8802626 heartbeat IPC: 3.40868 cumulative IPC: 3.40807 (Simulation time: 0 hr 18 min 53 sec) 
Heartbeat CPU 0 instructions: 32000004 cycles: 9389080 heartbeat IPC: 3.41033 cumulative IPC: 3.40822 (Simulation time: 0 hr 20 min 8 sec) 
Heartbeat CPU 0 instructions: 34000002 cycles: 9975578 heartbeat IPC: 3.41007 cumulative IPC: 3.40832 (Simulation time: 0 hr 21 min 24 sec) 
Heartbeat CPU 0 instructions: 36000003 cycles: 10562556 heartbeat IPC: 3.40728 cumulative IPC: 3.40827 (Simulation time: 0 hr 22 min 39 sec) 
Heartbeat CPU 0 instructions: 38000001 cycles: 11149508 heartbeat IPC: 3.40743 cumulative IPC: 3.40822 (Simulation time: 0 hr 23 min 56 sec) 
Heartbeat CPU 0 instructions: 40000002 cycles: 11736455 heartbeat IPC: 3.40746 cumulative IPC: 3.40818 (Simulation time: 0 hr 25 min 13 sec) 
Heartbeat CPU 0 instructions: 42000002 cycles: 12323347 heartbeat IPC: 3.40778 cumulative IPC: 3.40817 (Simulation time: 0 hr 26 min 29 sec) 
Heartbeat CPU 0 instructions: 44000000 cycles: 12910222 heartbeat IPC: 3.40788 cumulative IPC: 3.40815 (Simulation time: 0 hr 27 min 40 sec) 
Heartbeat CPU 0 instructions: 46000003 cycles: 13497130 heartbeat IPC: 3.40769 cumulative IPC: 3.40813 (Simulation time: 0 hr 28 min 52 sec) 
Heartbeat CPU 0 instructions: 48000003 cycles: 14084092 heartbeat IPC: 3.40738 cumulative IPC: 3.4081 (Simulation time: 0 hr 30 min 2 sec) 
Heartbeat CPU 0 instructions: 50000000 cycles: 14671041 heartbeat IPC: 3.40745 cumulative IPC: 3.40807 (Simulation time: 0 hr 31 min 14 sec) 

Warmup complete CPU 0 instructions: 50000005 cycles: 14671042 (Simulation time: 0 hr 31 min 14 sec) 

Heartbeat CPU 0 instructions: 52000003 cycles: 15707065 heartbeat IPC: 1.93046 cumulative IPC: 1.93046 (Simulation time: 0 hr 32 min 51 sec) 

Region of Interest Statistics
cpu0_DTLB TOTAL     ACCESS:     421481  HIT:     421337  MISS:        144
cpu0_DTLB LOAD      ACCESS:     402979  HIT:     402835  MISS:        144
cpu0_DTLB RFO       ACCESS:      18502  HIT:      18502  MISS:          0
cpu0_DTLB PREFETCH  ACCESS:          0  HIT:          0  MISS:          0
cpu0_DTLB WRITEBACK ACCESS:          0  HIT:          0  MISS:          0
cpu0_ITLB TOTAL     ACCESS:       1477  HIT:       1477  MISS:          0
cpu0_ITLB LOAD      ACCESS:       1477  HIT:       1477  MISS:          0
cpu0_ITLB RFO       ACCESS:          0  HIT:          0  MISS:          0
cpu0_ITLB PREFETCH  ACCESS:          0  HIT:          0  MISS:          0
cpu0_ITLB WRITEBACK ACCESS:          0  HIT:          0  MISS:          0
cpu0_STLB TOTAL     ACCESS:        144  HIT:        108  MISS:         36
cpu0_STLB LOAD      ACCESS:        144  HIT:        108  MISS:         36
cpu0_STLB RFO       ACCESS:          0  HIT:          0  MISS:          0
cpu0_STLB PREFETCH  ACCESS:          0  HIT:          0  MISS:          0
cpu0_STLB WRITEBACK ACCESS:          0  HIT:          0  MISS:          0
cpu0_L1D TOTAL     ACCESS:     535243  HIT:     516593  MISS:      18650
cpu0_L1D LOAD      ACCESS:     479912  HIT:     461312  MISS:      18600
cpu0_L1D RFO       ACCESS:      55295  HIT:      55263  MISS:         32
cpu0_L1D PREFETCH  ACCESS:          0  HIT:          0  MISS:          0
cpu0_L1D WRITEBACK ACCESS:          0  HIT:          0  MISS:          0
cpu0_L2C TOTAL     ACCESS:      24876  HIT:      23655  MISS:       1221
cpu0_L2C LOAD      ACCESS:      18600  HIT:      17379  MISS:       1221
cpu0_L2C RFO       ACCESS:         32  HIT:         32  MISS:          0
cpu0_L2C PREFETCH  ACCESS:          0  HIT:          0  MISS:          0
cpu0_L2C WRITEBACK ACCESS:       6226  HIT:       6226  MISS:          0
LLC TOTAL     ACCESS:       1254  HIT:          0  MISS:       1254
LLC LOAD      ACCESS:       1221  HIT:          0  MISS:       1221
LLC RFO       ACCESS:          0  HIT:          0  MISS:          0
LLC PREFETCH  ACCESS:          0  HIT:          0  MISS:          0
LLC WRITEBACK ACCESS:         33  HIT:          0  MISS:         33
Heartbeat CPU 0 instructions: 54000002 cycles: 16779476 heartbeat IPC: 1.86496 cumulative IPC: 1.89714 (Simulation time: 0 hr 34 min 27 sec) 

Region of Interest Statistics
cpu0_DTLB TOTAL     ACCESS:     847270  HIT:     846827  MISS:        443
cpu0_DTLB LOAD      ACCESS:     810126  HIT:     809685  MISS:        441
cpu0_DTLB RFO       ACCESS:      37144  HIT:      37142  MISS:          2
cpu0_DTLB PREFETCH  ACCESS:          0  HIT:          0  MISS:          0
cpu0_DTLB WRITEBACK ACCESS:          0  HIT:          0  MISS:          0
cpu0_ITLB TOTAL     ACCESS:       5641  HIT:       5641  MISS:          0
cpu0_ITLB LOAD      ACCESS:       5641  HIT:       5641  MISS:          0
cpu0_ITLB RFO       ACCESS:          0  HIT:          0  MISS:          0
cpu0_ITLB PREFETCH  ACCESS:          0  HIT:          0  MISS:          0
cpu0_ITLB WRITEBACK ACCESS:          0  HIT:          0  MISS:          0
cpu0_STLB TOTAL     ACCESS:        443  HIT:        335  MISS:        108
cpu0_STLB LOAD      ACCESS:        441  HIT:        333  MISS:        108
cpu0_STLB RFO       ACCESS:          2  HIT:          2  MISS:          0
cpu0_STLB PREFETCH  ACCESS:          0  HIT:          0  MISS:          0
cpu0_STLB WRITEBACK ACCESS:          0  HIT:          0  MISS:          0
cpu0_L1D TOTAL     ACCESS:    1070179  HIT:    1048398  MISS:      21781
cpu0_L1D LOAD      ACCESS:     959050  HIT:     937345  MISS:      21705
cpu0_L1D RFO       ACCESS:     111021  HIT:     110964  MISS:         57
cpu0_L1D PREFETCH  ACCESS:          0  HIT:          0  MISS:          0
cpu0_L1D WRITEBACK ACCESS:          0  HIT:          0  MISS:          0
cpu0_L2C TOTAL     ACCESS:      28686  HIT:      26199  MISS:       2487
cpu0_L2C LOAD      ACCESS:      21704  HIT:      19217  MISS:       2487
cpu0_L2C RFO       ACCESS:         57  HIT:         57  MISS:          0
cpu0_L2C PREFETCH  ACCESS:          0  HIT:          0  MISS:          0
cpu0_L2C WRITEBACK ACCESS:       6906  HIT:       6906  MISS:          0
LLC TOTAL     ACCESS:       2544  HIT:          0  MISS:       2544
LLC LOAD      ACCESS:       2487  HIT:          0  MISS:       2487
LLC RFO       ACCESS:          0  HIT:          0  MISS:          0
LLC PREFETCH  ACCESS:          0  HIT:          0  MISS:          0
LLC WRITEBACK ACCESS:         57  HIT:          0  MISS:         57
Heartbeat CPU 0 instructions: 56000001 cycles: 17865288 heartbeat IPC: 1.84194 cumulative IPC: 1.87838 (Simulation time: 0 hr 36 min 3 sec) 

Region of Interest Statistics
cpu0_DTLB TOTAL     ACCESS:    1275360  HIT:    1274681  MISS:        679
cpu0_DTLB LOAD      ACCESS:    1219465  HIT:    1218789  MISS:        676
cpu0_DTLB RFO       ACCESS:      55895  HIT:      55892  MISS:          3
cpu0_DTLB PREFETCH  ACCESS:          0  HIT:          0  MISS:          0
cpu0_DTLB WRITEBACK ACCESS:          0  HIT:          0  MISS:          0
cpu0_ITLB TOTAL     ACCESS:      10592  HIT:      10592  MISS:          0
cpu0_ITLB LOAD      ACCESS:      10592  HIT:      10592  MISS:          0
cpu0_ITLB RFO       ACCESS:          0  HIT:          0  MISS:          0
cpu0_ITLB PREFETCH  ACCESS:          0  HIT:          0  MISS:          0
cpu0_ITLB WRITEBACK ACCESS:          0  HIT:          0  MISS:          0
cpu0_STLB TOTAL     ACCESS:        679  HIT:        485  MISS:        194
cpu0_STLB LOAD      ACCESS:        676  HIT:        482  MISS:        194
cpu0_STLB RFO       ACCESS:          3  HIT:          3  MISS:          0
cpu0_STLB PREFETCH  ACCESS:          0  HIT:          0  MISS:          0
cpu0_STLB WRITEBACK ACCESS:          0  HIT:          0  MISS:          0
cpu0_L1D TOTAL     ACCESS:    1604976  HIT:    1581512  MISS:      23464
cpu0_L1D LOAD      ACCESS:    1437847  HIT:    1414463  MISS:      23384
cpu0_L1D RFO       ACCESS:     166935  HIT:     166875  MISS:         60
cpu0_L1D PREFETCH  ACCESS:          0  HIT:          0  MISS:          0
cpu0_L1D WRITEBACK ACCESS:          0  HIT:          0  MISS:          0
cpu0_L2C TOTAL     ACCESS:      30530  HIT:      26728  MISS:       3802
cpu0_L2C LOAD      ACCESS:      23383  HIT:      19581  MISS:       3802
cpu0_L2C RFO       ACCESS:         60  HIT:         60  MISS:          0
cpu0_L2C PREFETCH  ACCESS:          0  HIT:          0  MISS:          0
cpu0_L2C WRITEBACK ACCESS:       7067  HIT:       7067  MISS:          0
LLC TOTAL     ACCESS:       3900  HIT:          0  MISS:       3900
LLC LOAD      ACCESS:       3802  HIT:          0  MISS:       3802
LLC RFO       ACCESS:          0  HIT:          0  MISS:          0
LLC PREFETCH  ACCESS:          0  HIT:          0  MISS:          0
LLC WRITEBACK ACCESS:         98  HIT:          0  MISS:         98
Heartbeat CPU 0 instructions: 58000000 cycles: 18942064 heartbeat IPC: 1.8574 cumulative IPC: 1.87309 (Simulation time: 0 hr 37 min 36 sec) 

Region of Interest Statistics
cpu0_DTLB TOTAL     ACCESS:    1700786  HIT:    1700000  MISS:        786
cpu0_DTLB LOAD      ACCESS:    1626202  HIT:    1625420  MISS:        782
cpu0_DTLB RFO       ACCESS:      74584  HIT:      74580  MISS:          4
cpu0_DTLB PREFETCH  ACCESS:          0  HIT:          0  MISS:          0
cpu0_DTLB WRITEBACK ACCESS:          0  HIT:          0  MISS:          0
cpu0_ITLB TOTAL     ACCESS:      15115  HIT:      15115  MISS:          0
cpu0_ITLB LOAD      ACCESS:      15115  HIT:      15115  MISS:          0
cpu0_ITLB RFO       ACCESS:          0  HIT:          0  MISS:          0
cpu0_ITLB PREFETCH  ACCESS:          0  HIT:          0  MISS:          0
cpu0_ITLB WRITEBACK ACCESS:          0  HIT:          0  MISS:          0
cpu0_STLB TOTAL     ACCESS:        786  HIT:        513  MISS:        273
cpu0_STLB LOAD      ACCESS:        782  HIT:        509  MISS:        273
cpu0_STLB RFO       ACCESS:          4  HIT:          4  MISS:          0
cpu0_STLB PREFETCH  ACCESS:          0  HIT:          0  MISS:          0
cpu0_STLB WRITEBACK ACCESS:          0  HIT:          0  MISS:          0
cpu0_L1D TOTAL     ACCESS:    2139851  HIT:    2114347  MISS:      25504
cpu0_L1D LOAD      ACCESS:    1916804  HIT:    1891385  MISS:      25419
cpu0_L1D RFO       ACCESS:     222774  HIT:     222712  MISS:         62
cpu0_L1D PREFETCH  ACCESS:          0  HIT:          0  MISS:          0
cpu0_L1D WRITEBACK ACCESS:          0  HIT:          0  MISS:          0
cpu0_L2C TOTAL     ACCESS:      32794  HIT:      27687  MISS:       5107
cpu0_L2C LOAD      ACCESS:      25418  HIT:      20313  MISS:       5105
cpu0_L2C RFO       ACCESS:         62  HIT:         62  MISS:          0
cpu0_L2C PREFETCH  ACCESS:          0  HIT:          0  MISS:          0
cpu0_L2C WRITEBACK ACCESS:       7291  HIT:       7290  MISS:          1
LLC TOTAL     ACCESS:       5251  HIT:          1  MISS:       5250
LLC LOAD      ACCESS:       5105  HIT:          1  MISS:       5104
LLC RFO       ACCESS:          0  HIT:          0  MISS:          0
LLC PREFETCH  ACCESS:          0  HIT:          0  MISS:          0
LLC WRITEBACK ACCESS:        145  HIT:          0  MISS:        145
Heartbeat CPU 0 instructions: 60000000 cycles: 20003298 heartbeat IPC: 1.8846 cumulative IPC: 1.87538 (Simulation time: 0 hr 39 min 11 sec) 

Region of Interest Statistics
cpu0_DTLB TOTAL     ACCESS:    2127421  HIT:    2126533  MISS:        888
cpu0_DTLB LOAD      ACCESS:    2034220  HIT:    2033336  MISS:        884
cpu0_DTLB RFO       ACCESS:      93201  HIT:      93197  MISS:          4
cpu0_DTLB PREFETCH  ACCESS:          0  HIT:          0  MISS:          0
cpu0_DTLB WRITEBACK ACCESS:          0  HIT:          0  MISS:          0
cpu0_ITLB TOTAL     ACCESS:      18572  HIT:      18572  MISS:          0
cpu0_ITLB LOAD      ACCESS:      18572  HIT:      18572  MISS:          0
cpu0_ITLB RFO       ACCESS:          0  HIT:          0  MISS:          0
cpu0_ITLB PREFETCH  ACCESS:          0  HIT:          0  MISS:          0
cpu0_ITLB WRITEBACK ACCESS:          0  HIT:          0  MISS:          0
cpu0_STLB TOTAL     ACCESS:        888  HIT:        548  MISS:        340
cpu0_STLB LOAD      ACCESS:        884  HIT:        544  MISS:        340
cpu0_STLB RFO       ACCESS:          4  HIT:          4  MISS:          0
cpu0_STLB PREFETCH  ACCESS:          0  HIT:          0  MISS:          0
cpu0_STLB WRITEBACK ACCESS:          0  HIT:          0  MISS:          0
cpu0_L1D TOTAL     ACCESS:    2675060  HIT:    2646203  MISS:      28857
cpu0_L1D LOAD      ACCESS:    2396332  HIT:    2367564  MISS:      28768
cpu0_L1D RFO       ACCESS:     278388  HIT:     278323  MISS:         65
cpu0_L1D PREFETCH  ACCESS:          0  HIT:          0  MISS:          0
cpu0_L1D WRITEBACK ACCESS:          0  HIT:          0  MISS:          0
cpu0_L2C TOTAL     ACCESS:      36829  HIT:      30463  MISS:       6366
cpu0_L2C LOAD      ACCESS:      28766  HIT:      22403  MISS:       6363
cpu0_L2C RFO       ACCESS:         65  HIT:         65  MISS:          0
cpu0_L2C PREFETCH  ACCESS:          0  HIT:          0  MISS:          0
cpu0_L2C WRITEBACK ACCESS:       7974  HIT:       7972  MISS:          2
LLC TOTAL     ACCESS:       6566  HIT:          7  MISS:       6559
LLC LOAD      ACCESS:       6363  HIT:          7  MISS:       6356
LLC RFO       ACCESS:          0  HIT:          0  MISS:          0
LLC PREFETCH  ACCESS:          0  HIT:          0  MISS:          0
LLC WRITEBACK ACCESS:        202  HIT:          0  MISS:        202
Heartbeat CPU 0 instructions: 62000000 cycles: 21054374 heartbeat IPC: 1.90281 cumulative IPC: 1.8799 (Simulation time: 0 hr 40 min 47 sec) 

Region of Interest Statistics
cpu0_DTLB TOTAL     ACCESS:    2551515  HIT:    2550548  MISS:        967
cpu0_DTLB LOAD      ACCESS:    2439750  HIT:    2438788  MISS:        962
cpu0_DTLB RFO       ACCESS:     111765  HIT:     111760  MISS:          5
cpu0_DTLB PREFETCH  ACCESS:          0  HIT:          0  MISS:          0
cpu0_DTLB WRITEBACK ACCESS:          0  HIT:          0  MISS:          0
cpu0_ITLB TOTAL     ACCESS:      21154  HIT:      21154  MISS:          0
cpu0_ITLB LOAD      ACCESS:      21154  HIT:      21154  MISS:          0
cpu0_ITLB RFO       ACCESS:          0  HIT:          0  MISS:          0
cpu0_ITLB PREFETCH  ACCESS:          0  HIT:          0  MISS:          0
cpu0_ITLB WRITEBACK ACCESS:          0  HIT:          0  MISS:          0
cpu0_STLB TOTAL     ACCESS:        967  HIT:        571  MISS:        396
cpu0_STLB LOAD      ACCESS:        962  HIT:        566  MISS:        396
cpu0_STLB RFO       ACCESS:          5  HIT:          5  MISS:          0
cpu0_STLB PREFETCH  ACCESS:          0  HIT:          0  MISS:          0
cpu0_STLB WRITEBACK ACCESS:          0  HIT:          0  MISS:          0
cpu0_L1D TOTAL     ACCESS:    3210007  HIT:    3176436  MISS:      33571
cpu0_L1D LOAD      ACCESS:    2875724  HIT:    2842244  MISS:      33480
cpu0_L1D RFO       ACCESS:     333887  HIT:     333820  MISS:         67
cpu0_L1D PREFETCH  ACCESS:          0  HIT:          0  MISS:          0
cpu0_L1D WRITEBACK ACCESS:          0  HIT:          0  MISS:          0
cpu0_L2C TOTAL     ACCESS:      42774  HIT:      35159  MISS:       7615
cpu0_L2C LOAD      ACCESS:      33478  HIT:      25866  MISS:       7612
cpu0_L2C RFO       ACCESS:         67  HIT:         67  MISS:          0
cpu0_L2C PREFETCH  ACCESS:          0  HIT:          0  MISS:          0
cpu0_L2C WRITEBACK ACCESS:       9205  HIT:       9203  MISS:          2
LLC TOTAL     ACCESS:       7835  HIT:         12  MISS:       7823
LLC LOAD      ACCESS:       7612  HIT:         12  MISS:       7600
LLC RFO       ACCESS:          0  HIT:          0  MISS:          0
LLC PREFETCH  ACCESS:          0  HIT:          0  MISS:          0
LLC WRITEBACK ACCESS:        222  HIT:          0  MISS:        222
Heartbeat CPU 0 instructions: 64000000 cycles: 22123452 heartbeat IPC: 1.87077 cumulative IPC: 1.87859 (Simulation time: 0 hr 42 min 26 sec) 

Region of Interest Statistics
cpu0_DTLB TOTAL     ACCESS:    2976743  HIT:    2975635  MISS:       1108
cpu0_DTLB LOAD      ACCESS:    2846337  HIT:    2845234  MISS:       1103
cpu0_DTLB RFO       ACCESS:     130406  HIT:     130401  MISS:          5
cpu0_DTLB PREFETCH  ACCESS:          0  HIT:          0  MISS:          0
cpu0_DTLB WRITEBACK ACCESS:          0  HIT:          0  MISS:          0
cpu0_ITLB TOTAL     ACCESS:      24619  HIT:      24619  MISS:          0
cpu0_ITLB LOAD      ACCESS:      24619  HIT:      24619  MISS:          0
cpu0_ITLB RFO       ACCESS:          0  HIT:          0  MISS:          0
cpu0_ITLB PREFETCH  ACCESS:          0  HIT:          0  MISS:          0
cpu0_ITLB WRITEBACK ACCESS:          0  HIT:          0  MISS:          0
cpu0_STLB TOTAL     ACCESS:       1108  HIT:        646  MISS:        462
cpu0_STLB LOAD      ACCESS:       1103  HIT:        641  MISS:        462
cpu0_STLB RFO       ACCESS:          5  HIT:          5  MISS:          0
cpu0_STLB PREFETCH  ACCESS:          0  HIT:          0  MISS:          0
cpu0_STLB WRITEBACK ACCESS:          0  HIT:          0  MISS:          0
cpu0_L1D TOTAL     ACCESS:    3744656  HIT:    3706555  MISS:      38101
cpu0_L1D LOAD      ACCESS:    3354667  HIT:    3316669  MISS:      37998
cpu0_L1D RFO       ACCESS:     389527  HIT:     389451  MISS:         76
cpu0_L1D PREFETCH  ACCESS:          0  HIT:          0  MISS:          0
cpu0_L1D WRITEBACK ACCESS:          0  HIT:          0  MISS:          0
cpu0_L2C TOTAL     ACCESS:      48428  HIT:      39395  MISS:       9033
cpu0_L2C LOAD      ACCESS:      37996  HIT:      28973  MISS:       9023
cpu0_L2C RFO       ACCESS:         76  HIT:         76  MISS:          0
cpu0_L2C PREFETCH  ACCESS:          0  HIT:          0  MISS:          0
cpu0_L2C WRITEBACK ACCESS:      10329  HIT:      10320  MISS:          9
LLC TOTAL     ACCESS:       9278  HIT:         44  MISS:       9234
LLC LOAD      ACCESS:       9023  HIT:         44  MISS:       8979
LLC RFO       ACCESS:          0  HIT:          0  MISS:          0
LLC PREFETCH  ACCESS:          0  HIT:          0  MISS:          0
LLC WRITEBACK ACCESS:        254  HIT:          0  MISS:        254
Heartbeat CPU 0 instructions: 66000002 cycles: 23176342 heartbeat IPC: 1.89954 cumulative IPC: 1.88118 (Simulation time: 0 hr 44 min 4 sec) 

Region of Interest Statistics
cpu0_DTLB TOTAL     ACCESS:    3398662  HIT:    3397450  MISS:       1212
cpu0_DTLB LOAD      ACCESS:    3249716  HIT:    3248509  MISS:       1207
cpu0_DTLB RFO       ACCESS:     148946  HIT:     148941  MISS:          5
cpu0_DTLB PREFETCH  ACCESS:          0  HIT:          0  MISS:          0
cpu0_DTLB WRITEBACK ACCESS:          0  HIT:          0  MISS:          0
cpu0_ITLB TOTAL     ACCESS:      26615  HIT:      26615  MISS:          0
cpu0_ITLB LOAD      ACCESS:      26615  HIT:      26615  MISS:          0
cpu0_ITLB RFO       ACCESS:          0  HIT:          0  MISS:          0
cpu0_ITLB PREFETCH  ACCESS:          0  HIT:          0  MISS:          0
cpu0_ITLB WRITEBACK ACCESS:          0  HIT:          0  MISS:          0
cpu0_STLB TOTAL     ACCESS:       1212  HIT:        703  MISS:        509
cpu0_STLB LOAD      ACCESS:       1207  HIT:        698  MISS:        509
cpu0_STLB RFO       ACCESS:          5  HIT:          5  MISS:          0
cpu0_STLB PREFETCH  ACCESS:          0  HIT:          0  MISS:          0
cpu0_STLB WRITEBACK ACCESS:          0  HIT:          0  MISS:          0
cpu0_L1D TOTAL     ACCESS:    4279480  HIT:    4227531  MISS:      51949
cpu0_L1D LOAD      ACCESS:    3834076  HIT:    3782256  MISS:      51820
cpu0_L1D RFO       ACCESS:     444895  HIT:     444800  MISS:         95
cpu0_L1D PREFETCH  ACCESS:          0  HIT:          0  MISS:          0
cpu0_L1D WRITEBACK ACCESS:          0  HIT:          0  MISS:          0
cpu0_L2C TOTAL     ACCESS:      66691  HIT:      56332  MISS:      10359
cpu0_L2C LOAD      ACCESS:      51818  HIT:      41470  MISS:      10348
cpu0_L2C RFO       ACCESS:         95  HIT:         95  MISS:          0
cpu0_L2C PREFETCH  ACCESS:          0  HIT:          0  MISS:          0
cpu0_L2C WRITEBACK ACCESS:      14744  HIT:      14734  MISS:         10
LLC TOTAL     ACCESS:      10648  HIT:         48  MISS:      10600
LLC LOAD      ACCESS:      10348  HIT:         48  MISS:      10300
LLC RFO       ACCESS:          0  HIT:          0  MISS:          0
LLC PREFETCH  ACCESS:          0  HIT:          0  MISS:          0
LLC WRITEBACK ACCESS:        299  HIT:          0  MISS:        299
Heartbeat CPU 0 instructions: 68000003 cycles: 24240107 heartbeat IPC: 1.88012 cumulative IPC: 1.88106 (Simulation time: 0 hr 45 min 40 sec) 

Region of Interest Statistics
cpu0_DTLB TOTAL     ACCESS:    3821402  HIT:    3820089  MISS:       1313
cpu0_DTLB LOAD      ACCESS:    3653856  HIT:    3652549  MISS:       1307
cpu0_DTLB RFO       ACCESS:     167546  HIT:     167540  MISS:          6
cpu0_DTLB PREFETCH  ACCESS:          0  HIT:          0  MISS:          0
cpu0_DTLB WRITEBACK ACCESS:          0  HIT:          0  MISS:          0
cpu0_ITLB TOTAL     ACCESS:      28810  HIT:      28810  MISS:          0
cpu0_ITLB LOAD      ACCESS:      28810  HIT:      28810  MISS:          0
cpu0_ITLB RFO       ACCESS:          0  HIT:          0  MISS:          0
cpu0_ITLB PREFETCH  ACCESS:          0  HIT:          0  MISS:          0
cpu0_ITLB WRITEBACK ACCESS:          0  HIT:          0  MISS:          0
cpu0_STLB TOTAL     ACCESS:       1313  HIT:        754  MISS:        559
cpu0_STLB LOAD      ACCESS:       1307  HIT:        748  MISS:        559
cpu0_STLB RFO       ACCESS:          6  HIT:          6  MISS:          0
cpu0_STLB PREFETCH  ACCESS:          0  HIT:          0  MISS:          0
cpu0_STLB WRITEBACK ACCESS:          0  HIT:          0  MISS:          0
cpu0_L1D TOTAL     ACCESS:    4814257  HIT:    4750491  MISS:      63766
cpu0_L1D LOAD      ACCESS:    4313386  HIT:    4249773  MISS:      63613
cpu0_L1D RFO       ACCESS:     500312  HIT:     500206  MISS:        106
cpu0_L1D PREFETCH  ACCESS:          0  HIT:          0  MISS:          0
cpu0_L1D WRITEBACK ACCESS:          0  HIT:          0  MISS:          0
cpu0_L2C TOTAL     ACCESS:      81893  HIT:      70088  MISS:      11805
cpu0_L2C LOAD      ACCESS:      63611  HIT:      51818  MISS:      11793
cpu0_L2C RFO       ACCESS:        106  HIT:        106  MISS:          0
cpu0_L2C PREFETCH  ACCESS:          0  HIT:          0  MISS:          0
cpu0_L2C WRITEBACK ACCESS:      18129  HIT:      18119  MISS:         10
LLC TOTAL     ACCESS:      12113  HIT:         54  MISS:      12059
LLC LOAD      ACCESS:      11793  HIT:         54  MISS:      11739
LLC RFO       ACCESS:          0  HIT:          0  MISS:          0
LLC PREFETCH  ACCESS:          0  HIT:          0  MISS:          0
LLC WRITEBACK ACCESS:        318  HIT:          0  MISS:        318
Heartbeat CPU 0 instructions: 70000004 cycles: 25283967 heartbeat IPC: 1.91597 cumulative IPC: 1.88449 (Simulation time: 0 hr 47 min 16 sec) 

Region of Interest Statistics
cpu0_DTLB TOTAL     ACCESS:    4241823  HIT:    4240334  MISS:       1489
cpu0_DTLB LOAD      ACCESS:    4055721  HIT:    4054240  MISS:       1481
cpu0_DTLB RFO       ACCESS:     186102  HIT:     186094  MISS:          8
cpu0_DTLB PREFETCH  ACCESS:          0  HIT:          0  MISS:          0
cpu0_DTLB WRITEBACK ACCESS:          0  HIT:          0  MISS:          0
cpu0_ITLB TOTAL     ACCESS:      30631  HIT:      30631  MISS:          0
cpu0_ITLB LOAD      ACCESS:      30631  HIT:      30631  MISS:          0
cpu0_ITLB RFO       ACCESS:          0  HIT:          0  MISS:          0
cpu0_ITLB PREFETCH  ACCESS:          0  HIT:          0  MISS:          0
cpu0_ITLB WRITEBACK ACCESS:          0  HIT:          0  MISS:          0
cpu0_STLB TOTAL     ACCESS:       1489  HIT:        885  MISS:        604
cpu0_STLB LOAD      ACCESS:       1481  HIT:        877  MISS:        604
cpu0_STLB RFO       ACCESS:          8  HIT:          8  MISS:          0
cpu0_STLB PREFETCH  ACCESS:          0  HIT:          0  MISS:          0
cpu0_STLB WRITEBACK ACCESS:          0  HIT:          0  MISS:          0
cpu0_L1D TOTAL     ACCESS:    5348949  HIT:    5265887  MISS:      83062
cpu0_L1D LOAD      ACCESS:    4792711  HIT:    4709840  MISS:      82871
cpu0_L1D RFO       ACCESS:     555634  HIT:     555503  MISS:        131
cpu0_L1D PREFETCH  ACCESS:          0  HIT:          0  MISS:          0
cpu0_L1D WRITEBACK ACCESS:          0  HIT:          0  MISS:          0
cpu0_L2C TOTAL     ACCESS:     107643  HIT:      94580  MISS:      13063
cpu0_L2C LOAD      ACCESS:      82869  HIT:      69819  MISS:      13050
cpu0_L2C RFO       ACCESS:        131  HIT:        131  MISS:          0
cpu0_L2C PREFETCH  ACCESS:          0  HIT:          0  MISS:          0
cpu0_L2C WRITEBACK ACCESS:      24583  HIT:      24573  MISS:         10
LLC TOTAL     ACCESS:      13373  HIT:         55  MISS:      13318
LLC LOAD      ACCESS:      13050  HIT:         55  MISS:      12995
LLC RFO       ACCESS:          0  HIT:          0  MISS:          0
LLC PREFETCH  ACCESS:          0  HIT:          0  MISS:          0
LLC WRITEBACK ACCESS:        320  HIT:          0  MISS:        320
Heartbeat CPU 0 instructions: 72000004 cycles: 26332706 heartbeat IPC: 1.90705 cumulative IPC: 1.88652 (Simulation time: 0 hr 48 min 54 sec) 

Region of Interest Statistics
cpu0_DTLB TOTAL     ACCESS:    4663145  HIT:    4661489  MISS:       1656
cpu0_DTLB LOAD      ACCESS:    4458465  HIT:    4456818  MISS:       1647
cpu0_DTLB RFO       ACCESS:     204680  HIT:     204671  MISS:          9
cpu0_DTLB PREFETCH  ACCESS:          0  HIT:          0  MISS:          0
cpu0_DTLB WRITEBACK ACCESS:          0  HIT:          0  MISS:          0
cpu0_ITLB TOTAL     ACCESS:      32184  HIT:      32184  MISS:          0
cpu0_ITLB LOAD      ACCESS:      32184  HIT:      32184  MISS:          0
cpu0_ITLB RFO       ACCESS:          0  HIT:          0  MISS:          0
cpu0_ITLB PREFETCH  ACCESS:          0  HIT:          0  MISS:          0
cpu0_ITLB WRITEBACK ACCESS:          0  HIT:          0  MISS:          0
cpu0_STLB TOTAL     ACCESS:       1656  HIT:       1006  MISS:        650
cpu0_STLB LOAD      ACCESS:       1647  HIT:        997  MISS:        650
cpu0_STLB RFO       ACCESS:          9  HIT:          9  MISS:          0
cpu0_STLB PREFETCH  ACCESS:          0  HIT:          0  MISS:          0
cpu0_STLB WRITEBACK ACCESS:          0  HIT:          0  MISS:          0
cpu0_L1D TOTAL     ACCESS:    5883577  HIT:    5781887  MISS:     101690
cpu0_L1D LOAD      ACCESS:    5271977  HIT:    5170514  MISS:     101463
cpu0_L1D RFO       ACCESS:     610950  HIT:     610795  MISS:        155
cpu0_L1D PREFETCH  ACCESS:          0  HIT:          0  MISS:          0
cpu0_L1D WRITEBACK ACCESS:          0  HIT:          0  MISS:          0
cpu0_L2C TOTAL     ACCESS:     132352  HIT:     117956  MISS:      14396
cpu0_L2C LOAD      ACCESS:     101461  HIT:      87078  MISS:      14383
cpu0_L2C RFO       ACCESS:        155  HIT:        155  MISS:          0
cpu0_L2C PREFETCH  ACCESS:          0  HIT:          0  MISS:          0
cpu0_L2C WRITEBACK ACCESS:      30664  HIT:      30654  MISS:         10
LLC TOTAL     ACCESS:      14720  HIT:         57  MISS:      14663
LLC LOAD      ACCESS:      14383  HIT:         56  MISS:      14327
LLC RFO       ACCESS:          0  HIT:          0  MISS:          0
LLC PREFETCH  ACCESS:          0  HIT:          0  MISS:          0
LLC WRITEBACK ACCESS:        334  HIT:          1  MISS:        333
Heartbeat CPU 0 instructions: 74000000 cycles: 27374658 heartbeat IPC: 1.91947 cumulative IPC: 1.88923 (Simulation time: 0 hr 50 min 29 sec) 

Region of Interest Statistics
cpu0_DTLB TOTAL     ACCESS:    5085754  HIT:    5083966  MISS:       1788
cpu0_DTLB LOAD      ACCESS:    4862473  HIT:    4860696  MISS:       1777
cpu0_DTLB RFO       ACCESS:     223281  HIT:     223270  MISS:         11
cpu0_DTLB PREFETCH  ACCESS:          0  HIT:          0  MISS:          0
cpu0_DTLB WRITEBACK ACCESS:          0  HIT:          0  MISS:          0
cpu0_ITLB TOTAL     ACCESS:      33878  HIT:      33878  MISS:          0
cpu0_ITLB LOAD      ACCESS:      33878  HIT:      33878  MISS:          0
cpu0_ITLB RFO       ACCESS:          0  HIT:          0  MISS:          0
cpu0_ITLB PREFETCH  ACCESS:          0  HIT:          0  MISS:          0
cpu0_ITLB WRITEBACK ACCESS:          0  HIT:          0  MISS:          0
cpu0_STLB TOTAL     ACCESS:       1788  HIT:       1101  MISS:        687
cpu0_STLB LOAD      ACCESS:       1777  HIT:       1090  MISS:        687
cpu0_STLB RFO       ACCESS:         11  HIT:         11  MISS:          0
cpu0_STLB PREFETCH  ACCESS:          0  HIT:          0  MISS:          0
cpu0_STLB WRITEBACK ACCESS:          0  HIT:          0  MISS:          0
cpu0_L1D TOTAL     ACCESS:    6418061  HIT:    6297226  MISS:     120835
cpu0_L1D LOAD      ACCESS:    5751135  HIT:    5630574  MISS:     120561
cpu0_L1D RFO       ACCESS:     666239  HIT:     666054  MISS:        185
cpu0_L1D PREFETCH  ACCESS:          0  HIT:          0  MISS:          0
cpu0_L1D WRITEBACK ACCESS:          0  HIT:          0  MISS:          0
cpu0_L2C TOTAL     ACCESS:     157892  HIT:     142181  MISS:      15711
cpu0_L2C LOAD      ACCESS:     120559  HIT:     104861  MISS:      15698
cpu0_L2C RFO       ACCESS:        185  HIT:        185  MISS:          0
cpu0_L2C PREFETCH  ACCESS:          0  HIT:          0  MISS:          0
cpu0_L2C WRITEBACK ACCESS:      37059  HIT:      37049  MISS:         10
LLC TOTAL     ACCESS:      16074  HIT:         57  MISS:      16017
LLC LOAD      ACCESS:      15698  HIT:         56  MISS:      15642
LLC RFO       ACCESS:          0  HIT:          0  MISS:          0
LLC PREFETCH  ACCESS:          0  HIT:          0  MISS:          0
LLC WRITEBACK ACCESS:        373  HIT:          1  MISS:        372
Heartbeat CPU 0 instructions: 76000001 cycles: 28412577 heartbeat IPC: 1.92693 cumulative IPC: 1.89207 (Simulation time: 0 hr 52 min 3 sec) 

Region of Interest Statistics
cpu0_DTLB TOTAL     ACCESS:    5508629  HIT:    5506705  MISS:       1924
cpu0_DTLB LOAD      ACCESS:    5266746  HIT:    5264835  MISS:       1911
cpu0_DTLB RFO       ACCESS:     241883  HIT:     241870  MISS:         13
cpu0_DTLB PREFETCH  ACCESS:          0  HIT:          0  MISS:          0
cpu0_DTLB WRITEBACK ACCESS:          0  HIT:          0  MISS:          0
cpu0_ITLB TOTAL     ACCESS:      35897  HIT:      35897  MISS:          0
cpu0_ITLB LOAD      ACCESS:      35897  HIT:      35897  MISS:          0
cpu0_ITLB RFO       ACCESS:          0  HIT:          0  MISS:          0
cpu0_ITLB PREFETCH  ACCESS:          0  HIT:          0  MISS:          0
cpu0_ITLB WRITEBACK ACCESS:          0  HIT:          0  MISS:          0
cpu0_STLB TOTAL     ACCESS:       1924  HIT:       1193  MISS:        731
cpu0_STLB LOAD      ACCESS:       1911  HIT:       1180  MISS:        731
cpu0_STLB RFO       ACCESS:         13  HIT:         13  MISS:          0
cpu0_STLB PREFETCH  ACCESS:          0  HIT:          0  MISS:          0
cpu0_STLB WRITEBACK ACCESS:          0  HIT:          0  MISS:          0
cpu0_L1D TOTAL     ACCESS:    6952660  HIT:    6818895  MISS:     133765
cpu0_L1D LOAD      ACCESS:    6230352  HIT:    6096918  MISS:     133434
cpu0_L1D RFO       ACCESS:     721577  HIT:     721354  MISS:        223
cpu0_L1D PREFETCH  ACCESS:          0  HIT:          0  MISS:          0
cpu0_L1D WRITEBACK ACCESS:          0  HIT:          0  MISS:          0
cpu0_L2C TOTAL     ACCESS:     175024  HIT:     158052  MISS:      16972
cpu0_L2C LOAD      ACCESS:     133431  HIT:     116472  MISS:      16959
cpu0_L2C RFO       ACCESS:        223  HIT:        223  MISS:          0
cpu0_L2C PREFETCH  ACCESS:          0  HIT:          0  MISS:          0
cpu0_L2C WRITEBACK ACCESS:      41262  HIT:      41252  MISS:         10
LLC TOTAL     ACCESS:      17383  HIT:         57  MISS:      17326
LLC LOAD      ACCESS:      16959  HIT:         56  MISS:      16903
LLC RFO       ACCESS:          0  HIT:          0  MISS:          0
LLC PREFETCH  ACCESS:          0  HIT:          0  MISS:          0
LLC WRITEBACK ACCESS:        421  HIT:          1  MISS:        420
Heartbeat CPU 0 instructions: 78000001 cycles: 29449426 heartbeat IPC: 1.92892 cumulative IPC: 1.89466 (Simulation time: 0 hr 53 min 41 sec) 

Region of Interest Statistics
cpu0_DTLB TOTAL     ACCESS:    5932124  HIT:    5930023  MISS:       2101
cpu0_DTLB LOAD      ACCESS:    5671642  HIT:    5669555  MISS:       2087
cpu0_DTLB RFO       ACCESS:     260482  HIT:     260468  MISS:         14
cpu0_DTLB PREFETCH  ACCESS:          0  HIT:          0  MISS:          0
cpu0_DTLB WRITEBACK ACCESS:          0  HIT:          0  MISS:          0
cpu0_ITLB TOTAL     ACCESS:      37830  HIT:      37830  MISS:          0
cpu0_ITLB LOAD      ACCESS:      37830  HIT:      37830  MISS:          0
cpu0_ITLB RFO       ACCESS:          0  HIT:          0  MISS:          0
cpu0_ITLB PREFETCH  ACCESS:          0  HIT:          0  MISS:          0
cpu0_ITLB WRITEBACK ACCESS:          0  HIT:          0  MISS:          0
cpu0_STLB TOTAL     ACCESS:       2101  HIT:       1325  MISS:        776
cpu0_STLB LOAD      ACCESS:       2087  HIT:       1311  MISS:        776
cpu0_STLB RFO       ACCESS:         14  HIT:         14  MISS:          0
cpu0_STLB PREFETCH  ACCESS:          0  HIT:          0  MISS:          0
cpu0_STLB WRITEBACK ACCESS:          0  HIT:          0  MISS:          0
cpu0_L1D TOTAL     ACCESS:    7487591  HIT:    7336400  MISS:     151191
cpu0_L1D LOAD      ACCESS:    6709927  HIT:    6559107  MISS:     150820
cpu0_L1D RFO       ACCESS:     776888  HIT:     776637  MISS:        251
cpu0_L1D PREFETCH  ACCESS:          0  HIT:          0  MISS:          0
cpu0_L1D WRITEBACK ACCESS:          0  HIT:          0  MISS:          0
cpu0_L2C TOTAL     ACCESS:     198308  HIT:     180127  MISS:      18181
cpu0_L2C LOAD      ACCESS:     150817  HIT:     132649  MISS:      18168
cpu0_L2C RFO       ACCESS:        251  HIT:        251  MISS:          0
cpu0_L2C PREFETCH  ACCESS:          0  HIT:          0  MISS:          0
cpu0_L2C WRITEBACK ACCESS:      47120  HIT:      47110  MISS:         10
LLC TOTAL     ACCESS:      18611  HIT:         62  MISS:      18549
LLC LOAD      ACCESS:      18168  HIT:         59  MISS:      18109
LLC RFO       ACCESS:          0  HIT:          0  MISS:          0
LLC PREFETCH  ACCESS:          0  HIT:          0  MISS:          0
LLC WRITEBACK ACCESS:        440  HIT:          3  MISS:        437
Heartbeat CPU 0 instructions: 80000004 cycles: 30489368 heartbeat IPC: 1.92319 cumulative IPC: 1.89653 (Simulation time: 0 hr 55 min 17 sec) 

Region of Interest Statistics
cpu0_DTLB TOTAL     ACCESS:    6355913  HIT:    6353636  MISS:       2277
cpu0_DTLB LOAD      ACCESS:    6076870  HIT:    6074608  MISS:       2262
cpu0_DTLB RFO       ACCESS:     279043  HIT:     279028  MISS:         15
cpu0_DTLB PREFETCH  ACCESS:          0  HIT:          0  MISS:          0
cpu0_DTLB WRITEBACK ACCESS:          0  HIT:          0  MISS:          0
cpu0_ITLB TOTAL     ACCESS:      39669  HIT:      39669  MISS:          0
cpu0_ITLB LOAD      ACCESS:      39669  HIT:      39669  MISS:          0
cpu0_ITLB RFO       ACCESS:          0  HIT:          0  MISS:          0
cpu0_ITLB PREFETCH  ACCESS:          0  HIT:          0  MISS:          0
cpu0_ITLB WRITEBACK ACCESS:          0  HIT:          0  MISS:          0
cpu0_STLB TOTAL     ACCESS:       2277  HIT:       1458  MISS:        819
cpu0_STLB LOAD      ACCESS:       2262  HIT:       1443  MISS:        819
cpu0_STLB RFO       ACCESS:         15  HIT:         15  MISS:          0
cpu0_STLB PREFETCH  ACCESS:          0  HIT:          0  MISS:          0
cpu0_STLB WRITEBACK ACCESS:          0  HIT:          0  MISS:          0
cpu0_L1D TOTAL     ACCESS:    8022513  HIT:    7850123  MISS:     172390
cpu0_L1D LOAD      ACCESS:    7189538  HIT:    7017564  MISS:     171974
cpu0_L1D RFO       ACCESS:     832156  HIT:     831871  MISS:        285
cpu0_L1D PREFETCH  ACCESS:          0  HIT:          0  MISS:          0
cpu0_L1D WRITEBACK ACCESS:          0  HIT:          0  MISS:          0
cpu0_L2C TOTAL     ACCESS:     226651  HIT:     207216  MISS:      19435
cpu0_L2C LOAD      ACCESS:     171970  HIT:     152548  MISS:      19422
cpu0_L2C RFO       ACCESS:        285  HIT:        285  MISS:          0
cpu0_L2C PREFETCH  ACCESS:          0  HIT:          0  MISS:          0
cpu0_L2C WRITEBACK ACCESS:      54265  HIT:      54255  MISS:         10
LLC TOTAL     ACCESS:      19870  HIT:         75  MISS:      19795
LLC LOAD      ACCESS:      19422  HIT:         72  MISS:      19350
LLC RFO       ACCESS:          0  HIT:          0  MISS:          0
LLC PREFETCH  ACCESS:          0  HIT:          0  MISS:          0
LLC WRITEBACK ACCESS:        445  HIT:          3  MISS:        442
Heartbeat CPU 0 instructions: 82000004 cycles: 31527646 heartbeat IPC: 1.92627 cumulative IPC: 1.89837 (Simulation time: 0 hr 56 min 50 sec) 

Region of Interest Statistics
cpu0_DTLB TOTAL     ACCESS:    6776664  HIT:    6774213  MISS:       2451
cpu0_DTLB LOAD      ACCESS:    6479040  HIT:    6476605  MISS:       2435
cpu0_DTLB RFO       ACCESS:     297624  HIT:     297608  MISS:         16
cpu0_DTLB PREFETCH  ACCESS:          0  HIT:          0  MISS:          0
cpu0_DTLB WRITEBACK ACCESS:          0  HIT:          0  MISS:          0
cpu0_ITLB TOTAL     ACCESS:      41784  HIT:      41784  MISS:          0
cpu0_ITLB LOAD      ACCESS:      41784  HIT:      41784  MISS:          0
cpu0_ITLB RFO       ACCESS:          0  HIT:          0  MISS:          0
cpu0_ITLB PREFETCH  ACCESS:          0  HIT:          0  MISS:          0
cpu0_ITLB WRITEBACK ACCESS:          0  HIT:          0  MISS:          0
cpu0_STLB TOTAL     ACCESS:       2451  HIT:       1588  MISS:        863
cpu0_STLB LOAD      ACCESS:       2435  HIT:       1572  MISS:        863
cpu0_STLB RFO       ACCESS:         16  HIT:         16  MISS:          0
cpu0_STLB PREFETCH  ACCESS:          0  HIT:          0  MISS:          0
cpu0_STLB WRITEBACK ACCESS:          0  HIT:          0  MISS:          0
cpu0_L1D TOTAL     ACCESS:    8557243  HIT:    8367007  MISS:     190236
cpu0_L1D LOAD      ACCESS:    7668851  HIT:    7479048  MISS:     189803
cpu0_L1D RFO       ACCESS:     887529  HIT:     887231  MISS:        298
cpu0_L1D PREFETCH  ACCESS:          0  HIT:          0  MISS:          0
cpu0_L1D WRITEBACK ACCESS:          0  HIT:          0  MISS:          0
cpu0_L2C TOTAL     ACCESS:     250505  HIT:     229848  MISS:      20657
cpu0_L2C LOAD      ACCESS:     189799  HIT:     169155  MISS:      20644
cpu0_L2C RFO       ACCESS:        298  HIT:        298  MISS:          0
cpu0_L2C PREFETCH  ACCESS:          0  HIT:          0  MISS:          0
cpu0_L2C WRITEBACK ACCESS:      60273  HIT:      60263  MISS:         10
LLC TOTAL     ACCESS:      21122  HIT:         77  MISS:      21045
LLC LOAD      ACCESS:      20644  HIT:         74  MISS:      20570
LLC RFO       ACCESS:          0  HIT:          0  MISS:          0
LLC PREFETCH  ACCESS:          0  HIT:          0  MISS:          0
LLC WRITEBACK ACCESS:        475  HIT:          3  MISS:        472
Heartbeat CPU 0 instructions: 84000000 cycles: 32578030 heartbeat IPC: 1.90406 cumulative IPC: 1.8987 (Simulation time: 0 hr 58 min 22 sec) 

Region of Interest Statistics
cpu0_DTLB TOTAL     ACCESS:    7199518  HIT:    7196909  MISS:       2609
cpu0_DTLB LOAD      ACCESS:    6883293  HIT:    6880701  MISS:       2592
cpu0_DTLB RFO       ACCESS:     316225  HIT:     316208  MISS:         17
cpu0_DTLB PREFETCH  ACCESS:          0  HIT:          0  MISS:          0
cpu0_DTLB WRITEBACK ACCESS:          0  HIT:          0  MISS:          0
cpu0_ITLB TOTAL     ACCESS:      44072  HIT:      44072  MISS:          0
cpu0_ITLB LOAD      ACCESS:      44072  HIT:      44072  MISS:          0
cpu0_ITLB RFO       ACCESS:          0  HIT:          0  MISS:          0
cpu0_ITLB PREFETCH  ACCESS:          0  HIT:          0  MISS:          0
cpu0_ITLB WRITEBACK ACCESS:          0  HIT:          0  MISS:          0
cpu0_STLB TOTAL     ACCESS:       2609  HIT:       1693  MISS:        916
cpu0_STLB LOAD      ACCESS:       2592  HIT:       1676  MISS:        916
cpu0_STLB RFO       ACCESS:         17  HIT:         17  MISS:          0
cpu0_STLB PREFETCH  ACCESS:          0  HIT:          0  MISS:          0
cpu0_STLB WRITEBACK ACCESS:          0  HIT:          0  MISS:          0
cpu0_L1D TOTAL     ACCESS:    9092263  HIT:    8890436  MISS:     201827
cpu0_L1D LOAD      ACCESS:    8148336  HIT:    7946954  MISS:     201382
cpu0_L1D RFO       ACCESS:     943011  HIT:     942709  MISS:        302
cpu0_L1D PREFETCH  ACCESS:          0  HIT:          0  MISS:          0
cpu0_L1D WRITEBACK ACCESS:          0  HIT:          0  MISS:          0
cpu0_L2C TOTAL     ACCESS:     265849  HIT:     243918  MISS:      21931
cpu0_L2C LOAD      ACCESS:     201378  HIT:     179462  MISS:      21916
cpu0_L2C RFO       ACCESS:        302  HIT:        302  MISS:          0
cpu0_L2C PREFETCH  ACCESS:          0  HIT:          0  MISS:          0
cpu0_L2C WRITEBACK ACCESS:      64026  HIT:      64016  MISS:         10
LLC TOTAL     ACCESS:      22403  HIT:         79  MISS:      22324
LLC LOAD      ACCESS:      21916  HIT:         76  MISS:      21840
LLC RFO       ACCESS:          0  HIT:          0  MISS:          0
LLC PREFETCH  ACCESS:          0  HIT:          0  MISS:          0
LLC WRITEBACK ACCESS:        482  HIT:          3  MISS:        479
Heartbeat CPU 0 instructions: 86000002 cycles: 33652103 heartbeat IPC: 1.86207 cumulative IPC: 1.89663 (Simulation time: 0 hr 59 min 55 sec) 

Region of Interest Statistics
cpu0_DTLB TOTAL     ACCESS:    7626730  HIT:    7624027  MISS:       2703
cpu0_DTLB LOAD      ACCESS:    7291763  HIT:    7289078  MISS:       2685
cpu0_DTLB RFO       ACCESS:     334967  HIT:     334949  MISS:         18
cpu0_DTLB PREFETCH  ACCESS:          0  HIT:          0  MISS:          0
cpu0_DTLB WRITEBACK ACCESS:          0  HIT:          0  MISS:          0
cpu0_ITLB TOTAL     ACCESS:      48368  HIT:      48368  MISS:          0
cpu0_ITLB LOAD      ACCESS:      48368  HIT:      48368  MISS:          0
cpu0_ITLB RFO       ACCESS:          0  HIT:          0  MISS:          0
cpu0_ITLB PREFETCH  ACCESS:          0  HIT:          0  MISS:          0
cpu0_ITLB WRITEBACK ACCESS:          0  HIT:          0  MISS:          0
cpu0_STLB TOTAL     ACCESS:       2703  HIT:       1712  MISS:        991
cpu0_STLB LOAD      ACCESS:       2685  HIT:       1694  MISS:        991
cpu0_STLB RFO       ACCESS:         18  HIT:         18  MISS:          0
cpu0_STLB PREFETCH  ACCESS:          0  HIT:          0  MISS:          0
cpu0_STLB WRITEBACK ACCESS:          0  HIT:          0  MISS:          0
cpu0_L1D TOTAL     ACCESS:    9627335  HIT:    9424049  MISS:     203286
cpu0_L1D LOAD      ACCESS:    8627552  HIT:    8424713  MISS:     202839
cpu0_L1D RFO       ACCESS:     998792  HIT:     998488  MISS:        304
cpu0_L1D PREFETCH  ACCESS:          0  HIT:          0  MISS:          0
cpu0_L1D WRITEBACK ACCESS:          0  HIT:          0  MISS:          0
cpu0_L2C TOTAL     ACCESS:     267420  HIT:     244180  MISS:      23240
cpu0_L2C LOAD      ACCESS:     202835  HIT:     179610  MISS:      23225
cpu0_L2C RFO       ACCESS:        304  HIT:        304  MISS:          0
cpu0_L2C PREFETCH  ACCESS:          0  HIT:          0  MISS:          0
cpu0_L2C WRITEBACK ACCESS:      64138  HIT:      64128  MISS:         10
LLC TOTAL     ACCESS:      23757  HIT:         84  MISS:      23673
LLC LOAD      ACCESS:      23225  HIT:         80  MISS:      23145
LLC RFO       ACCESS:          0  HIT:          0  MISS:          0
LLC PREFETCH  ACCESS:          0  HIT:          0  MISS:          0
LLC WRITEBACK ACCESS:        527  HIT:          4  MISS:        523
Heartbeat CPU 0 instructions: 88000002 cycles: 34734618 heartbeat IPC: 1.84755 cumulative IPC: 1.89398 (Simulation time: 1 hr 1 min 31 sec) 

Region of Interest Statistics
cpu0_DTLB TOTAL     ACCESS:    8051830  HIT:    8049028  MISS:       2802
cpu0_DTLB LOAD      ACCESS:    7698107  HIT:    7695323  MISS:       2784
cpu0_DTLB RFO       ACCESS:     353723  HIT:     353705  MISS:         18
cpu0_DTLB PREFETCH  ACCESS:          0  HIT:          0  MISS:          0
cpu0_DTLB WRITEBACK ACCESS:          0  HIT:          0  MISS:          0
cpu0_ITLB TOTAL     ACCESS:      53527  HIT:      53527  MISS:          0
cpu0_ITLB LOAD      ACCESS:      53527  HIT:      53527  MISS:          0
cpu0_ITLB RFO       ACCESS:          0  HIT:          0  MISS:          0
cpu0_ITLB PREFETCH  ACCESS:          0  HIT:          0  MISS:          0
cpu0_ITLB WRITEBACK ACCESS:          0  HIT:          0  MISS:          0
cpu0_STLB TOTAL     ACCESS:       2802  HIT:       1724  MISS:       1078
cpu0_STLB LOAD      ACCESS:       2784  HIT:       1706  MISS:       1078
cpu0_STLB RFO       ACCESS:         18  HIT:         18  MISS:          0
cpu0_STLB PREFETCH  ACCESS:          0  HIT:          0  MISS:          0
cpu0_STLB WRITEBACK ACCESS:          0  HIT:          0  MISS:          0
cpu0_L1D TOTAL     ACCESS:   10162295  HIT:    9957601  MISS:     204694
cpu0_L1D LOAD      ACCESS:    9106477  HIT:    8902233  MISS:     204244
cpu0_L1D RFO       ACCESS:    1054740  HIT:    1054435  MISS:        305
cpu0_L1D PREFETCH  ACCESS:          0  HIT:          0  MISS:          0
cpu0_L1D WRITEBACK ACCESS:          0  HIT:          0  MISS:          0
cpu0_L2C TOTAL     ACCESS:     268893  HIT:     244313  MISS:      24580
cpu0_L2C LOAD      ACCESS:     204240  HIT:     179676  MISS:      24564
cpu0_L2C RFO       ACCESS:        305  HIT:        305  MISS:          0
cpu0_L2C PREFETCH  ACCESS:          0  HIT:          0  MISS:          0
cpu0_L2C WRITEBACK ACCESS:      64203  HIT:      64192  MISS:         11
LLC TOTAL     ACCESS:      25128  HIT:         86  MISS:      25042
LLC LOAD      ACCESS:      24564  HIT:         82  MISS:      24482
LLC RFO       ACCESS:          0  HIT:          0  MISS:          0
LLC PREFETCH  ACCESS:          0  HIT:          0  MISS:          0
LLC WRITEBACK ACCESS:        559  HIT:          4  MISS:        555
Heartbeat CPU 0 instructions: 90000000 cycles: 35839882 heartbeat IPC: 1.80952 cumulative IPC: 1.88957 (Simulation time: 1 hr 3 min 7 sec) 

Region of Interest Statistics
cpu0_DTLB TOTAL     ACCESS:    8477114  HIT:    8474190  MISS:       2924
cpu0_DTLB LOAD      ACCESS:    8104530  HIT:    8101625  MISS:       2905
cpu0_DTLB RFO       ACCESS:     372584  HIT:     372565  MISS:         19
cpu0_DTLB PREFETCH  ACCESS:          0  HIT:          0  MISS:          0
cpu0_DTLB WRITEBACK ACCESS:          0  HIT:          0  MISS:          0
cpu0_ITLB TOTAL     ACCESS:      59727  HIT:      59727  MISS:          0
cpu0_ITLB LOAD      ACCESS:      59727  HIT:      59727  MISS:          0
cpu0_ITLB RFO       ACCESS:          0  HIT:          0  MISS:          0
cpu0_ITLB PREFETCH  ACCESS:          0  HIT:          0  MISS:          0
cpu0_ITLB WRITEBACK ACCESS:          0  HIT:          0  MISS:          0
cpu0_STLB TOTAL     ACCESS:       2924  HIT:       1741  MISS:       1183
cpu0_STLB LOAD      ACCESS:       2905  HIT:       1722  MISS:       1183
cpu0_STLB RFO       ACCESS:         19  HIT:         19  MISS:          0
cpu0_STLB PREFETCH  ACCESS:          0  HIT:          0  MISS:          0
cpu0_STLB WRITEBACK ACCESS:          0  HIT:          0  MISS:          0
cpu0_L1D TOTAL     ACCESS:   10697103  HIT:   10491016  MISS:     206087
cpu0_L1D LOAD      ACCESS:    9585048  HIT:    9379412  MISS:     205636
cpu0_L1D RFO       ACCESS:    1110872  HIT:    1110567  MISS:        305
cpu0_L1D PREFETCH  ACCESS:          0  HIT:          0  MISS:          0
cpu0_L1D WRITEBACK ACCESS:          0  HIT:          0  MISS:          0
cpu0_L2C TOTAL     ACCESS:     270337  HIT:     244363  MISS:      25974
cpu0_L2C LOAD      ACCESS:     205632  HIT:     179683  MISS:      25949
cpu0_L2C RFO       ACCESS:        305  HIT:        305  MISS:          0
cpu0_L2C PREFETCH  ACCESS:          0  HIT:          0  MISS:          0
cpu0_L2C WRITEBACK ACCESS:      64254  HIT:      64234  MISS:         20
LLC TOTAL     ACCESS:      26583  HIT:         86  MISS:      26497
LLC LOAD      ACCESS:      25949  HIT:         82  MISS:      25867
LLC RFO       ACCESS:          0  HIT:          0  MISS:          0
LLC PREFETCH  ACCESS:          0  HIT:          0  MISS:          0
LLC WRITEBACK ACCESS:        629  HIT:          4  MISS:        625
Heartbeat CPU 0 instructions: 92000000 cycles: 37012669 heartbeat IPC: 1.70534 cumulative IPC: 1.8799 (Simulation time: 1 hr 4 min 44 sec) 

Region of Interest Statistics
cpu0_DTLB TOTAL     ACCESS:    8903319  HIT:    8900194  MISS:       3125
cpu0_DTLB LOAD      ACCESS:    8511492  HIT:    8508388  MISS:       3104
cpu0_DTLB RFO       ACCESS:     391827  HIT:     391806  MISS:         21
cpu0_DTLB PREFETCH  ACCESS:          0  HIT:          0  MISS:          0
cpu0_DTLB WRITEBACK ACCESS:          0  HIT:          0  MISS:          0
cpu0_ITLB TOTAL     ACCESS:      71265  HIT:      71265  MISS:          0
cpu0_ITLB LOAD      ACCESS:      71265  HIT:      71265  MISS:          0
cpu0_ITLB RFO       ACCESS:          0  HIT:          0  MISS:          0
cpu0_ITLB PREFETCH  ACCESS:          0  HIT:          0  MISS:          0
cpu0_ITLB WRITEBACK ACCESS:          0  HIT:          0  MISS:          0
cpu0_STLB TOTAL     ACCESS:       3125  HIT:       1757  MISS:       1368
cpu0_STLB LOAD      ACCESS:       3104  HIT:       1736  MISS:       1368
cpu0_STLB RFO       ACCESS:         21  HIT:         21  MISS:          0
cpu0_STLB PREFETCH  ACCESS:          0  HIT:          0  MISS:          0
cpu0_STLB WRITEBACK ACCESS:          0  HIT:          0  MISS:          0
cpu0_L1D TOTAL     ACCESS:   11231664  HIT:   11023884  MISS:     207780
cpu0_L1D LOAD      ACCESS:   10062274  HIT:    9854947  MISS:     207327
cpu0_L1D RFO       ACCESS:    1168022  HIT:    1167717  MISS:        305
cpu0_L1D PREFETCH  ACCESS:          0  HIT:          0  MISS:          0
cpu0_L1D WRITEBACK ACCESS:          0  HIT:          0  MISS:          0
cpu0_L2C TOTAL     ACCESS:     272119  HIT:     244602  MISS:      27517
cpu0_L2C LOAD      ACCESS:     207323  HIT:     179831  MISS:      27492
cpu0_L2C RFO       ACCESS:        305  HIT:        305  MISS:          0
cpu0_L2C PREFETCH  ACCESS:          0  HIT:          0  MISS:          0
cpu0_L2C WRITEBACK ACCESS:      64343  HIT:      64323  MISS:         20
LLC TOTAL     ACCESS:      28230  HIT:         93  MISS:      28137
LLC LOAD      ACCESS:      27492  HIT:         89  MISS:      27403
LLC RFO       ACCESS:          0  HIT:          0  MISS:          0
LLC PREFETCH  ACCESS:          0  HIT:          0  MISS:          0
LLC WRITEBACK ACCESS:        733  HIT:          4  MISS:        729
Heartbeat CPU 0 instructions: 94000002 cycles: 38155182 heartbeat IPC: 1.75053 cumulative IPC: 1.8736 (Simulation time: 1 hr 6 min 18 sec) 

Region of Interest Statistics
cpu0_DTLB TOTAL     ACCESS:    9329120  HIT:    9325813  MISS:       3307
cpu0_DTLB LOAD      ACCESS:    8918288  HIT:    8915003  MISS:       3285
cpu0_DTLB RFO       ACCESS:     410832  HIT:     410810  MISS:         22
cpu0_DTLB PREFETCH  ACCESS:          0  HIT:          0  MISS:          0
cpu0_DTLB WRITEBACK ACCESS:          0  HIT:          0  MISS:          0
cpu0_ITLB TOTAL     ACCESS:      79415  HIT:      79415  MISS:          0
cpu0_ITLB LOAD      ACCESS:      79415  HIT:      79415  MISS:          0
cpu0_ITLB RFO       ACCESS:          0  HIT:          0  MISS:          0
cpu0_ITLB PREFETCH  ACCESS:          0  HIT:          0  MISS:          0
cpu0_ITLB WRITEBACK ACCESS:          0  HIT:          0  MISS:          0
cpu0_STLB TOTAL     ACCESS:       3307  HIT:       1812  MISS:       1495
cpu0_STLB LOAD      ACCESS:       3285  HIT:       1790  MISS:       1495
cpu0_STLB RFO       ACCESS:         22  HIT:         22  MISS:          0
cpu0_STLB PREFETCH  ACCESS:          0  HIT:          0  MISS:          0
cpu0_STLB WRITEBACK ACCESS:          0  HIT:          0  MISS:          0
cpu0_L1D TOTAL     ACCESS:   11766267  HIT:   11556194  MISS:     210073
cpu0_L1D LOAD      ACCESS:   10540258  HIT:   10330643  MISS:     209615
cpu0_L1D RFO       ACCESS:    1224514  HIT:    1224205  MISS:        309
cpu0_L1D PREFETCH  ACCESS:          0  HIT:          0  MISS:          0
cpu0_L1D WRITEBACK ACCESS:          0  HIT:          0  MISS:          0
cpu0_L2C TOTAL     ACCESS:     274598  HIT:     245420  MISS:      29178
cpu0_L2C LOAD      ACCESS:     209611  HIT:     180463  MISS:      29148
cpu0_L2C RFO       ACCESS:        309  HIT:        309  MISS:          0
cpu0_L2C PREFETCH  ACCESS:          0  HIT:          0  MISS:          0
cpu0_L2C WRITEBACK ACCESS:      64529  HIT:      64504  MISS:         25
LLC TOTAL     ACCESS:      29976  HIT:        142  MISS:      29834
LLC LOAD      ACCESS:      29148  HIT:        138  MISS:      29010
LLC RFO       ACCESS:          0  HIT:          0  MISS:          0
LLC PREFETCH  ACCESS:          0  HIT:          0  MISS:          0
LLC WRITEBACK ACCESS:        823  HIT:          4  MISS:        819
Heartbeat CPU 0 instructions: 96000001 cycles: 39224850 heartbeat IPC: 1.86974 cumulative IPC: 1.87344 (Simulation time: 1 hr 7 min 53 sec) 

Region of Interest Statistics
cpu0_DTLB TOTAL     ACCESS:    9753970  HIT:    9750371  MISS:       3599
cpu0_DTLB LOAD      ACCESS:    9324522  HIT:    9320946  MISS:       3576
cpu0_DTLB RFO       ACCESS:     429448  HIT:     429425  MISS:         23
cpu0_DTLB PREFETCH  ACCESS:          0  HIT:          0  MISS:          0
cpu0_DTLB WRITEBACK ACCESS:          0  HIT:          0  MISS:          0
cpu0_ITLB TOTAL     ACCESS:      81908  HIT:      81908  MISS:          0
cpu0_ITLB LOAD      ACCESS:      81908  HIT:      81908  MISS:          0
cpu0_ITLB RFO       ACCESS:          0  HIT:          0  MISS:          0
cpu0_ITLB PREFETCH  ACCESS:          0  HIT:          0  MISS:          0
cpu0_ITLB WRITEBACK ACCESS:          0  HIT:          0  MISS:          0
cpu0_STLB TOTAL     ACCESS:       3599  HIT:       2057  MISS:       1542
cpu0_STLB LOAD      ACCESS:       3576  HIT:       2034  MISS:       1542
cpu0_STLB RFO       ACCESS:         23  HIT:         23  MISS:          0
cpu0_STLB PREFETCH  ACCESS:          0  HIT:          0  MISS:          0
cpu0_STLB WRITEBACK ACCESS:          0  HIT:          0  MISS:          0
cpu0_L1D TOTAL     ACCESS:   12300387  HIT:   12077217  MISS:     223170
cpu0_L1D LOAD      ACCESS:   11019014  HIT:   10796347  MISS:     222667
cpu0_L1D RFO       ACCESS:    1279831  HIT:    1279480  MISS:        351
cpu0_L1D PREFETCH  ACCESS:          0  HIT:          0  MISS:          0
cpu0_L1D WRITEBACK ACCESS:          0  HIT:          0  MISS:          0
cpu0_L2C TOTAL     ACCESS:     291710  HIT:     260964  MISS:      30746
cpu0_L2C LOAD      ACCESS:     222663  HIT:     191948  MISS:      30715
cpu0_L2C RFO       ACCESS:        351  HIT:        351  MISS:          0
cpu0_L2C PREFETCH  ACCESS:          0  HIT:          0  MISS:          0
cpu0_L2C WRITEBACK ACCESS:      68544  HIT:      68519  MISS:         25
LLC TOTAL     ACCESS:      31583  HIT:        179  MISS:      31404
LLC LOAD      ACCESS:      30715  HIT:        175  MISS:      30540
LLC RFO       ACCESS:          0  HIT:          0  MISS:          0
LLC PREFETCH  ACCESS:          0  HIT:          0  MISS:          0
LLC WRITEBACK ACCESS:        862  HIT:          4  MISS:        858
Heartbeat CPU 0 instructions: 98000003 cycles: 40273757 heartbeat IPC: 1.90675 cumulative IPC: 1.8748 (Simulation time: 1 hr 9 min 30 sec) 

Region of Interest Statistics
cpu0_DTLB TOTAL     ACCESS:   10174695  HIT:   10170822  MISS:       3873
cpu0_DTLB LOAD      ACCESS:    9726696  HIT:    9722847  MISS:       3849
cpu0_DTLB RFO       ACCESS:     447999  HIT:     447975  MISS:         24
cpu0_DTLB PREFETCH  ACCESS:          0  HIT:          0  MISS:          0
cpu0_DTLB WRITEBACK ACCESS:          0  HIT:          0  MISS:          0
cpu0_ITLB TOTAL     ACCESS:      83422  HIT:      83422  MISS:          0
cpu0_ITLB LOAD      ACCESS:      83422  HIT:      83422  MISS:          0
cpu0_ITLB RFO       ACCESS:          0  HIT:          0  MISS:          0
cpu0_ITLB PREFETCH  ACCESS:          0  HIT:          0  MISS:          0
cpu0_ITLB WRITEBACK ACCESS:          0  HIT:          0  MISS:          0
cpu0_STLB TOTAL     ACCESS:       3873  HIT:       2285  MISS:       1588
cpu0_STLB LOAD      ACCESS:       3849  HIT:       2261  MISS:       1588
cpu0_STLB RFO       ACCESS:         24  HIT:         24  MISS:          0
cpu0_STLB PREFETCH  ACCESS:          0  HIT:          0  MISS:          0
cpu0_STLB WRITEBACK ACCESS:          0  HIT:          0  MISS:          0
cpu0_L1D TOTAL     ACCESS:   12834790  HIT:   12594637  MISS:     240153
cpu0_L1D LOAD      ACCESS:   11498104  HIT:   11258503  MISS:     239601
cpu0_L1D RFO       ACCESS:    1335098  HIT:    1334706  MISS:        392
cpu0_L1D PREFETCH  ACCESS:          0  HIT:          0  MISS:          0
cpu0_L1D WRITEBACK ACCESS:          0  HIT:          0  MISS:          0
cpu0_L2C TOTAL     ACCESS:     314279  HIT:     282212  MISS:      32067
cpu0_L2C LOAD      ACCESS:     239596  HIT:     207561  MISS:      32035
cpu0_L2C RFO       ACCESS:        392  HIT:        392  MISS:          0
cpu0_L2C PREFETCH  ACCESS:          0  HIT:          0  MISS:          0
cpu0_L2C WRITEBACK ACCESS:      74131  HIT:      74106  MISS:         25
LLC TOTAL     ACCESS:      32914  HIT:        179  MISS:      32735
LLC LOAD      ACCESS:      32035  HIT:        175  MISS:      31860
LLC RFO       ACCESS:          0  HIT:          0  MISS:          0
LLC PREFETCH  ACCESS:          0  HIT:          0  MISS:          0
LLC WRITEBACK ACCESS:        872  HIT:          4  MISS:        868
Heartbeat CPU 0 instructions: 100000000 cycles: 41322255 heartbeat IPC: 1.90749 cumulative IPC: 1.87609 (Simulation time: 1 hr 11 min 0 sec) 

Region of Interest Statistics
cpu0_DTLB TOTAL     ACCESS:   10597843  HIT:   10593671  MISS:       4172
cpu0_DTLB LOAD      ACCESS:   10131286  HIT:   10127139  MISS:       4147
cpu0_DTLB RFO       ACCESS:     466557  HIT:     466532  MISS:         25
cpu0_DTLB PREFETCH  ACCESS:          0  HIT:          0  MISS:          0
cpu0_DTLB WRITEBACK ACCESS:          0  HIT:          0  MISS:          0
cpu0_ITLB TOTAL     ACCESS:      85525  HIT:      85525  MISS:          0
cpu0_ITLB LOAD      ACCESS:      85525  HIT:      85525  MISS:          0
cpu0_ITLB RFO       ACCESS:          0  HIT:          0  MISS:          0
cpu0_ITLB PREFETCH  ACCESS:          0  HIT:          0  MISS:          0
cpu0_ITLB WRITEBACK ACCESS:          0  HIT:          0  MISS:          0
cpu0_STLB TOTAL     ACCESS:       4172  HIT:       2537  MISS:       1635
cpu0_STLB LOAD      ACCESS:       4147  HIT:       2512  MISS:       1635
cpu0_STLB RFO       ACCESS:         25  HIT:         25  MISS:          0
cpu0_STLB PREFETCH  ACCESS:          0  HIT:          0  MISS:          0
cpu0_STLB WRITEBACK ACCESS:          0  HIT:          0  MISS:          0
cpu0_L1D TOTAL     ACCESS:   13369474  HIT:   13114169  MISS:     255305
cpu0_L1D LOAD      ACCESS:   11977443  HIT:   11722740  MISS:     254703
cpu0_L1D RFO       ACCESS:    1390396  HIT:    1389962  MISS:        434
cpu0_L1D PREFETCH  ACCESS:          0  HIT:          0  MISS:          0
cpu0_L1D WRITEBACK ACCESS:          0  HIT:          0  MISS:          0
cpu0_L2C TOTAL     ACCESS:     334321  HIT:     301043  MISS:      33278
cpu0_L2C LOAD      ACCESS:     254698  HIT:     221452  MISS:      33246
cpu0_L2C RFO       ACCESS:        434  HIT:        434  MISS:          0
cpu0_L2C PREFETCH  ACCESS:          0  HIT:          0  MISS:          0
cpu0_L2C WRITEBACK ACCESS:      79021  HIT:      78996  MISS:         25
LLC TOTAL     ACCESS:      34133  HIT:        179  MISS:      33954
LLC LOAD      ACCESS:      33246  HIT:        175  MISS:      33071
LLC RFO       ACCESS:          0  HIT:          0  MISS:          0
LLC PREFETCH  ACCESS:          0  HIT:          0  MISS:          0
LLC WRITEBACK ACCESS:        880  HIT:          4  MISS:        876
Heartbeat CPU 0 instructions: 102000000 cycles: 42364100 heartbeat IPC: 1.91967 cumulative IPC: 1.87773 (Simulation time: 1 hr 12 min 33 sec) 

Region of Interest Statistics
cpu0_DTLB TOTAL     ACCESS:   11018118  HIT:   11013686  MISS:       4432
cpu0_DTLB LOAD      ACCESS:   10533027  HIT:   10528621  MISS:       4406
cpu0_DTLB RFO       ACCESS:     485091  HIT:     485065  MISS:         26
cpu0_DTLB PREFETCH  ACCESS:          0  HIT:          0  MISS:          0
cpu0_DTLB WRITEBACK ACCESS:          0  HIT:          0  MISS:          0
cpu0_ITLB TOTAL     ACCESS:      87115  HIT:      87115  MISS:          0
cpu0_ITLB LOAD      ACCESS:      87115  HIT:      87115  MISS:          0
cpu0_ITLB RFO       ACCESS:          0  HIT:          0  MISS:          0
cpu0_ITLB PREFETCH  ACCESS:          0  HIT:          0  MISS:          0
cpu0_ITLB WRITEBACK ACCESS:          0  HIT:          0  MISS:          0
cpu0_STLB TOTAL     ACCESS:       4432  HIT:       2753  MISS:       1679
cpu0_STLB LOAD      ACCESS:       4406  HIT:       2727  MISS:       1679
cpu0_STLB RFO       ACCESS:         26  HIT:         26  MISS:          0
cpu0_STLB PREFETCH  ACCESS:          0  HIT:          0  MISS:          0
cpu0_STLB WRITEBACK ACCESS:          0  HIT:          0  MISS:          0
cpu0_L1D TOTAL     ACCESS:   13904191  HIT:   13631582  MISS:     272609
cpu0_L1D LOAD      ACCESS:   12456845  HIT:   12184885  MISS:     271960
cpu0_L1D RFO       ACCESS:    1445667  HIT:    1445199  MISS:        468
cpu0_L1D PREFETCH  ACCESS:          0  HIT:          0  MISS:          0
cpu0_L1D WRITEBACK ACCESS:          0  HIT:          0  MISS:          0
cpu0_L2C TOTAL     ACCESS:     357317  HIT:     322806  MISS:      34511
cpu0_L2C LOAD      ACCESS:     271955  HIT:     237478  MISS:      34477
cpu0_L2C RFO       ACCESS:        468  HIT:        468  MISS:          0
cpu0_L2C PREFETCH  ACCESS:          0  HIT:          0  MISS:          0
cpu0_L2C WRITEBACK ACCESS:      84713  HIT:      84688  MISS:         25
LLC TOTAL     ACCESS:      35384  HIT:        181  MISS:      35203
LLC LOAD      ACCESS:      34477  HIT:        176  MISS:      34301
LLC RFO       ACCESS:          0  HIT:          0  MISS:          0
LLC PREFETCH  ACCESS:          0  HIT:          0  MISS:          0
LLC WRITEBACK ACCESS:        898  HIT:          4  MISS:        894
Heartbeat CPU 0 instructions: 104000003 cycles: 43404709 heartbeat IPC: 1.92195 cumulative IPC: 1.87933 (Simulation time: 1 hr 14 min 8 sec) 

Region of Interest Statistics
cpu0_DTLB TOTAL     ACCESS:   11438250  HIT:   11433555  MISS:       4695
cpu0_DTLB LOAD      ACCESS:   10934623  HIT:   10929955  MISS:       4668
cpu0_DTLB RFO       ACCESS:     503627  HIT:     503600  MISS:         27
cpu0_DTLB PREFETCH  ACCESS:          0  HIT:          0  MISS:          0
cpu0_DTLB WRITEBACK ACCESS:          0  HIT:          0  MISS:          0
cpu0_ITLB TOTAL     ACCESS:      89016  HIT:      89016  MISS:          0
cpu0_ITLB LOAD      ACCESS:      89016  HIT:      89016  MISS:          0
cpu0_ITLB RFO       ACCESS:          0  HIT:          0  MISS:          0
cpu0_ITLB PREFETCH  ACCESS:          0  HIT:          0  MISS:          0
cpu0_ITLB WRITEBACK ACCESS:          0  HIT:          0  MISS:          0
cpu0_STLB TOTAL     ACCESS:       4695  HIT:       2971  MISS:       1724
cpu0_STLB LOAD      ACCESS:       4668  HIT:       2944  MISS:       1724
cpu0_STLB RFO       ACCESS:         27  HIT:         27  MISS:          0
cpu0_STLB PREFETCH  ACCESS:          0  HIT:          0  MISS:          0
cpu0_STLB WRITEBACK ACCESS:          0  HIT:          0  MISS:          0
cpu0_L1D TOTAL     ACCESS:   14438902  HIT:   14148564  MISS:     290338
cpu0_L1D LOAD      ACCESS:   12936217  HIT:   12646575  MISS:     289642
cpu0_L1D RFO       ACCESS:    1500961  HIT:    1500452  MISS:        509
cpu0_L1D PREFETCH  ACCESS:          0  HIT:          0  MISS:          0
cpu0_L1D WRITEBACK ACCESS:          0  HIT:          0  MISS:          0
cpu0_L2C TOTAL     ACCESS:     380798  HIT:     345041  MISS:      35757
cpu0_L2C LOAD      ACCESS:     289637  HIT:     253914  MISS:      35723
cpu0_L2C RFO       ACCESS:        509  HIT:        509  MISS:          0
cpu0_L2C PREFETCH  ACCESS:          0  HIT:          0  MISS:          0
cpu0_L2C WRITEBACK ACCESS:      90465  HIT:      90440  MISS:         25
LLC TOTAL     ACCESS:      36650  HIT:        181  MISS:      36469
LLC LOAD      ACCESS:      35723  HIT:        176  MISS:      35547
LLC RFO       ACCESS:          0  HIT:          0  MISS:          0
LLC PREFETCH  ACCESS:          0  HIT:          0  MISS:          0
LLC WRITEBACK ACCESS:        918  HIT:          4  MISS:        914
Heartbeat CPU 0 instructions: 106000003 cycles: 44444694 heartbeat IPC: 1.9231 cumulative IPC: 1.88086 (Simulation time: 1 hr 15 min 42 sec) 

Region of Interest Statistics
cpu0_DTLB TOTAL     ACCESS:   11858657  HIT:   11853739  MISS:       4918
cpu0_DTLB LOAD      ACCESS:   11336488  HIT:   11331599  MISS:       4889
cpu0_DTLB RFO       ACCESS:     522169  HIT:     522140  MISS:         29
cpu0_DTLB PREFETCH  ACCESS:          0  HIT:          0  MISS:          0
cpu0_DTLB WRITEBACK ACCESS:          0  HIT:          0  MISS:          0
cpu0_ITLB TOTAL     ACCESS:      90623  HIT:      90623  MISS:          0
cpu0_ITLB LOAD      ACCESS:      90623  HIT:      90623  MISS:          0
cpu0_ITLB RFO       ACCESS:          0  HIT:          0  MISS:          0
cpu0_ITLB PREFETCH  ACCESS:          0  HIT:          0  MISS:          0
cpu0_ITLB WRITEBACK ACCESS:          0  HIT:          0  MISS:          0
cpu0_STLB TOTAL     ACCESS:       4918  HIT:       3149  MISS:       1769
cpu0_STLB LOAD      ACCESS:       4889  HIT:       3120  MISS:       1769
cpu0_STLB RFO       ACCESS:         29  HIT:         29  MISS:          0
cpu0_STLB PREFETCH  ACCESS:          0  HIT:          0  MISS:          0
cpu0_STLB WRITEBACK ACCESS:          0  HIT:          0  MISS:          0
cpu0_L1D TOTAL     ACCESS:   14973853  HIT:   14666034  MISS:     307819
cpu0_L1D LOAD      ACCESS:   13415842  HIT:   13108758  MISS:     307084
cpu0_L1D RFO       ACCESS:    1556242  HIT:    1555702  MISS:        540
cpu0_L1D PREFETCH  ACCESS:          0  HIT:          0  MISS:          0
cpu0_L1D WRITEBACK ACCESS:          0  HIT:          0  MISS:          0
cpu0_L2C TOTAL     ACCESS:     403833  HIT:     366840  MISS:      36993
cpu0_L2C LOAD      ACCESS:     307078  HIT:     270119  MISS:      36959
cpu0_L2C RFO       ACCESS:        540  HIT:        540  MISS:          0
cpu0_L2C PREFETCH  ACCESS:          0  HIT:          0  MISS:          0
cpu0_L2C WRITEBACK ACCESS:      96020  HIT:      95995  MISS:         25
LLC TOTAL     ACCESS:      37914  HIT:        182  MISS:      37732
LLC LOAD      ACCESS:      36959  HIT:        177  MISS:      36782
LLC RFO       ACCESS:          0  HIT:          0  MISS:          0
LLC PREFETCH  ACCESS:          0  HIT:          0  MISS:          0
LLC WRITEBACK ACCESS:        946  HIT:          4  MISS:        942
Heartbeat CPU 0 instructions: 108000000 cycles: 45485554 heartbeat IPC: 1.92149 cumulative IPC: 1.88223 (Simulation time: 1 hr 17 min 19 sec) 

Region of Interest Statistics
cpu0_DTLB TOTAL     ACCESS:   12278591  HIT:   12273471  MISS:       5120
cpu0_DTLB LOAD      ACCESS:   11737885  HIT:   11732795  MISS:       5090
cpu0_DTLB RFO       ACCESS:     540706  HIT:     540676  MISS:         30
cpu0_DTLB PREFETCH  ACCESS:          0  HIT:          0  MISS:          0
cpu0_DTLB WRITEBACK ACCESS:          0  HIT:          0  MISS:          0
cpu0_ITLB TOTAL     ACCESS:      92190  HIT:      92190  MISS:          0
cpu0_ITLB LOAD      ACCESS:      92190  HIT:      92190  MISS:          0
cpu0_ITLB RFO       ACCESS:          0  HIT:          0  MISS:          0
cpu0_ITLB PREFETCH  ACCESS:          0  HIT:          0  MISS:          0
cpu0_ITLB WRITEBACK ACCESS:          0  HIT:          0  MISS:          0
cpu0_STLB TOTAL     ACCESS:       5120  HIT:       3310  MISS:       1810
cpu0_STLB LOAD      ACCESS:       5090  HIT:       3280  MISS:       1810
cpu0_STLB RFO       ACCESS:         30  HIT:         30  MISS:          0
cpu0_STLB PREFETCH  ACCESS:          0  HIT:          0  MISS:          0
cpu0_STLB WRITEBACK ACCESS:          0  HIT:          0  MISS:          0
cpu0_L1D TOTAL     ACCESS:   15508474  HIT:   15181393  MISS:     327081
cpu0_L1D LOAD      ACCESS:   13895167  HIT:   13568864  MISS:     326303
cpu0_L1D RFO       ACCESS:    1611497  HIT:    1610924  MISS:        573
cpu0_L1D PREFETCH  ACCESS:          0  HIT:          0  MISS:          0
cpu0_L1D WRITEBACK ACCESS:          0  HIT:          0  MISS:          0
cpu0_L2C TOTAL     ACCESS:     429337  HIT:     391037  MISS:      38300
cpu0_L2C LOAD      ACCESS:     326295  HIT:     288029  MISS:      38266
cpu0_L2C RFO       ACCESS:        573  HIT:        573  MISS:          0
cpu0_L2C PREFETCH  ACCESS:          0  HIT:          0  MISS:          0
cpu0_L2C WRITEBACK ACCESS:     102264  HIT:     102239  MISS:         25
LLC TOTAL     ACCESS:      39230  HIT:        182  MISS:      39048
LLC LOAD      ACCESS:      38266  HIT:        177  MISS:      38089
LLC RFO       ACCESS:          0  HIT:          0  MISS:          0
LLC PREFETCH  ACCESS:          0  HIT:          0  MISS:          0
LLC WRITEBACK ACCESS:        955  HIT:          4  MISS:        951
Heartbeat CPU 0 instructions: 110000000 cycles: 46525977 heartbeat IPC: 1.9223 cumulative IPC: 1.88354 (Simulation time: 1 hr 18 min 55 sec) 

Region of Interest Statistics
cpu0_DTLB TOTAL     ACCESS:   12700163  HIT:   12694908  MISS:       5255
cpu0_DTLB LOAD      ACCESS:   12140928  HIT:   12135704  MISS:       5224
cpu0_DTLB RFO       ACCESS:     559235  HIT:     559204  MISS:         31
cpu0_DTLB PREFETCH  ACCESS:          0  HIT:          0  MISS:          0
cpu0_DTLB WRITEBACK ACCESS:          0  HIT:          0  MISS:          0
cpu0_ITLB TOTAL     ACCESS:      93659  HIT:      93659  MISS:          0
cpu0_ITLB LOAD      ACCESS:      93659  HIT:      93659  MISS:          0
cpu0_ITLB RFO       ACCESS:          0  HIT:          0  MISS:          0
cpu0_ITLB PREFETCH  ACCESS:          0  HIT:          0  MISS:          0
cpu0_ITLB WRITEBACK ACCESS:          0  HIT:          0  MISS:          0
cpu0_STLB TOTAL     ACCESS:       5255  HIT:       3408  MISS:       1847
cpu0_STLB LOAD      ACCESS:       5224  HIT:       3377  MISS:       1847
cpu0_STLB RFO       ACCESS:         31  HIT:         31  MISS:          0
cpu0_STLB PREFETCH  ACCESS:          0  HIT:          0  MISS:          0
cpu0_STLB WRITEBACK ACCESS:          0  HIT:          0  MISS:          0
cpu0_L1D TOTAL     ACCESS:   16043148  HIT:   15697137  MISS:     346011
cpu0_L1D LOAD      ACCESS:   14374539  HIT:   14029351  MISS:     345188
cpu0_L1D RFO       ACCESS:    1666762  HIT:    1666156  MISS:        606
cpu0_L1D PREFETCH  ACCESS:          0  HIT:          0  MISS:          0
cpu0_L1D WRITEBACK ACCESS:          0  HIT:          0  MISS:          0
cpu0_L2C TOTAL     ACCESS:     454429  HIT:     414814  MISS:      39615
cpu0_L2C LOAD      ACCESS:     345180  HIT:     305599  MISS:      39581
cpu0_L2C RFO       ACCESS:        606  HIT:        606  MISS:          0
cpu0_L2C PREFETCH  ACCESS:          0  HIT:          0  MISS:          0
cpu0_L2C WRITEBACK ACCESS:     108426  HIT:     108401  MISS:         25
LLC TOTAL     ACCESS:      40551  HIT:        182  MISS:      40369
LLC LOAD      ACCESS:      39581  HIT:        177  MISS:      39404
LLC RFO       ACCESS:          0  HIT:          0  MISS:          0
LLC PREFETCH  ACCESS:          0  HIT:          0  MISS:          0
LLC WRITEBACK ACCESS:        961  HIT:          4  MISS:        957
Heartbeat CPU 0 instructions: 112000003 cycles: 47551279 heartbeat IPC: 1.95065 cumulative IPC: 1.88563 (Simulation time: 1 hr 20 min 28 sec) 

Region of Interest Statistics
cpu0_DTLB TOTAL     ACCESS:   13120587  HIT:   13115212  MISS:       5375
cpu0_DTLB LOAD      ACCESS:   12542833  HIT:   12537491  MISS:       5342
cpu0_DTLB RFO       ACCESS:     577754  HIT:     577721  MISS:         33
cpu0_DTLB PREFETCH  ACCESS:          0  HIT:          0  MISS:          0
cpu0_DTLB WRITEBACK ACCESS:          0  HIT:          0  MISS:          0
cpu0_ITLB TOTAL     ACCESS:      95375  HIT:      95375  MISS:          0
cpu0_ITLB LOAD      ACCESS:      95375  HIT:      95375  MISS:          0
cpu0_ITLB RFO       ACCESS:          0  HIT:          0  MISS:          0
cpu0_ITLB PREFETCH  ACCESS:          0  HIT:          0  MISS:          0
cpu0_ITLB WRITEBACK ACCESS:          0  HIT:          0  MISS:          0
cpu0_STLB TOTAL     ACCESS:       5375  HIT:       3500  MISS:       1875
cpu0_STLB LOAD      ACCESS:       5342  HIT:       3467  MISS:       1875
cpu0_STLB RFO       ACCESS:         33  HIT:         33  MISS:          0
cpu0_STLB PREFETCH  ACCESS:          0  HIT:          0  MISS:          0
cpu0_STLB WRITEBACK ACCESS:          0  HIT:          0  MISS:          0
cpu0_L1D TOTAL     ACCESS:   16577942  HIT:   16212742  MISS:     365200
cpu0_L1D LOAD      ACCESS:   14854013  HIT:   14489676  MISS:     364337
cpu0_L1D RFO       ACCESS:    1722054  HIT:    1721418  MISS:        636
cpu0_L1D PREFETCH  ACCESS:          0  HIT:          0  MISS:          0
cpu0_L1D WRITEBACK ACCESS:          0  HIT:          0  MISS:          0
cpu0_L2C TOTAL     ACCESS:     479935  HIT:     439117  MISS:      40818
cpu0_L2C LOAD      ACCESS:     364329  HIT:     323545  MISS:      40784
cpu0_L2C RFO       ACCESS:        636  HIT:        636  MISS:          0
cpu0_L2C PREFETCH  ACCESS:          0  HIT:          0  MISS:          0
cpu0_L2C WRITEBACK ACCESS:     114743  HIT:     114718  MISS:         25
LLC TOTAL     ACCESS:      41770  HIT:        182  MISS:      41588
LLC LOAD      ACCESS:      40784  HIT:        177  MISS:      40607
LLC RFO       ACCESS:          0  HIT:          0  MISS:          0
LLC PREFETCH  ACCESS:          0  HIT:          0  MISS:          0
LLC WRITEBACK ACCESS:        977  HIT:          4  MISS:        973
Heartbeat CPU 0 instructions: 114000001 cycles: 48574470 heartbeat IPC: 1.95467 cumulative IPC: 1.88771 (Simulation time: 1 hr 22 min 3 sec) 

Region of Interest Statistics
cpu0_DTLB TOTAL     ACCESS:   13542754  HIT:   13537288  MISS:       5466
cpu0_DTLB LOAD      ACCESS:   12946480  HIT:   12941048  MISS:       5432
cpu0_DTLB RFO       ACCESS:     596274  HIT:     596240  MISS:         34
cpu0_DTLB PREFETCH  ACCESS:          0  HIT:          0  MISS:          0
cpu0_DTLB WRITEBACK ACCESS:          0  HIT:          0  MISS:          0
cpu0_ITLB TOTAL     ACCESS:      96893  HIT:      96893  MISS:          0
cpu0_ITLB LOAD      ACCESS:      96893  HIT:      96893  MISS:          0
cpu0_ITLB RFO       ACCESS:          0  HIT:          0  MISS:          0
cpu0_ITLB PREFETCH  ACCESS:          0  HIT:          0  MISS:          0
cpu0_ITLB WRITEBACK ACCESS:          0  HIT:          0  MISS:          0
cpu0_STLB TOTAL     ACCESS:       5466  HIT:       3569  MISS:       1897
cpu0_STLB LOAD      ACCESS:       5432  HIT:       3535  MISS:       1897
cpu0_STLB RFO       ACCESS:         34  HIT:         34  MISS:          0
cpu0_STLB PREFETCH  ACCESS:          0  HIT:          0  MISS:          0
cpu0_STLB WRITEBACK ACCESS:          0  HIT:          0  MISS:          0
cpu0_L1D TOTAL     ACCESS:   17112913  HIT:   16725965  MISS:     386948
cpu0_L1D LOAD      ACCESS:   15333685  HIT:   14947643  MISS:     386042
cpu0_L1D RFO       ACCESS:    1777331  HIT:    1776672  MISS:        659
cpu0_L1D PREFETCH  ACCESS:          0  HIT:          0  MISS:          0
cpu0_L1D WRITEBACK ACCESS:          0  HIT:          0  MISS:          0
cpu0_L2C TOTAL     ACCESS:     509072  HIT:     467033  MISS:      42039
cpu0_L2C LOAD      ACCESS:     386034  HIT:     344029  MISS:      42005
cpu0_L2C RFO       ACCESS:        659  HIT:        659  MISS:          0
cpu0_L2C PREFETCH  ACCESS:          0  HIT:          0  MISS:          0
cpu0_L2C WRITEBACK ACCESS:     122132  HIT:     122107  MISS:         25
LLC TOTAL     ACCESS:      43006  HIT:        186  MISS:      42820
LLC LOAD      ACCESS:      42005  HIT:        181  MISS:      41824
LLC RFO       ACCESS:          0  HIT:          0  MISS:          0
LLC PREFETCH  ACCESS:          0  HIT:          0  MISS:          0
LLC WRITEBACK ACCESS:        992  HIT:          4  MISS:        988
Heartbeat CPU 0 instructions: 116000000 cycles: 49593813 heartbeat IPC: 1.96205 cumulative IPC: 1.88988 (Simulation time: 1 hr 23 min 35 sec) 

Region of Interest Statistics
cpu0_DTLB TOTAL     ACCESS:   13965187  HIT:   13959641  MISS:       5546
cpu0_DTLB LOAD      ACCESS:   13350381  HIT:   13344870  MISS:       5511
cpu0_DTLB RFO       ACCESS:     614806  HIT:     614771  MISS:         35
cpu0_DTLB PREFETCH  ACCESS:          0  HIT:          0  MISS:          0
[...]
cpu0_DTLB LOAD      ACCESS:  286956314  HIT:  286393485  MISS:     562829
cpu0_DTLB RFO       ACCESS:   18974495  HIT:   18964377  MISS:      10118
cpu0_DTLB PREFETCH  ACCESS:          0  HIT:          0  MISS:          0
cpu0_DTLB WRITEBACK ACCESS:          0  HIT:          0  MISS:          0
cpu0_ITLB TOTAL     ACCESS:    7761040  HIT:    7761016  MISS:         24
cpu0_ITLB LOAD      ACCESS:    7761040  HIT:    7761016  MISS:         24
cpu0_ITLB RFO       ACCESS:          0  HIT:          0  MISS:          0
cpu0_ITLB PREFETCH  ACCESS:          0  HIT:          0  MISS:          0
cpu0_ITLB WRITEBACK ACCESS:          0  HIT:          0  MISS:          0
cpu0_L1I TOTAL     ACCESS:   18927497  HIT:   18927019  MISS:        478
cpu0_L1I LOAD      ACCESS:   18927497  HIT:   18927019  MISS:        478
cpu0_L1I RFO       ACCESS:          0  HIT:          0  MISS:          0
cpu0_L1I PREFETCH  ACCESS:          0  HIT:          0  MISS:          0
cpu0_L1I WRITEBACK ACCESS:          0  HIT:          0  MISS:          0
cpu0_STLB TOTAL     ACCESS:     572971  HIT:     540765  MISS:      32206
cpu0_STLB LOAD      ACCESS:     562853  HIT:     532210  MISS:      30643
cpu0_STLB RFO       ACCESS:      10118  HIT:       8555  MISS:       1563
cpu0_STLB PREFETCH  ACCESS:          0  HIT:          0  MISS:          0
cpu0_STLB WRITEBACK ACCESS:          0  HIT:          0  MISS:          0
cpu0_L1D TOTAL     ACCESS:  393899153  HIT:  381507098  MISS:   12392055
cpu0_L1D LOAD      ACCESS:  339381831  HIT:  327115034  MISS:   12266797
cpu0_L1D RFO       ACCESS:   54486259  HIT:   54371314  MISS:     114945
cpu0_L1D PREFETCH  ACCESS:          0  HIT:          0  MISS:          0
cpu0_L1D WRITEBACK ACCESS:          0  HIT:          0  MISS:          0
cpu0_L2C TOTAL     ACCESS:   16527188  HIT:   14635705  MISS:    1891483
cpu0_L2C LOAD      ACCESS:   12267225  HIT:   10481276  MISS:    1785949
cpu0_L2C RFO       ACCESS:     114945  HIT:      10338  MISS:     104607
cpu0_L2C PREFETCH  ACCESS:          0  HIT:          0  MISS:          0
cpu0_L2C WRITEBACK ACCESS:    4134705  HIT:    4134031  MISS:        674
LLC TOTAL     ACCESS:    2308245  HIT:      46547  MISS:    2261698
LLC LOAD      ACCESS:    1785948  HIT:      33357  MISS:    1752591
LLC RFO       ACCESS:     104607  HIT:        177  MISS:     104430
LLC PREFETCH  ACCESS:          0  HIT:          0  MISS:          0
LLC WRITEBACK ACCESS:     417437  HIT:      13008  MISS:     404429
Heartbeat CPU 0 instructions: 1550000001 cycles: 863618083 heartbeat IPC: 1.91047 cumulative IPC: 1.76689 (Simulation time: 16 hr 50 min 46 sec) 

Region of Interest Statistics
cpu0_DTLB TOTAL     ACCESS:  306350711  HIT:  305776489  MISS:     574222
cpu0_DTLB LOAD      ACCESS:  287357710  HIT:  286793618  MISS:     564092
cpu0_DTLB RFO       ACCESS:   18993001  HIT:   18982871  MISS:      10130
cpu0_DTLB PREFETCH  ACCESS:          0  HIT:          0  MISS:          0
cpu0_DTLB WRITEBACK ACCESS:          0  HIT:          0  MISS:          0
cpu0_ITLB TOTAL     ACCESS:    7761761  HIT:    7761737  MISS:         24
cpu0_ITLB LOAD      ACCESS:    7761761  HIT:    7761737  MISS:         24
cpu0_ITLB RFO       ACCESS:          0  HIT:          0  MISS:          0
cpu0_ITLB PREFETCH  ACCESS:          0  HIT:          0  MISS:          0
cpu0_ITLB WRITEBACK ACCESS:          0  HIT:          0  MISS:          0
cpu0_L1I TOTAL     ACCESS:   18927497  HIT:   18927019  MISS:        478
cpu0_L1I LOAD      ACCESS:   18927497  HIT:   18927019  MISS:        478
cpu0_L1I RFO       ACCESS:          0  HIT:          0  MISS:          0
cpu0_L1I PREFETCH  ACCESS:          0  HIT:          0  MISS:          0
cpu0_L1I WRITEBACK ACCESS:          0  HIT:          0  MISS:          0
cpu0_STLB TOTAL     ACCESS:     574246  HIT:     542004  MISS:      32242
cpu0_STLB LOAD      ACCESS:     564116  HIT:     533437  MISS:      30679
cpu0_STLB RFO       ACCESS:      10130  HIT:       8567  MISS:       1563
cpu0_STLB PREFETCH  ACCESS:          0  HIT:          0  MISS:          0
cpu0_STLB WRITEBACK ACCESS:          0  HIT:          0  MISS:          0
cpu0_L1D TOTAL     ACCESS:  394433031  HIT:  382017882  MISS:   12415149
cpu0_L1D LOAD      ACCESS:  339860536  HIT:  327570684  MISS:   12289852
cpu0_L1D RFO       ACCESS:   54541397  HIT:   54426436  MISS:     114961
cpu0_L1D PREFETCH  ACCESS:          0  HIT:          0  MISS:          0
cpu0_L1D WRITEBACK ACCESS:          0  HIT:          0  MISS:          0
cpu0_L2C TOTAL     ACCESS:   16558047  HIT:   14665100  MISS:    1892947
cpu0_L2C LOAD      ACCESS:   12290279  HIT:   10502866  MISS:    1787413
cpu0_L2C RFO       ACCESS:     114961  HIT:      10354  MISS:     104607
cpu0_L2C PREFETCH  ACCESS:          0  HIT:          0  MISS:          0
cpu0_L2C WRITEBACK ACCESS:    4142471  HIT:    4141797  MISS:        674
LLC TOTAL     ACCESS:    2309769  HIT:      46562  MISS:    2263207
LLC LOAD      ACCESS:    1787412  HIT:      33363  MISS:    1754049
LLC RFO       ACCESS:     104607  HIT:        177  MISS:     104430
LLC PREFETCH  ACCESS:          0  HIT:          0  MISS:          0
LLC WRITEBACK ACCESS:     417497  HIT:      13017  MISS:     404480
Finished CPU 0 instructions: 1500000001 cycles: 848947042 cumulative IPC: 1.76689 (Simulation time: 16 hr 50 min 46 sec) 

ChampSim completed all CPUs

Region of Interest Statistics

CPU 0 cumulative IPC: 1.76689 instructions: 1500000001 cycles: 848947042
cpu0_DTLB TOTAL     ACCESS:  306350711  HIT:  305776489  MISS:     574222
cpu0_DTLB LOAD      ACCESS:  287357710  HIT:  286793618  MISS:     564092
cpu0_DTLB RFO       ACCESS:   18993001  HIT:   18982871  MISS:      10130
cpu0_DTLB PREFETCH  ACCESS:          0  HIT:          0  MISS:          0
cpu0_DTLB WRITEBACK ACCESS:          0  HIT:          0  MISS:          0
cpu0_DTLB TRANSLATION ACCESS:          0  HIT:          0  MISS:          0
cpu0_DTLB PREFETCH  REQUESTED:          0  ISSUED:          0  USEFUL:          0  USELESS:          0
cpu0_DTLB AVERAGE MISS LATENCY: 23.3697 cycles
cpu0_ITLB TOTAL     ACCESS:    7761761  HIT:    7761737  MISS:         24
cpu0_ITLB LOAD      ACCESS:    7761761  HIT:    7761737  MISS:         24
cpu0_ITLB RFO       ACCESS:          0  HIT:          0  MISS:          0
cpu0_ITLB PREFETCH  ACCESS:          0  HIT:          0  MISS:          0
cpu0_ITLB WRITEBACK ACCESS:          0  HIT:          0  MISS:          0
cpu0_ITLB TRANSLATION ACCESS:          0  HIT:          0  MISS:          0
cpu0_ITLB PREFETCH  REQUESTED:          0  ISSUED:          0  USEFUL:          0  USELESS:          0
cpu0_ITLB AVERAGE MISS LATENCY: 313.583 cycles
cpu0_L1I TOTAL     ACCESS:   18927497  HIT:   18927019  MISS:        478
cpu0_L1I LOAD      ACCESS:   18927497  HIT:   18927019  MISS:        478
cpu0_L1I RFO       ACCESS:          0  HIT:          0  MISS:          0
cpu0_L1I PREFETCH  ACCESS:          0  HIT:          0  MISS:          0
cpu0_L1I WRITEBACK ACCESS:          0  HIT:          0  MISS:          0
cpu0_L1I TRANSLATION ACCESS:          0  HIT:          0  MISS:          0
cpu0_L1I PREFETCH  REQUESTED:          0  ISSUED:          0  USEFUL:          0  USELESS:          0
cpu0_L1I AVERAGE MISS LATENCY: 224.674 cycles
cpu0_STLB TOTAL     ACCESS:     574246  HIT:     542004  MISS:      32242
cpu0_STLB LOAD      ACCESS:     564116  HIT:     533437  MISS:      30679
cpu0_STLB RFO       ACCESS:      10130  HIT:       8567  MISS:       1563
cpu0_STLB PREFETCH  ACCESS:          0  HIT:          0  MISS:          0
cpu0_STLB WRITEBACK ACCESS:          0  HIT:          0  MISS:          0
cpu0_STLB TRANSLATION ACCESS:          0  HIT:          0  MISS:          0
cpu0_STLB PREFETCH  REQUESTED:          0  ISSUED:          0  USEFUL:          0  USELESS:          0
cpu0_STLB AVERAGE MISS LATENCY: 255.633 cycles
cpu0_L1D TOTAL     ACCESS:  394433031  HIT:  382017882  MISS:   12415149
cpu0_L1D LOAD      ACCESS:  339860536  HIT:  327570684  MISS:   12289852
cpu0_L1D RFO       ACCESS:   54541397  HIT:   54426436  MISS:     114961
cpu0_L1D PREFETCH  ACCESS:          0  HIT:          0  MISS:          0
cpu0_L1D WRITEBACK ACCESS:          0  HIT:          0  MISS:          0
cpu0_L1D TRANSLATION ACCESS:      31098  HIT:      20762  MISS:      10336
cpu0_L1D PREFETCH  REQUESTED:          0  ISSUED:          0  USEFUL:          0  USELESS:          0
cpu0_L1D AVERAGE MISS LATENCY: 56.1019 cycles
cpu0_L2C TOTAL     ACCESS:   16558047  HIT:   14665100  MISS:    1892947
cpu0_L2C LOAD      ACCESS:   12290279  HIT:   10502866  MISS:    1787413
cpu0_L2C RFO       ACCESS:     114961  HIT:      10354  MISS:     104607
cpu0_L2C PREFETCH  ACCESS:          0  HIT:          0  MISS:          0
cpu0_L2C WRITEBACK ACCESS:    4142471  HIT:    4141797  MISS:        674
cpu0_L2C TRANSLATION ACCESS:      10336  HIT:      10083  MISS:        253
cpu0_L2C PREFETCH  REQUESTED:          0  ISSUED:          0  USEFUL:          0  USELESS:          0
cpu0_L2C AVERAGE MISS LATENCY: 295.748 cycles
LLC TOTAL     ACCESS:    2309769  HIT:      46562  MISS:    2263207
LLC LOAD      ACCESS:    1787412  HIT:      33363  MISS:    1754049
LLC RFO       ACCESS:     104607  HIT:        177  MISS:     104430
LLC PREFETCH  ACCESS:          0  HIT:          0  MISS:          0
LLC WRITEBACK ACCESS:     417497  HIT:      13017  MISS:     404480
LLC TRANSLATION ACCESS:        253  HIT:          5  MISS:        248
LLC PREFETCH  REQUESTED:          0  ISSUED:          0  USEFUL:          0  USELESS:          0
LLC AVERAGE MISS LATENCY: 229.806 cycles
~~~~~~~~~~Reuse Distance Profiler output~~~~~~~~~~
0	0	0
1	0	0
2	0	0
3	0	0
4	0	0
5	0	0
6	0	0
7	0	0
8	0	0
9	0	0
10	0	0
11	0	0
12	0	0
13	0	0
14	0	0
15	0	0
16	0	0
17	0	0
18	0	0
19	0	0
20	0	0
21	0	0
22	0	0
23	0	0
24	0	0
25	0	0
26	0	0
27	0	0
28	0	0
29	0	0
30	0	0
31	0	0
32	0	0
33	0	0
34	0	0
35	0	0
36	0	0
37	0	0
38	0	0
39	0	0
40	0	0
41	0	0
42	0	0
43	0	0
44	0	0
45	0	0
46	0	0
47	0	0
48	0	0
49	0	0
50	0	0
51	0	0
52	0	0
53	0	0
54	0	0
55	0	0
56	0	0
57	0	0
58	0	0
59	0	0
60	0	0
61	0	0
62	0	0
63	0	0
64	0	0
66	0	0
68	0	0
70	0	0
72	0	0
74	0	0
76	0	0
78	0	0
80	0	0
82	0	0
84	0	0
86	0	0
88	0	0
90	0	0
92	0	0
94	0	0
96	0	0
98	0	0
100	0	0
102	0	0
104	0	0
106	0	0
108	0	0
110	0	0
112	0	0
114	0	0
116	0	0
118	0	0
120	0	0
122	0	0
124	0	0
126	0	0
128	0	0
132	0	0
136	0	0
140	0	0
144	0	0
148	0	0
152	0	0
156	0	0
160	0	0
164	0	0
168	0	0
172	0	0
176	0	0
180	0	0
184	0	0
188	0	0
192	0	0
196	0	0
200	0	0
204	0	0
208	0	0
212	0	0
216	0	0
220	0	0
224	0	0
228	0	0
232	0	0
236	0	0
240	0	0
244	0	0
248	0	0
252	0	0
256	0	0
264	0	0
272	0	0
280	0	0
288	0	0
296	0	0
304	0	0
312	0	0
320	0	0
328	0	0
336	0	0
344	0	0
352	0	0
360	0	0
368	0	0
376	0	0
384	0	0
392	0	0
400	0	0
408	0	0
416	0	0
424	0	0
432	0	0
440	0	0
448	0	0
456	0	0
464	0	0
472	0	0
480	0	0
488	0	0
496	0	0
504	0	0
512	0	0
528	0	0
544	0	0
560	0	0
576	0	0
592	0	0
608	0	0
624	0	0
640	0	0
656	0	0
672	0	0
688	0	0
704	0	0
720	0	0
736	0	0
752	0	0
768	0	0
784	0	0
800	0	0
816	0	0
832	0	0
848	0	0
864	0	0
880	0	0
896	0	0
912	0	0
928	0	0
944	0	0
960	0	0
976	0	0
992	0	0
1008	0	0
1024	0	0
1056	0	0
1088	0	0
1120	0	0
1152	0	0
1184	0	0
1216	0	0
1248	0	0
1280	0	0
1312	0	0
1344	0	0
1376	0	0
1408	0	0
1440	0	0
1472	0	0
1504	0	0
1536	0	0
1568	0	0
1600	0	0
1632	0	0
1664	0	0
1696	0	0
1728	0	0
1760	0	0
1792	0	0
1824	0	0
1856	0	0
1888	0	0
1920	0	0
1952	0	0
1984	0	0
2016	0	0
2048	0	0
2112	0	0
2176	0	0
2240	0	0
2304	0	0
2368	0	0
2432	0	0
2496	0	0
2560	0	0
2624	0	0
2688	0	0
2752	0	0
2816	0	0
2880	0	0
2944	0	0
3008	0	0
3072	0	0
3136	0	0
3200	0	0
3264	0	0
3328	0	0
3392	0	0
3456	0	0
3520	0	0
3584	0	0
3648	0	0
3712	0	0
3776	0	0
3840	0	0
3904	0	0
3968	0	0
4032	0	0
4096	0	0
4224	0	0
4352	0	0
4480	0	0
4608	0	0
4736	0	0
4864	0	0
4992	0	0
5120	0	0
5248	0	0
5376	0	0
5504	0	0
5632	0	0
5760	0	0
5888	0	0
6016	0	0
6144	0	0
6272	0	0
6400	0	0
6528	0	0
6656	0	0
6784	0	0
6912	0	0
7040	0	0
7168	0	0
7296	0	0
7424	0	0
7552	0	0
7680	0	0
7808	0	0
7936	0	0
8064	0	0
8192	0	0
8448	0	0
8704	0	0
8960	0	0
9216	0	0
9472	0	0
9728	0	0
9984	0	0
10240	0	0
10496	0	0
10752	0	0
11008	0	0
11264	0	0
11520	0	0
11776	0	0
12032	0	0
12288	0	0
12544	0	0
12800	0	0
13056	0	0
13312	0	0
13568	0	0
13824	0	0
14080	0	0
14336	0	0
14592	0	0
14848	0	0
15104	0	0
15360	0	0
15616	0	0
15872	0	0
16128	0	0
16384	0	0
16896	0	0
17408	0	0
17920	0	0
18432	0	0
18944	0	0
19456	0	0
19968	0	0
20480	0	0
20992	0	0
21504	0	0
22016	0	0
22528	0	0
23040	0	0
23552	0	0
24064	0	0
24576	0	0
25088	0	0
25600	0	0
26112	0	0
26624	0	0
27136	0	0
27648	0	0
28160	0	0
28672	0	0
29184	0	0
29696	0	0
30208	0	0
30720	0	0
31232	0	0
31744	0	0
32256	0	0
32768	0	0
33792	0	0
34816	0	0
35840	0	0
36864	0	0
37888	0	0
38912	0	0
39936	0	0
40960	0	0
41984	0	0
43008	0	0
44032	0	0
45056	0	0
46080	0	0
47104	0	0
48128	0	0
49152	0	0
50176	0	0
51200	0	0
52224	0	0
53248	0	0
54272	0	0
55296	0	0
56320	0	0
57344	0	0
58368	0	0
59392	0	0
60416	0	0
61440	0	0
62464	0	0
63488	0	0
64512	0	0
65536	0	0
67584	0	0
69632	0	0
71680	0	0
73728	0	0
75776	0	0
77824	0	0
79872	0	0
81920	0	0
83968	0	0
86016	0	0
88064	0	0
90112	0	0
92160	0	0
94208	0	0
96256	0	0
98304	0	0
100352	0	0
102400	0	0
104448	0	0
106496	0	0
108544	0	0
110592	0	0
112640	0	0
114688	0	0
116736	0	0
118784	0	0
120832	0	0
122880	0	0
124928	0	0
126976	0	0
129024	0	0
131072	0	0
135168	0	0
139264	0	0
143360	0	0
147456	0	0
151552	0	0
155648	0	0
159744	0	0
163840	0	0
167936	0	0
172032	0	0
176128	0	0
180224	0	0
184320	0	0
188416	0	0
192512	0	0
196608	0	0
200704	0	0
204800	0	0
208896	0	0
212992	0	0
217088	0	0
221184	0	0
225280	0	0
229376	0	0
233472	0	0
237568	0	0
241664	0	0
245760	0	0
249856	0	0
253952	0	0
258048	0	0
262144	0	0
270336	0	0
278528	0	0
286720	0	0
294912	0	0
303104	0	0
311296	0	0
319488	0	0
327680	0	0
335872	0	0
344064	0	0
352256	0	0
360448	0	0
368640	0	0
376832	0	0
385024	0	0
393216	0	0
401408	0	0
409600	0	0
417792	0	0
425984	0	0
434176	0	0
442368	0	0
450560	0	0
458752	0	0
466944	0	0
475136	0	0
483328	0	0
491520	0	0
499712	0	0
507904	0	0
516096	0	0
524288	0	0
540672	0	0
557056	0	0
573440	0	0
589824	0	0
606208	0	0
622592	0	0
638976	0	0
655360	0	0
671744	0	0
688128	0	0
704512	0	0
720896	0	0
737280	0	0
753664	0	0
770048	0	0
786432	0	0
802816	0	0
819200	0	0
835584	0	0
851968	0	0
868352	0	0
884736	0	0
901120	0	0
917504	0	0
933888	0	0
950272	0	0
966656	0	0
983040	0	0
999424	0	0
1015808	0	0
1032192	0	0
1048576	0	0
1081344	0	0
1114112	0	0
1146880	0	0
1179648	0	0
1212416	0	0
1245184	0	0
1277952	0	0
1310720	0	0
1343488	0	0
1376256	0	0
1409024	0	0
1441792	0	0
1474560	0	0
1507328	0	0
1540096	0	0
1572864	0	0
1605632	0	0
1638400	0	0
1671168	0	0
1703936	0	0
1736704	0	0
1769472	0	0
1802240	0	0
1835008	0	0
1867776	0	0
1900544	0	0
1933312	0	0
1966080	0	0
1998848	0	0
2031616	0	0
2064384	0	0
2097152	0	0
2162688	0	0
2228224	0	0
2293760	0	0
2359296	0	0
2424832	0	0
2490368	0	0
2555904	0	0
2621440	0	0
2686976	0	0
2752512	0	0
2818048	0	0
2883584	0	0
2949120	0	0
3014656	0	0
3080192	0	0
3145728	0	0
3211264	0	0
3276800	0	0
3342336	0	0
3407872	0	0
3473408	0	0
3538944	0	0
3604480	0	0
3670016	0	0
3735552	0	0
3801088	0	0
3866624	0	0
3932160	0	0
3997696	0	0
4063232	0	0
4128768	0	0
4194304	0	0
4325376	0	0
4456448	0	0
4587520	0	0
4718592	0	0
4849664	0	0
4980736	0	0
5111808	0	0
5242880	0	0
5373952	0	0
5505024	0	0
5636096	0	0
5767168	0	0
5898240	0	0
6029312	0	0
6160384	0	0
6291456	0	0
6422528	0	0
6553600	0	0
6684672	0	0
6815744	0	0
6946816	0	0
7077888	0	0
7208960	0	0
7340032	0	0
7471104	0	0
7602176	0	0
7733248	0	0
7864320	0	0
7995392	0	0
8126464	0	0
8257536	0	0
8388608	0	0
8650752	0	0
8912896	0	0
9175040	0	0
9437184	0	0
9699328	0	0
9961472	0	0
10223616	0	0
10485760	0	0
10747904	0	0
11010048	0	0
11272192	0	0
11534336	0	0
11796480	0	0
12058624	0	0
12320768	0	0
12582912	0	0
12845056	0	0
13107200	0	0
13369344	0	0
13631488	0	0
13893632	0	0
14155776	0	0
14417920	0	0
14680064	0	0
14942208	0	0
15204352	0	0
15466496	0	0
15728640	0	0
15990784	0	0
16252928	0	0
16515072	0	0
16777216	0	0
17301504	0	0
17825792	0	0
18350080	0	0
18874368	0	0
19398656	0	0
19922944	0	0
20447232	0	0
20971520	0	0
21495808	0	0
22020096	0	0
22544384	0	0
23068672	0	0
23592960	0	0
24117248	0	0
24641536	0	0
25165824	0	0
25690112	0	0
26214400	0	0
26738688	0	0
27262976	0	0
27787264	0	0
28311552	0	0
28835840	0	0
29360128	0	0
29884416	0	0
30408704	0	0
30932992	0	0
31457280	0	0
31981568	0	0
32505856	0	0
33030144	0	0
33554432	0	0
34603008	0	0
35651584	0	0
36700160	0	0
37748736	0	0
38797312	0	0
39845888	0	0
40894464	0	0
41943040	0	0
42991616	0	0
44040192	0	0
45088768	0	0
46137344	0	0
47185920	0	0
48234496	0	0
49283072	0	0
50331648	0	0
51380224	0	0
52428800	0	0
53477376	0	0
54525952	0	0
55574528	0	0
56623104	0	0
57671680	0	0
58720256	0	0
59768832	0	0
60817408	0	0
61865984	0	0
62914560	0	0
63963136	0	0
65011712	0	0
66060288	0	0
67108864	0	0
69206016	0	0
71303168	0	0
73400320	0	0
75497472	0	0
77594624	0	0
79691776	0	0
81788928	0	0
83886080	0	0
85983232	0	0
88080384	0	0
90177536	0	0
92274688	0	0
94371840	0	0
96468992	0	0
98566144	0	0
100663296	0	0
102760448	0	0
104857600	0	0
106954752	0	0
109051904	0	0
111149056	0	0
113246208	0	0
115343360	0	0
117440512	0	0
119537664	0	0
121634816	0	0
123731968	0	0
125829120	0	0
127926272	0	0
130023424	0	0
132120576	0	0
134217728	0	0
138412032	0	0
142606336	0	0
146800640	0	0
150994944	0	0
155189248	0	0
159383552	0	0
163577856	0	0
167772160	0	0
171966464	0	0
176160768	0	0
180355072	0	0
184549376	0	0
188743680	0	0
192937984	0	0
197132288	0	0
201326592	0	0
205520896	0	0
209715200	0	0
213909504	0	0
218103808	0	0
222298112	0	0
226492416	0	0
230686720	0	0
234881024	0	0
239075328	0	0
243269632	0	0
247463936	0	0
251658240	0	0
255852544	0	0
260046848	0	0
264241152	0	0
268435456	0	0
276824064	0	0
285212672	0	0
293601280	0	0
301989888	0	0
310378496	0	0
318767104	0	0
327155712	0	0
335544320	0	0
343932928	0	0
352321536	0	0
360710144	0	0
369098752	0	0
377487360	0	0
385875968	0	0
394264576	0	0
402653184	0	0
411041792	0	0
419430400	0	0
427819008	0	0
436207616	0	0
444596224	0	0
452984832	0	0
461373440	0	0
469762048	0	0
478150656	0	0
486539264	0	0
494927872	0	0
503316480	0	0
511705088	0	0
520093696	0	0
528482304	0	0
536870912	0	0
553648128	0	0
570425344	0	0
587202560	0	0
603979776	0	0
620756992	0	0
637534208	0	0
654311424	0	0
671088640	0	0
687865856	0	0
704643072	0	0
721420288	0	0
738197504	0	0
754974720	0	0
771751936	0	0
788529152	0	0
805306368	0	0
822083584	0	0
838860800	0	0
855638016	0	0
872415232	0	0
889192448	0	0
905969664	0	0
922746880	0	0
939524096	0	0
956301312	0	0
973078528	0	0
989855744	0	0
1006632960	0	0
1023410176	0	0
1040187392	0	0
1056964608	0	0
1073741824	0	0
1107296256	0	0
1140850688	0	0
1174405120	0	0
1207959552	0	0
1241513984	0	0
1275068416	0	0
1308622848	0	0
1342177280	0	0
1375731712	0	0
1409286144	0	0
1442840576	0	0
1476395008	0	0
1509949440	0	0
1543503872	0	0
1577058304	0	0
1610612736	0	0
1644167168	0	0
1677721600	0	0
1711276032	0	0
1744830464	0	0
1778384896	0	0
1811939328	0	0
1845493760	0	0
1879048192	0	0
1912602624	0	0
1946157056	0	0
1979711488	0	0
2013265920	0	0
2046820352	0	0
2080374784	0	0
2113929216	0	0
2147483648	0	0
2214592512	0	0
2281701376	0	0
2348810240	0	0
2415919104	0	0
2483027968	0	0
2550136832	0	0
2617245696	0	0
2684354560	0	0
2751463424	0	0
2818572288	0	0
2885681152	0	0
2952790016	0	0
3019898880	0	0
3087007744	0	0
3154116608	0	0
3221225472	0	0
3288334336	0	0
3355443200	0	0
3422552064	0	0
3489660928	0	0
3556769792	0	0
3623878656	0	0
3690987520	0	0
3758096384	0	0
3825205248	0	0
3892314112	0	0
3959422976	0	0
4026531840	0	0
4093640704	0	0
4160749568	0	0
4227858432	0	0
~~~~~~~~~~Reuse Distance Profiler output end~~~~~~~~~~


DRAM Statistics
 CHANNEL 0
 RQ ROW_BUFFER_HIT:     590503  ROW_BUFFER_MISS:    1268168
 DBUS AVG_CONGESTED_CYCLE:    3.95364
 WQ ROW_BUFFER_HIT:      42640  ROW_BUFFER_MISS:     365855  FULL:          0


CPU 0 Branch Prediction Accuracy: 99.6101% MPKI: 0.368872 Average ROB Occupancy at Mispredict: 156.602
Branch type MPKI
BRANCH_DIRECT_JUMP: 6.13333e-05
BRANCH_INDIRECT: 0.0929827
BRANCH_CONDITIONAL: 0.275796
BRANCH_DIRECT_CALL: 1.6e-05
BRANCH_INDIRECT_CALL: 0
BRANCH_RETURN: 1.6e-05

