
*** ChampSim Multicore Out-of-Order Simulator ***

Warmup Instructions: 50000000
Simulation Instructions: 1500000000
Number of CPUs: 1
Off-chip DRAM Size: 4 GiB Channels: 1 Width: 64-bit Data Rate: 3200 MT/s

VirtualMemory physical capacity: 8588881920 num_ppages: 2096895
VirtualMemory page size: 4096 log2_page_size: 12

CPU 0 runs traces/654.roms_s-1613B.champsimtrace.xz
CPU 0 Bimodal branch predictor
Basic BTB sets: 1024 ways: 8 indirect buffer size: 4096 RAS size: 64
Initializing LRU.
Initializing LRU.
Initializing LRU.
Initializing LRU.
Initializing rdLRU.
Initializing LRU.
Initializing LRU.
Heartbeat CPU 0 instructions: 2000003 cycles: 502327 heartbeat IPC: 3.98148 cumulative IPC: 3.98148 (Simulation time: 0 hr 0 min 44 sec) 
Heartbeat CPU 0 instructions: 4000000 cycles: 1004584 heartbeat IPC: 3.98202 cumulative IPC: 3.98175 (Simulation time: 0 hr 1 min 26 sec) 
Heartbeat CPU 0 instructions: 6000003 cycles: 1506841 heartbeat IPC: 3.98203 cumulative IPC: 3.98184 (Simulation time: 0 hr 2 min 11 sec) 
Heartbeat CPU 0 instructions: 8000000 cycles: 2009264 heartbeat IPC: 3.9807 cumulative IPC: 3.98156 (Simulation time: 0 hr 2 min 56 sec) 
Heartbeat CPU 0 instructions: 10000003 cycles: 2511524 heartbeat IPC: 3.98201 cumulative IPC: 3.98165 (Simulation time: 0 hr 3 min 41 sec) 
Heartbeat CPU 0 instructions: 12000003 cycles: 3013785 heartbeat IPC: 3.98199 cumulative IPC: 3.9817 (Simulation time: 0 hr 4 min 25 sec) 
Heartbeat CPU 0 instructions: 14000003 cycles: 3516042 heartbeat IPC: 3.98203 cumulative IPC: 3.98175 (Simulation time: 0 hr 5 min 11 sec) 
Heartbeat CPU 0 instructions: 16000003 cycles: 4018461 heartbeat IPC: 3.98074 cumulative IPC: 3.98162 (Simulation time: 0 hr 5 min 56 sec) 
Heartbeat CPU 0 instructions: 18000000 cycles: 4520720 heartbeat IPC: 3.982 cumulative IPC: 3.98167 (Simulation time: 0 hr 6 min 41 sec) 
Heartbeat CPU 0 instructions: 20000003 cycles: 5022979 heartbeat IPC: 3.98202 cumulative IPC: 3.9817 (Simulation time: 0 hr 7 min 26 sec) 
Heartbeat CPU 0 instructions: 22000000 cycles: 5525236 heartbeat IPC: 3.98202 cumulative IPC: 3.98173 (Simulation time: 0 hr 8 min 8 sec) 
Heartbeat CPU 0 instructions: 24000001 cycles: 6027655 heartbeat IPC: 3.98074 cumulative IPC: 3.98165 (Simulation time: 0 hr 8 min 54 sec) 
Heartbeat CPU 0 instructions: 26000003 cycles: 6529912 heartbeat IPC: 3.98203 cumulative IPC: 3.98168 (Simulation time: 0 hr 9 min 39 sec) 
Heartbeat CPU 0 instructions: 28000000 cycles: 7032169 heartbeat IPC: 3.98202 cumulative IPC: 3.9817 (Simulation time: 0 hr 10 min 25 sec) 
Heartbeat CPU 0 instructions: 30000002 cycles: 7534428 heartbeat IPC: 3.98201 cumulative IPC: 3.98172 (Simulation time: 0 hr 11 min 11 sec) 
Heartbeat CPU 0 instructions: 32000001 cycles: 8036852 heartbeat IPC: 3.9807 cumulative IPC: 3.98166 (Simulation time: 0 hr 11 min 52 sec) 
Heartbeat CPU 0 instructions: 34000003 cycles: 8539109 heartbeat IPC: 3.98203 cumulative IPC: 3.98168 (Simulation time: 0 hr 12 min 34 sec) 
Heartbeat CPU 0 instructions: 36000001 cycles: 9041368 heartbeat IPC: 3.98201 cumulative IPC: 3.9817 (Simulation time: 0 hr 13 min 16 sec) 
Heartbeat CPU 0 instructions: 38000003 cycles: 9543629 heartbeat IPC: 3.982 cumulative IPC: 3.98171 (Simulation time: 0 hr 13 min 57 sec) 
Heartbeat CPU 0 instructions: 40000002 cycles: 10046049 heartbeat IPC: 3.98073 cumulative IPC: 3.98167 (Simulation time: 0 hr 14 min 40 sec) 
Heartbeat CPU 0 instructions: 42000000 cycles: 10742650 heartbeat IPC: 2.87108 cumulative IPC: 3.90965 (Simulation time: 0 hr 16 min 0 sec) 
Heartbeat CPU 0 instructions: 44000001 cycles: 11243255 heartbeat IPC: 3.99517 cumulative IPC: 3.91346 (Simulation time: 0 hr 16 min 54 sec) 
Heartbeat CPU 0 instructions: 46000002 cycles: 11745530 heartbeat IPC: 3.98188 cumulative IPC: 3.91638 (Simulation time: 0 hr 17 min 37 sec) 
Heartbeat CPU 0 instructions: 48000001 cycles: 12247949 heartbeat IPC: 3.98074 cumulative IPC: 3.91902 (Simulation time: 0 hr 18 min 21 sec) 
Heartbeat CPU 0 instructions: 50000000 cycles: 12750206 heartbeat IPC: 3.98202 cumulative IPC: 3.92151 (Simulation time: 0 hr 19 min 2 sec) 

Warmup complete CPU 0 instructions: 50000004 cycles: 12750207 (Simulation time: 0 hr 19 min 2 sec) 

Heartbeat CPU 0 instructions: 52000001 cycles: 14179444 heartbeat IPC: 1.39935 cumulative IPC: 1.39935 (Simulation time: 0 hr 20 min 33 sec) 

Region of Interest Statistics
cpu0_DTLB TOTAL     ACCESS:     330531  HIT:     330481  MISS:         50
cpu0_DTLB LOAD      ACCESS:     229723  HIT:     229689  MISS:         34
cpu0_DTLB RFO       ACCESS:     100808  HIT:     100792  MISS:         16
cpu0_DTLB PREFETCH  ACCESS:          0  HIT:          0  MISS:          0
cpu0_DTLB WRITEBACK ACCESS:          0  HIT:          0  MISS:          0
cpu0_ITLB TOTAL     ACCESS:      90887  HIT:      90879  MISS:          8
cpu0_ITLB LOAD      ACCESS:      90887  HIT:      90879  MISS:          8
cpu0_ITLB RFO       ACCESS:          0  HIT:          0  MISS:          0
cpu0_ITLB PREFETCH  ACCESS:          0  HIT:          0  MISS:          0
cpu0_ITLB WRITEBACK ACCESS:          0  HIT:          0  MISS:          0
cpu0_L1I TOTAL     ACCESS:     159120  HIT:     159014  MISS:        106
cpu0_L1I LOAD      ACCESS:     159120  HIT:     159014  MISS:        106
cpu0_L1I RFO       ACCESS:          0  HIT:          0  MISS:          0
cpu0_L1I PREFETCH  ACCESS:          0  HIT:          0  MISS:          0
cpu0_L1I WRITEBACK ACCESS:          0  HIT:          0  MISS:          0
cpu0_STLB TOTAL     ACCESS:         58  HIT:          0  MISS:         58
cpu0_STLB LOAD      ACCESS:         42  HIT:          0  MISS:         42
cpu0_STLB RFO       ACCESS:         16  HIT:          0  MISS:         16
cpu0_STLB PREFETCH  ACCESS:          0  HIT:          0  MISS:          0
cpu0_STLB WRITEBACK ACCESS:          0  HIT:          0  MISS:          0
cpu0_L1D TOTAL     ACCESS:     430634  HIT:     428260  MISS:       2374
cpu0_L1D LOAD      ACCESS:     235214  HIT:     233791  MISS:       1423
cpu0_L1D RFO       ACCESS:     195362  HIT:     194413  MISS:        949
cpu0_L1D PREFETCH  ACCESS:          0  HIT:          0  MISS:          0
cpu0_L1D WRITEBACK ACCESS:          0  HIT:          0  MISS:          0
cpu0_L2C TOTAL     ACCESS:       3436  HIT:        957  MISS:       2479
cpu0_L2C LOAD      ACCESS:       1529  HIT:          0  MISS:       1529
cpu0_L2C RFO       ACCESS:        949  HIT:          0  MISS:        949
cpu0_L2C PREFETCH  ACCESS:          0  HIT:          0  MISS:          0
cpu0_L2C WRITEBACK ACCESS:        956  HIT:        956  MISS:          0
LLC TOTAL     ACCESS:       3302  HIT:        130  MISS:       3172
LLC LOAD      ACCESS:       1529  HIT:          0  MISS:       1529
LLC RFO       ACCESS:        949  HIT:          1  MISS:        948
LLC PREFETCH  ACCESS:          0  HIT:          0  MISS:          0
LLC WRITEBACK ACCESS:        823  HIT:        129  MISS:        694
Heartbeat CPU 0 instructions: 54000003 cycles: 15580585 heartbeat IPC: 1.42741 cumulative IPC: 1.41324 (Simulation time: 0 hr 22 min 0 sec) 

Region of Interest Statistics
cpu0_DTLB TOTAL     ACCESS:     661723  HIT:     661631  MISS:         92
cpu0_DTLB LOAD      ACCESS:     460057  HIT:     459995  MISS:         62
cpu0_DTLB RFO       ACCESS:     201666  HIT:     201636  MISS:         30
cpu0_DTLB PREFETCH  ACCESS:          0  HIT:          0  MISS:          0
cpu0_DTLB WRITEBACK ACCESS:          0  HIT:          0  MISS:          0
cpu0_ITLB TOTAL     ACCESS:     179861  HIT:     179853  MISS:          8
cpu0_ITLB LOAD      ACCESS:     179861  HIT:     179853  MISS:          8
cpu0_ITLB RFO       ACCESS:          0  HIT:          0  MISS:          0
cpu0_ITLB PREFETCH  ACCESS:          0  HIT:          0  MISS:          0
cpu0_ITLB WRITEBACK ACCESS:          0  HIT:          0  MISS:          0
cpu0_L1I TOTAL     ACCESS:     319036  HIT:     318930  MISS:        106
cpu0_L1I LOAD      ACCESS:     319036  HIT:     318930  MISS:        106
cpu0_L1I RFO       ACCESS:          0  HIT:          0  MISS:          0
cpu0_L1I PREFETCH  ACCESS:          0  HIT:          0  MISS:          0
cpu0_L1I WRITEBACK ACCESS:          0  HIT:          0  MISS:          0
cpu0_STLB TOTAL     ACCESS:        100  HIT:          0  MISS:        100
cpu0_STLB LOAD      ACCESS:         70  HIT:          0  MISS:         70
cpu0_STLB RFO       ACCESS:         30  HIT:          0  MISS:         30
cpu0_STLB PREFETCH  ACCESS:          0  HIT:          0  MISS:          0
cpu0_STLB WRITEBACK ACCESS:          0  HIT:          0  MISS:          0
cpu0_L1D TOTAL     ACCESS:     862246  HIT:     857552  MISS:       4694
cpu0_L1D LOAD      ACCESS:     470833  HIT:     468013  MISS:       2820
cpu0_L1D RFO       ACCESS:     391313  HIT:     389441  MISS:       1872
cpu0_L1D PREFETCH  ACCESS:          0  HIT:          0  MISS:          0
cpu0_L1D WRITEBACK ACCESS:          0  HIT:          0  MISS:          0
cpu0_L2C TOTAL     ACCESS:       6667  HIT:       1868  MISS:       4799
cpu0_L2C LOAD      ACCESS:       2926  HIT:          0  MISS:       2926
cpu0_L2C RFO       ACCESS:       1872  HIT:          0  MISS:       1872
cpu0_L2C PREFETCH  ACCESS:          0  HIT:          0  MISS:          0
cpu0_L2C WRITEBACK ACCESS:       1867  HIT:       1867  MISS:          0
LLC TOTAL     ACCESS:       6632  HIT:        279  MISS:       6353
LLC LOAD      ACCESS:       2926  HIT:          0  MISS:       2926
LLC RFO       ACCESS:       1872  HIT:          1  MISS:       1871
LLC PREFETCH  ACCESS:          0  HIT:          0  MISS:          0
LLC WRITEBACK ACCESS:       1833  HIT:        278  MISS:       1555
Heartbeat CPU 0 instructions: 56000002 cycles: 16981374 heartbeat IPC: 1.42777 cumulative IPC: 1.41805 (Simulation time: 0 hr 23 min 25 sec) 

Region of Interest Statistics
cpu0_DTLB TOTAL     ACCESS:     992832  HIT:     992695  MISS:        137
cpu0_DTLB LOAD      ACCESS:     690391  HIT:     690299  MISS:         92
cpu0_DTLB RFO       ACCESS:     302441  HIT:     302396  MISS:         45
cpu0_DTLB PREFETCH  ACCESS:          0  HIT:          0  MISS:          0
cpu0_DTLB WRITEBACK ACCESS:          0  HIT:          0  MISS:          0
cpu0_ITLB TOTAL     ACCESS:     268833  HIT:     268825  MISS:          8
cpu0_ITLB LOAD      ACCESS:     268833  HIT:     268825  MISS:          8
cpu0_ITLB RFO       ACCESS:          0  HIT:          0  MISS:          0
cpu0_ITLB PREFETCH  ACCESS:          0  HIT:          0  MISS:          0
cpu0_ITLB WRITEBACK ACCESS:          0  HIT:          0  MISS:          0
cpu0_L1I TOTAL     ACCESS:     478949  HIT:     478843  MISS:        106
cpu0_L1I LOAD      ACCESS:     478949  HIT:     478843  MISS:        106
cpu0_L1I RFO       ACCESS:          0  HIT:          0  MISS:          0
cpu0_L1I PREFETCH  ACCESS:          0  HIT:          0  MISS:          0
cpu0_L1I WRITEBACK ACCESS:          0  HIT:          0  MISS:          0
cpu0_STLB TOTAL     ACCESS:        145  HIT:          0  MISS:        145
cpu0_STLB LOAD      ACCESS:        100  HIT:          0  MISS:        100
cpu0_STLB RFO       ACCESS:         45  HIT:          0  MISS:         45
cpu0_STLB PREFETCH  ACCESS:          0  HIT:          0  MISS:          0
cpu0_STLB WRITEBACK ACCESS:          0  HIT:          0  MISS:          0
cpu0_L1D TOTAL     ACCESS:    1293784  HIT:    1286780  MISS:       7004
cpu0_L1D LOAD      ACCESS:     706387  HIT:     702181  MISS:       4206
cpu0_L1D RFO       ACCESS:     587252  HIT:     584456  MISS:       2796
cpu0_L1D PREFETCH  ACCESS:          0  HIT:          0  MISS:          0
cpu0_L1D WRITEBACK ACCESS:          0  HIT:          0  MISS:          0
cpu0_L2C TOTAL     ACCESS:       9907  HIT:       2798  MISS:       7109
cpu0_L2C LOAD      ACCESS:       4312  HIT:          0  MISS:       4312
cpu0_L2C RFO       ACCESS:       2796  HIT:          0  MISS:       2796
cpu0_L2C PREFETCH  ACCESS:          0  HIT:          0  MISS:          0
cpu0_L2C WRITEBACK ACCESS:       2797  HIT:       2797  MISS:          0
LLC TOTAL     ACCESS:       9700  HIT:        372  MISS:       9328
LLC LOAD      ACCESS:       4312  HIT:          0  MISS:       4312
LLC RFO       ACCESS:       2796  HIT:          1  MISS:       2795
LLC PREFETCH  ACCESS:          0  HIT:          0  MISS:          0
LLC WRITEBACK ACCESS:       2591  HIT:        371  MISS:       2220
Heartbeat CPU 0 instructions: 58000002 cycles: 18386986 heartbeat IPC: 1.42287 cumulative IPC: 1.41925 (Simulation time: 0 hr 24 min 53 sec) 

Region of Interest Statistics
cpu0_DTLB TOTAL     ACCESS:    1324293  HIT:    1324098  MISS:        195
cpu0_DTLB LOAD      ACCESS:     920522  HIT:     920386  MISS:        136
cpu0_DTLB RFO       ACCESS:     403771  HIT:     403712  MISS:         59
cpu0_DTLB PREFETCH  ACCESS:          0  HIT:          0  MISS:          0
cpu0_DTLB WRITEBACK ACCESS:          0  HIT:          0  MISS:          0
cpu0_ITLB TOTAL     ACCESS:     357562  HIT:     357554  MISS:          8
cpu0_ITLB LOAD      ACCESS:     357562  HIT:     357554  MISS:          8
cpu0_ITLB RFO       ACCESS:          0  HIT:          0  MISS:          0
cpu0_ITLB PREFETCH  ACCESS:          0  HIT:          0  MISS:          0
cpu0_ITLB WRITEBACK ACCESS:          0  HIT:          0  MISS:          0
cpu0_L1I TOTAL     ACCESS:     638188  HIT:     638082  MISS:        106
cpu0_L1I LOAD      ACCESS:     638188  HIT:     638082  MISS:        106
cpu0_L1I RFO       ACCESS:          0  HIT:          0  MISS:          0
cpu0_L1I PREFETCH  ACCESS:          0  HIT:          0  MISS:          0
cpu0_L1I WRITEBACK ACCESS:          0  HIT:          0  MISS:          0
cpu0_STLB TOTAL     ACCESS:        203  HIT:          0  MISS:        203
cpu0_STLB LOAD      ACCESS:        144  HIT:          0  MISS:        144
cpu0_STLB RFO       ACCESS:         59  HIT:          0  MISS:         59
cpu0_STLB PREFETCH  ACCESS:          0  HIT:          0  MISS:          0
cpu0_STLB WRITEBACK ACCESS:          0  HIT:          0  MISS:          0
cpu0_L1D TOTAL     ACCESS:    1725887  HIT:    1716546  MISS:       9341
cpu0_L1D LOAD      ACCESS:     941609  HIT:     935987  MISS:       5622
cpu0_L1D RFO       ACCESS:     784075  HIT:     780358  MISS:       3717
cpu0_L1D PREFETCH  ACCESS:          0  HIT:          0  MISS:          0
cpu0_L1D WRITEBACK ACCESS:          0  HIT:          0  MISS:          0
cpu0_L2C TOTAL     ACCESS:      13165  HIT:       3719  MISS:       9446
cpu0_L2C LOAD      ACCESS:       5728  HIT:          0  MISS:       5728
cpu0_L2C RFO       ACCESS:       3717  HIT:          0  MISS:       3717
cpu0_L2C PREFETCH  ACCESS:          0  HIT:          0  MISS:          0
cpu0_L2C WRITEBACK ACCESS:       3718  HIT:       3718  MISS:          0
LLC TOTAL     ACCESS:      12817  HIT:        672  MISS:      12145
LLC LOAD      ACCESS:       5728  HIT:          0  MISS:       5728
LLC RFO       ACCESS:       3717  HIT:          1  MISS:       3716
LLC PREFETCH  ACCESS:          0  HIT:          0  MISS:          0
LLC WRITEBACK ACCESS:       3371  HIT:        671  MISS:       2700
Heartbeat CPU 0 instructions: 60000004 cycles: 19794451 heartbeat IPC: 1.421 cumulative IPC: 1.4196 (Simulation time: 0 hr 26 min 21 sec) 

Region of Interest Statistics
cpu0_DTLB TOTAL     ACCESS:    1655224  HIT:    1654973  MISS:        251
cpu0_DTLB LOAD      ACCESS:    1150631  HIT:    1150453  MISS:        178
cpu0_DTLB RFO       ACCESS:     504593  HIT:     504520  MISS:         73
cpu0_DTLB PREFETCH  ACCESS:          0  HIT:          0  MISS:          0
cpu0_DTLB WRITEBACK ACCESS:          0  HIT:          0  MISS:          0
cpu0_ITLB TOTAL     ACCESS:     446553  HIT:     446545  MISS:          8
cpu0_ITLB LOAD      ACCESS:     446553  HIT:     446545  MISS:          8
cpu0_ITLB RFO       ACCESS:          0  HIT:          0  MISS:          0
cpu0_ITLB PREFETCH  ACCESS:          0  HIT:          0  MISS:          0
cpu0_ITLB WRITEBACK ACCESS:          0  HIT:          0  MISS:          0
cpu0_L1I TOTAL     ACCESS:     798091  HIT:     797985  MISS:        106
cpu0_L1I LOAD      ACCESS:     798091  HIT:     797985  MISS:        106
cpu0_L1I RFO       ACCESS:          0  HIT:          0  MISS:          0
cpu0_L1I PREFETCH  ACCESS:          0  HIT:          0  MISS:          0
cpu0_L1I WRITEBACK ACCESS:          0  HIT:          0  MISS:          0
cpu0_STLB TOTAL     ACCESS:        259  HIT:          0  MISS:        259
cpu0_STLB LOAD      ACCESS:        186  HIT:          0  MISS:        186
cpu0_STLB RFO       ACCESS:         73  HIT:          0  MISS:         73
cpu0_STLB PREFETCH  ACCESS:          0  HIT:          0  MISS:          0
cpu0_STLB WRITEBACK ACCESS:          0  HIT:          0  MISS:          0
cpu0_L1D TOTAL     ACCESS:    2157380  HIT:    2145731  MISS:      11649
cpu0_L1D LOAD      ACCESS:    1177095  HIT:    1170088  MISS:       7007
cpu0_L1D RFO       ACCESS:     980026  HIT:     975386  MISS:       4640
cpu0_L1D PREFETCH  ACCESS:          0  HIT:          0  MISS:          0
cpu0_L1D WRITEBACK ACCESS:          0  HIT:          0  MISS:          0
cpu0_L2C TOTAL     ACCESS:      16394  HIT:       4640  MISS:      11754
cpu0_L2C LOAD      ACCESS:       7113  HIT:          0  MISS:       7113
cpu0_L2C RFO       ACCESS:       4640  HIT:          0  MISS:       4640
cpu0_L2C PREFETCH  ACCESS:          0  HIT:          0  MISS:          0
cpu0_L2C WRITEBACK ACCESS:       4639  HIT:       4639  MISS:          0
LLC TOTAL     ACCESS:      16065  HIT:        986  MISS:      15079
LLC LOAD      ACCESS:       7113  HIT:          0  MISS:       7113
LLC RFO       ACCESS:       4640  HIT:          1  MISS:       4639
LLC PREFETCH  ACCESS:          0  HIT:          0  MISS:          0
LLC WRITEBACK ACCESS:       4311  HIT:        985  MISS:       3326
Heartbeat CPU 0 instructions: 62000003 cycles: 21201560 heartbeat IPC: 1.42135 cumulative IPC: 1.41989 (Simulation time: 0 hr 27 min 50 sec) 

Region of Interest Statistics
cpu0_DTLB TOTAL     ACCESS:    1986073  HIT:    1985764  MISS:        309
cpu0_DTLB LOAD      ACCESS:    1380760  HIT:    1380539  MISS:        221
cpu0_DTLB RFO       ACCESS:     605313  HIT:     605225  MISS:         88
cpu0_DTLB PREFETCH  ACCESS:          0  HIT:          0  MISS:          0
cpu0_DTLB WRITEBACK ACCESS:          0  HIT:          0  MISS:          0
cpu0_ITLB TOTAL     ACCESS:     535508  HIT:     535500  MISS:          8
cpu0_ITLB LOAD      ACCESS:     535508  HIT:     535500  MISS:          8
cpu0_ITLB RFO       ACCESS:          0  HIT:          0  MISS:          0
cpu0_ITLB PREFETCH  ACCESS:          0  HIT:          0  MISS:          0
cpu0_ITLB WRITEBACK ACCESS:          0  HIT:          0  MISS:          0
cpu0_L1I TOTAL     ACCESS:     958008  HIT:     957902  MISS:        106
cpu0_L1I LOAD      ACCESS:     958008  HIT:     957902  MISS:        106
cpu0_L1I RFO       ACCESS:          0  HIT:          0  MISS:          0
cpu0_L1I PREFETCH  ACCESS:          0  HIT:          0  MISS:          0
cpu0_L1I WRITEBACK ACCESS:          0  HIT:          0  MISS:          0
cpu0_STLB TOTAL     ACCESS:        317  HIT:          0  MISS:        317
cpu0_STLB LOAD      ACCESS:        229  HIT:          0  MISS:        229
cpu0_STLB RFO       ACCESS:         88  HIT:          0  MISS:         88
cpu0_STLB PREFETCH  ACCESS:          0  HIT:          0  MISS:          0
cpu0_STLB WRITEBACK ACCESS:          0  HIT:          0  MISS:          0
cpu0_L1D TOTAL     ACCESS:    2588859  HIT:    2574900  MISS:      13959
cpu0_L1D LOAD      ACCESS:    1412576  HIT:    1404183  MISS:       8393
cpu0_L1D RFO       ACCESS:    1175966  HIT:    1170402  MISS:       5564
cpu0_L1D PREFETCH  ACCESS:          0  HIT:          0  MISS:          0
cpu0_L1D WRITEBACK ACCESS:          0  HIT:          0  MISS:          0
cpu0_L2C TOTAL     ACCESS:      19627  HIT:       5563  MISS:      14064
cpu0_L2C LOAD      ACCESS:       8499  HIT:          0  MISS:       8499
cpu0_L2C RFO       ACCESS:       5564  HIT:          0  MISS:       5564
cpu0_L2C PREFETCH  ACCESS:          0  HIT:          0  MISS:          0
cpu0_L2C WRITEBACK ACCESS:       5562  HIT:       5562  MISS:          0
LLC TOTAL     ACCESS:      19414  HIT:       1167  MISS:      18247
LLC LOAD      ACCESS:       8499  HIT:          0  MISS:       8499
LLC RFO       ACCESS:       5564  HIT:          1  MISS:       5563
LLC PREFETCH  ACCESS:          0  HIT:          0  MISS:          0
LLC WRITEBACK ACCESS:       5350  HIT:       1166  MISS:       4184
Heartbeat CPU 0 instructions: 64000000 cycles: 22609143 heartbeat IPC: 1.42087 cumulative IPC: 1.42003 (Simulation time: 0 hr 29 min 18 sec) 

Region of Interest Statistics
cpu0_DTLB TOTAL     ACCESS:    2316943  HIT:    2316578  MISS:        365
cpu0_DTLB LOAD      ACCESS:    1610896  HIT:    1610633  MISS:        263
cpu0_DTLB RFO       ACCESS:     706047  HIT:     705945  MISS:        102
cpu0_DTLB PREFETCH  ACCESS:          0  HIT:          0  MISS:          0
cpu0_DTLB WRITEBACK ACCESS:          0  HIT:          0  MISS:          0
cpu0_ITLB TOTAL     ACCESS:     624464  HIT:     624456  MISS:          8
cpu0_ITLB LOAD      ACCESS:     624464  HIT:     624456  MISS:          8
cpu0_ITLB RFO       ACCESS:          0  HIT:          0  MISS:          0
cpu0_ITLB PREFETCH  ACCESS:          0  HIT:          0  MISS:          0
cpu0_ITLB WRITEBACK ACCESS:          0  HIT:          0  MISS:          0
cpu0_L1I TOTAL     ACCESS:    1117941  HIT:    1117835  MISS:        106
cpu0_L1I LOAD      ACCESS:    1117941  HIT:    1117835  MISS:        106
cpu0_L1I RFO       ACCESS:          0  HIT:          0  MISS:          0
cpu0_L1I PREFETCH  ACCESS:          0  HIT:          0  MISS:          0
cpu0_L1I WRITEBACK ACCESS:          0  HIT:          0  MISS:          0
cpu0_STLB TOTAL     ACCESS:        373  HIT:          0  MISS:        373
cpu0_STLB LOAD      ACCESS:        271  HIT:          0  MISS:        271
cpu0_STLB RFO       ACCESS:        102  HIT:          0  MISS:        102
cpu0_STLB PREFETCH  ACCESS:          0  HIT:          0  MISS:          0
cpu0_STLB WRITEBACK ACCESS:          0  HIT:          0  MISS:          0
cpu0_L1D TOTAL     ACCESS:    3020307  HIT:    3004040  MISS:      16267
cpu0_L1D LOAD      ACCESS:    1648017  HIT:    1638239  MISS:       9778
cpu0_L1D RFO       ACCESS:    1371917  HIT:    1365430  MISS:       6487
cpu0_L1D PREFETCH  ACCESS:          0  HIT:          0  MISS:          0
cpu0_L1D WRITEBACK ACCESS:          0  HIT:          0  MISS:          0
cpu0_L2C TOTAL     ACCESS:      22857  HIT:       6485  MISS:      16372
cpu0_L2C LOAD      ACCESS:       9884  HIT:          0  MISS:       9884
cpu0_L2C RFO       ACCESS:       6487  HIT:          0  MISS:       6487
cpu0_L2C PREFETCH  ACCESS:          0  HIT:          0  MISS:          0
cpu0_L2C WRITEBACK ACCESS:       6484  HIT:       6484  MISS:          0
LLC TOTAL     ACCESS:      22764  HIT:       1275  MISS:      21489
LLC LOAD      ACCESS:       9884  HIT:          0  MISS:       9884
LLC RFO       ACCESS:       6487  HIT:          1  MISS:       6486
LLC PREFETCH  ACCESS:          0  HIT:          0  MISS:          0
LLC WRITEBACK ACCESS:       6392  HIT:       1274  MISS:       5118
Heartbeat CPU 0 instructions: 66000000 cycles: 24016615 heartbeat IPC: 1.42099 cumulative IPC: 1.42015 (Simulation time: 0 hr 30 min 43 sec) 

Region of Interest Statistics
cpu0_DTLB TOTAL     ACCESS:    2648354  HIT:    2647929  MISS:        425
cpu0_DTLB LOAD      ACCESS:    1841011  HIT:    1840703  MISS:        308
cpu0_DTLB RFO       ACCESS:     807343  HIT:     807226  MISS:        117
cpu0_DTLB PREFETCH  ACCESS:          0  HIT:          0  MISS:          0
cpu0_DTLB WRITEBACK ACCESS:          0  HIT:          0  MISS:          0
cpu0_ITLB TOTAL     ACCESS:     713183  HIT:     713175  MISS:          8
cpu0_ITLB LOAD      ACCESS:     713183  HIT:     713175  MISS:          8
cpu0_ITLB RFO       ACCESS:          0  HIT:          0  MISS:          0
cpu0_ITLB PREFETCH  ACCESS:          0  HIT:          0  MISS:          0
cpu0_ITLB WRITEBACK ACCESS:          0  HIT:          0  MISS:          0
cpu0_L1I TOTAL     ACCESS:    1277201  HIT:    1277095  MISS:        106
cpu0_L1I LOAD      ACCESS:    1277201  HIT:    1277095  MISS:        106
cpu0_L1I RFO       ACCESS:          0  HIT:          0  MISS:          0
cpu0_L1I PREFETCH  ACCESS:          0  HIT:          0  MISS:          0
cpu0_L1I WRITEBACK ACCESS:          0  HIT:          0  MISS:          0
cpu0_STLB TOTAL     ACCESS:        433  HIT:          0  MISS:        433
cpu0_STLB LOAD      ACCESS:        316  HIT:          0  MISS:        316
cpu0_STLB RFO       ACCESS:        117  HIT:          0  MISS:        117
cpu0_STLB PREFETCH  ACCESS:          0  HIT:          0  MISS:          0
cpu0_STLB WRITEBACK ACCESS:          0  HIT:          0  MISS:          0
cpu0_L1D TOTAL     ACCESS:    3452344  HIT:    3433740  MISS:      18604
cpu0_L1D LOAD      ACCESS:    1883173  HIT:    1871979  MISS:      11194
cpu0_L1D RFO       ACCESS:    1568738  HIT:    1561330  MISS:       7408
cpu0_L1D PREFETCH  ACCESS:          0  HIT:          0  MISS:          0
cpu0_L1D WRITEBACK ACCESS:          0  HIT:          0  MISS:          0
cpu0_L2C TOTAL     ACCESS:      26116  HIT:       7407  MISS:      18709
cpu0_L2C LOAD      ACCESS:      11300  HIT:          0  MISS:      11300
cpu0_L2C RFO       ACCESS:       7408  HIT:          0  MISS:       7408
cpu0_L2C PREFETCH  ACCESS:          0  HIT:          0  MISS:          0
cpu0_L2C WRITEBACK ACCESS:       7406  HIT:       7406  MISS:          0
LLC TOTAL     ACCESS:      25995  HIT:       1385  MISS:      24610
LLC LOAD      ACCESS:      11300  HIT:          0  MISS:      11300
LLC RFO       ACCESS:       7408  HIT:          1  MISS:       7407
LLC PREFETCH  ACCESS:          0  HIT:          0  MISS:          0
LLC WRITEBACK ACCESS:       7286  HIT:       1384  MISS:       5902
Heartbeat CPU 0 instructions: 68000004 cycles: 25419725 heartbeat IPC: 1.42541 cumulative IPC: 1.42073 (Simulation time: 0 hr 32 min 6 sec) 

Region of Interest Statistics
cpu0_DTLB TOTAL     ACCESS:    2979304  HIT:    2978825  MISS:        479
cpu0_DTLB LOAD      ACCESS:    2071319  HIT:    2070971  MISS:        348
cpu0_DTLB RFO       ACCESS:     907985  HIT:     907854  MISS:        131
cpu0_DTLB PREFETCH  ACCESS:          0  HIT:          0  MISS:          0
cpu0_DTLB WRITEBACK ACCESS:          0  HIT:          0  MISS:          0
cpu0_ITLB TOTAL     ACCESS:     802133  HIT:     802125  MISS:          8
cpu0_ITLB LOAD      ACCESS:     802133  HIT:     802125  MISS:          8
cpu0_ITLB RFO       ACCESS:          0  HIT:          0  MISS:          0
cpu0_ITLB PREFETCH  ACCESS:          0  HIT:          0  MISS:          0
cpu0_ITLB WRITEBACK ACCESS:          0  HIT:          0  MISS:          0
cpu0_L1I TOTAL     ACCESS:    1437132  HIT:    1437026  MISS:        106
cpu0_L1I LOAD      ACCESS:    1437132  HIT:    1437026  MISS:        106
cpu0_L1I RFO       ACCESS:          0  HIT:          0  MISS:          0
cpu0_L1I PREFETCH  ACCESS:          0  HIT:          0  MISS:          0
cpu0_L1I WRITEBACK ACCESS:          0  HIT:          0  MISS:          0
cpu0_STLB TOTAL     ACCESS:        487  HIT:          0  MISS:        487
cpu0_STLB LOAD      ACCESS:        356  HIT:          0  MISS:        356
cpu0_STLB RFO       ACCESS:        131  HIT:          0  MISS:        131
cpu0_STLB PREFETCH  ACCESS:          0  HIT:          0  MISS:          0
cpu0_STLB WRITEBACK ACCESS:          0  HIT:          0  MISS:          0
cpu0_L1D TOTAL     ACCESS:    3883621  HIT:    3862707  MISS:      20914
cpu0_L1D LOAD      ACCESS:    2118455  HIT:    2105875  MISS:      12580
cpu0_L1D RFO       ACCESS:    1764679  HIT:    1756347  MISS:       8332
cpu0_L1D PREFETCH  ACCESS:          0  HIT:          0  MISS:          0
cpu0_L1D WRITEBACK ACCESS:          0  HIT:          0  MISS:          0
cpu0_L2C TOTAL     ACCESS:      29351  HIT:       8332  MISS:      21019
cpu0_L2C LOAD      ACCESS:      12686  HIT:          0  MISS:      12686
cpu0_L2C RFO       ACCESS:       8332  HIT:          0  MISS:       8332
cpu0_L2C PREFETCH  ACCESS:          0  HIT:          0  MISS:          0
cpu0_L2C WRITEBACK ACCESS:       8331  HIT:       8331  MISS:          0
LLC TOTAL     ACCESS:      29043  HIT:       1508  MISS:      27535
LLC LOAD      ACCESS:      12686  HIT:          0  MISS:      12686
LLC RFO       ACCESS:       8332  HIT:          1  MISS:       8331
LLC PREFETCH  ACCESS:          0  HIT:          0  MISS:          0
LLC WRITEBACK ACCESS:       8024  HIT:       1507  MISS:       6517
Heartbeat CPU 0 instructions: 70000001 cycles: 26822122 heartbeat IPC: 1.42613 cumulative IPC: 1.42127 (Simulation time: 0 hr 33 min 29 sec) 

Region of Interest Statistics
cpu0_DTLB TOTAL     ACCESS:    3310590  HIT:    3310068  MISS:        522
cpu0_DTLB LOAD      ACCESS:    2301653  HIT:    2301276  MISS:        377
cpu0_DTLB RFO       ACCESS:    1008937  HIT:    1008792  MISS:        145
cpu0_DTLB PREFETCH  ACCESS:          0  HIT:          0  MISS:          0
cpu0_DTLB WRITEBACK ACCESS:          0  HIT:          0  MISS:          0
cpu0_ITLB TOTAL     ACCESS:     891131  HIT:     891123  MISS:          8
cpu0_ITLB LOAD      ACCESS:     891131  HIT:     891123  MISS:          8
cpu0_ITLB RFO       ACCESS:          0  HIT:          0  MISS:          0
cpu0_ITLB PREFETCH  ACCESS:          0  HIT:          0  MISS:          0
cpu0_ITLB WRITEBACK ACCESS:          0  HIT:          0  MISS:          0
cpu0_L1I TOTAL     ACCESS:    1597026  HIT:    1596920  MISS:        106
cpu0_L1I LOAD      ACCESS:    1597026  HIT:    1596920  MISS:        106
cpu0_L1I RFO       ACCESS:          0  HIT:          0  MISS:          0
cpu0_L1I PREFETCH  ACCESS:          0  HIT:          0  MISS:          0
cpu0_L1I WRITEBACK ACCESS:          0  HIT:          0  MISS:          0
cpu0_STLB TOTAL     ACCESS:        530  HIT:          0  MISS:        530
cpu0_STLB LOAD      ACCESS:        385  HIT:          0  MISS:        385
cpu0_STLB RFO       ACCESS:        145  HIT:          0  MISS:        145
cpu0_STLB PREFETCH  ACCESS:          0  HIT:          0  MISS:          0
cpu0_STLB WRITEBACK ACCESS:          0  HIT:          0  MISS:          0
cpu0_L1D TOTAL     ACCESS:    4315209  HIT:    4291987  MISS:      23222
cpu0_L1D LOAD      ACCESS:    2354050  HIT:    2340085  MISS:      13965
cpu0_L1D RFO       ACCESS:    1960629  HIT:    1951374  MISS:       9255
cpu0_L1D PREFETCH  ACCESS:          0  HIT:          0  MISS:          0
cpu0_L1D WRITEBACK ACCESS:          0  HIT:          0  MISS:          0
cpu0_L2C TOTAL     ACCESS:      32582  HIT:       9255  MISS:      23327
cpu0_L2C LOAD      ACCESS:      14071  HIT:          0  MISS:      14071
cpu0_L2C RFO       ACCESS:       9255  HIT:          0  MISS:       9255
cpu0_L2C PREFETCH  ACCESS:          0  HIT:          0  MISS:          0
cpu0_L2C WRITEBACK ACCESS:       9254  HIT:       9254  MISS:          0
LLC TOTAL     ACCESS:      32273  HIT:       1731  MISS:      30542
LLC LOAD      ACCESS:      14071  HIT:          0  MISS:      14071
LLC RFO       ACCESS:       9255  HIT:          1  MISS:       9254
LLC PREFETCH  ACCESS:          0  HIT:          0  MISS:          0
LLC WRITEBACK ACCESS:       8946  HIT:       1730  MISS:       7216
Heartbeat CPU 0 instructions: 72000000 cycles: 28222258 heartbeat IPC: 1.42843 cumulative IPC: 1.42192 (Simulation time: 0 hr 35 min 1 sec) 

Region of Interest Statistics
cpu0_DTLB TOTAL     ACCESS:    3641806  HIT:    3641241  MISS:        565
cpu0_DTLB LOAD      ACCESS:    2531977  HIT:    2531572  MISS:        405
cpu0_DTLB RFO       ACCESS:    1109829  HIT:    1109669  MISS:        160
cpu0_DTLB PREFETCH  ACCESS:          0  HIT:          0  MISS:          0
cpu0_DTLB WRITEBACK ACCESS:          0  HIT:          0  MISS:          0
cpu0_ITLB TOTAL     ACCESS:     980105  HIT:     980097  MISS:          8
cpu0_ITLB LOAD      ACCESS:     980105  HIT:     980097  MISS:          8
cpu0_ITLB RFO       ACCESS:          0  HIT:          0  MISS:          0
cpu0_ITLB PREFETCH  ACCESS:          0  HIT:          0  MISS:          0
cpu0_ITLB WRITEBACK ACCESS:          0  HIT:          0  MISS:          0
cpu0_L1I TOTAL     ACCESS:    1756929  HIT:    1756823  MISS:        106
cpu0_L1I LOAD      ACCESS:    1756929  HIT:    1756823  MISS:        106
cpu0_L1I RFO       ACCESS:          0  HIT:          0  MISS:          0
cpu0_L1I PREFETCH  ACCESS:          0  HIT:          0  MISS:          0
cpu0_L1I WRITEBACK ACCESS:          0  HIT:          0  MISS:          0
cpu0_STLB TOTAL     ACCESS:        573  HIT:          0  MISS:        573
cpu0_STLB LOAD      ACCESS:        413  HIT:          0  MISS:        413
cpu0_STLB RFO       ACCESS:        160  HIT:          0  MISS:        160
cpu0_STLB PREFETCH  ACCESS:          0  HIT:          0  MISS:          0
cpu0_STLB WRITEBACK ACCESS:          0  HIT:          0  MISS:          0
cpu0_L1D TOTAL     ACCESS:    4746726  HIT:    4721194  MISS:      25532
cpu0_L1D LOAD      ACCESS:    2589583  HIT:    2574232  MISS:      15351
cpu0_L1D RFO       ACCESS:    2156570  HIT:    2146391  MISS:      10179
cpu0_L1D PREFETCH  ACCESS:          0  HIT:          0  MISS:          0
cpu0_L1D WRITEBACK ACCESS:          0  HIT:          0  MISS:          0
cpu0_L2C TOTAL     ACCESS:      35813  HIT:      10176  MISS:      25637
cpu0_L2C LOAD      ACCESS:      15457  HIT:          0  MISS:      15457
cpu0_L2C RFO       ACCESS:      10179  HIT:          0  MISS:      10179
cpu0_L2C PREFETCH  ACCESS:          0  HIT:          0  MISS:          0
cpu0_L2C WRITEBACK ACCESS:      10175  HIT:      10175  MISS:          0
LLC TOTAL     ACCESS:      35449  HIT:       2109  MISS:      33340
LLC LOAD      ACCESS:      15457  HIT:          0  MISS:      15457
LLC RFO       ACCESS:      10179  HIT:          1  MISS:      10178
LLC PREFETCH  ACCESS:          0  HIT:          0  MISS:          0
LLC WRITEBACK ACCESS:       9812  HIT:       2108  MISS:       7704
Heartbeat CPU 0 instructions: 74000000 cycles: 29621881 heartbeat IPC: 1.42896 cumulative IPC: 1.4225 (Simulation time: 0 hr 37 min 5 sec) 

Region of Interest Statistics
cpu0_DTLB TOTAL     ACCESS:    3973526  HIT:    3972918  MISS:        608
cpu0_DTLB LOAD      ACCESS:    2762297  HIT:    2761863  MISS:        434
cpu0_DTLB RFO       ACCESS:    1211229  HIT:    1211055  MISS:        174
cpu0_DTLB PREFETCH  ACCESS:          0  HIT:          0  MISS:          0
cpu0_DTLB WRITEBACK ACCESS:          0  HIT:          0  MISS:          0
cpu0_ITLB TOTAL     ACCESS:    1068836  HIT:    1068828  MISS:          8
cpu0_ITLB LOAD      ACCESS:    1068836  HIT:    1068828  MISS:          8
cpu0_ITLB RFO       ACCESS:          0  HIT:          0  MISS:          0
cpu0_ITLB PREFETCH  ACCESS:          0  HIT:          0  MISS:          0
cpu0_ITLB WRITEBACK ACCESS:          0  HIT:          0  MISS:          0
cpu0_L1I TOTAL     ACCESS:    1916180  HIT:    1916074  MISS:        106
cpu0_L1I LOAD      ACCESS:    1916180  HIT:    1916074  MISS:        106
cpu0_L1I RFO       ACCESS:          0  HIT:          0  MISS:          0
cpu0_L1I PREFETCH  ACCESS:          0  HIT:          0  MISS:          0
cpu0_L1I WRITEBACK ACCESS:          0  HIT:          0  MISS:          0
cpu0_STLB TOTAL     ACCESS:        616  HIT:          0  MISS:        616
cpu0_STLB LOAD      ACCESS:        442  HIT:          0  MISS:        442
cpu0_STLB RFO       ACCESS:        174  HIT:          0  MISS:        174
cpu0_STLB PREFETCH  ACCESS:          0  HIT:          0  MISS:          0
cpu0_STLB WRITEBACK ACCESS:          0  HIT:          0  MISS:          0
cpu0_L1D TOTAL     ACCESS:    5178739  HIT:    5150872  MISS:      27867
cpu0_L1D LOAD      ACCESS:    2824731  HIT:    2807965  MISS:      16766
cpu0_L1D RFO       ACCESS:    2353392  HIT:    2342293  MISS:      11099
cpu0_L1D PREFETCH  ACCESS:          0  HIT:          0  MISS:          0
cpu0_L1D WRITEBACK ACCESS:          0  HIT:          0  MISS:          0
cpu0_L2C TOTAL     ACCESS:      39073  HIT:      11101  MISS:      27972
cpu0_L2C LOAD      ACCESS:      16872  HIT:          0  MISS:      16872
cpu0_L2C RFO       ACCESS:      11099  HIT:          0  MISS:      11099
cpu0_L2C PREFETCH  ACCESS:          0  HIT:          0  MISS:          0
cpu0_L2C WRITEBACK ACCESS:      11100  HIT:      11100  MISS:          0
LLC TOTAL     ACCESS:      38890  HIT:       2364  MISS:      36526
LLC LOAD      ACCESS:      16872  HIT:          0  MISS:      16872
LLC RFO       ACCESS:      11099  HIT:          1  MISS:      11098
LLC PREFETCH  ACCESS:          0  HIT:          0  MISS:          0
LLC WRITEBACK ACCESS:      10918  HIT:       2363  MISS:       8555
Heartbeat CPU 0 instructions: 76000002 cycles: 31017458 heartbeat IPC: 1.4331 cumulative IPC: 1.42331 (Simulation time: 0 hr 38 min 57 sec) 

Region of Interest Statistics
cpu0_DTLB TOTAL     ACCESS:    4304758  HIT:    4304106  MISS:        652
cpu0_DTLB LOAD      ACCESS:    2992858  HIT:    2992395  MISS:        463
cpu0_DTLB RFO       ACCESS:    1311900  HIT:    1311711  MISS:        189
cpu0_DTLB PREFETCH  ACCESS:          0  HIT:          0  MISS:          0
cpu0_DTLB WRITEBACK ACCESS:          0  HIT:          0  MISS:          0
cpu0_ITLB TOTAL     ACCESS:    1157812  HIT:    1157804  MISS:          8
cpu0_ITLB LOAD      ACCESS:    1157812  HIT:    1157804  MISS:          8
cpu0_ITLB RFO       ACCESS:          0  HIT:          0  MISS:          0
cpu0_ITLB PREFETCH  ACCESS:          0  HIT:          0  MISS:          0
cpu0_ITLB WRITEBACK ACCESS:          0  HIT:          0  MISS:          0
cpu0_L1I TOTAL     ACCESS:    2076095  HIT:    2075989  MISS:        106
cpu0_L1I LOAD      ACCESS:    2076095  HIT:    2075989  MISS:        106
cpu0_L1I RFO       ACCESS:          0  HIT:          0  MISS:          0
cpu0_L1I PREFETCH  ACCESS:          0  HIT:          0  MISS:          0
cpu0_L1I WRITEBACK ACCESS:          0  HIT:          0  MISS:          0
cpu0_STLB TOTAL     ACCESS:        660  HIT:          0  MISS:        660
cpu0_STLB LOAD      ACCESS:        471  HIT:          0  MISS:        471
cpu0_STLB RFO       ACCESS:        189  HIT:          0  MISS:        189
cpu0_STLB PREFETCH  ACCESS:          0  HIT:          0  MISS:          0
cpu0_STLB WRITEBACK ACCESS:          0  HIT:          0  MISS:          0
cpu0_L1D TOTAL     ACCESS:    5610055  HIT:    5579878  MISS:      30177
cpu0_L1D LOAD      ACCESS:    3060052  HIT:    3041900  MISS:      18152
cpu0_L1D RFO       ACCESS:    2549343  HIT:    2537320  MISS:      12023
cpu0_L1D PREFETCH  ACCESS:          0  HIT:          0  MISS:          0
cpu0_L1D WRITEBACK ACCESS:          0  HIT:          0  MISS:          0
cpu0_L2C TOTAL     ACCESS:      42306  HIT:      12024  MISS:      30282
cpu0_L2C LOAD      ACCESS:      18258  HIT:          0  MISS:      18258
cpu0_L2C RFO       ACCESS:      12023  HIT:          0  MISS:      12023
cpu0_L2C PREFETCH  ACCESS:          0  HIT:          0  MISS:          0
cpu0_L2C WRITEBACK ACCESS:      12023  HIT:      12023  MISS:          0
LLC TOTAL     ACCESS:      42035  HIT:       2521  MISS:      39514
LLC LOAD      ACCESS:      18258  HIT:          0  MISS:      18258
LLC RFO       ACCESS:      12023  HIT:          1  MISS:      12022
LLC PREFETCH  ACCESS:          0  HIT:          0  MISS:          0
LLC WRITEBACK ACCESS:      11753  HIT:       2520  MISS:       9233
Heartbeat CPU 0 instructions: 78000001 cycles: 32416722 heartbeat IPC: 1.42932 cumulative IPC: 1.42374 (Simulation time: 0 hr 41 min 5 sec) 

Region of Interest Statistics
cpu0_DTLB TOTAL     ACCESS:    4636136  HIT:    4635442  MISS:        694
cpu0_DTLB LOAD      ACCESS:    3223454  HIT:    3222963  MISS:        491
cpu0_DTLB RFO       ACCESS:    1412682  HIT:    1412479  MISS:        203
cpu0_DTLB PREFETCH  ACCESS:          0  HIT:          0  MISS:          0
cpu0_DTLB WRITEBACK ACCESS:          0  HIT:          0  MISS:          0
cpu0_ITLB TOTAL     ACCESS:    1246817  HIT:    1246809  MISS:          8
cpu0_ITLB LOAD      ACCESS:    1246817  HIT:    1246809  MISS:          8
cpu0_ITLB RFO       ACCESS:          0  HIT:          0  MISS:          0
cpu0_ITLB PREFETCH  ACCESS:          0  HIT:          0  MISS:          0
cpu0_ITLB WRITEBACK ACCESS:          0  HIT:          0  MISS:          0
cpu0_L1I TOTAL     ACCESS:    2235965  HIT:    2235859  MISS:        106
cpu0_L1I LOAD      ACCESS:    2235965  HIT:    2235859  MISS:        106
cpu0_L1I RFO       ACCESS:          0  HIT:          0  MISS:          0
cpu0_L1I PREFETCH  ACCESS:          0  HIT:          0  MISS:          0
cpu0_L1I WRITEBACK ACCESS:          0  HIT:          0  MISS:          0
cpu0_STLB TOTAL     ACCESS:        702  HIT:          0  MISS:        702
cpu0_STLB LOAD      ACCESS:        499  HIT:          0  MISS:        499
cpu0_STLB RFO       ACCESS:        203  HIT:          0  MISS:        203
cpu0_STLB PREFETCH  ACCESS:          0  HIT:          0  MISS:          0
cpu0_STLB WRITEBACK ACCESS:          0  HIT:          0  MISS:          0
cpu0_L1D TOTAL     ACCESS:    6041551  HIT:    6009066  MISS:      32485
cpu0_L1D LOAD      ACCESS:    3295566  HIT:    3276029  MISS:      19537
cpu0_L1D RFO       ACCESS:    2745283  HIT:    2732337  MISS:      12946
cpu0_L1D PREFETCH  ACCESS:          0  HIT:          0  MISS:          0
cpu0_L1D WRITEBACK ACCESS:          0  HIT:          0  MISS:          0
cpu0_L2C TOTAL     ACCESS:      45532  HIT:      12942  MISS:      32590
cpu0_L2C LOAD      ACCESS:      19643  HIT:          0  MISS:      19643
cpu0_L2C RFO       ACCESS:      12946  HIT:          0  MISS:      12946
cpu0_L2C PREFETCH  ACCESS:          0  HIT:          0  MISS:          0
cpu0_L2C WRITEBACK ACCESS:      12941  HIT:      12941  MISS:          0
LLC TOTAL     ACCESS:      45038  HIT:       2686  MISS:      42352
LLC LOAD      ACCESS:      19643  HIT:          0  MISS:      19643
LLC RFO       ACCESS:      12946  HIT:          1  MISS:      12945
LLC PREFETCH  ACCESS:          0  HIT:          0  MISS:          0
LLC WRITEBACK ACCESS:      12448  HIT:       2685  MISS:       9763
Heartbeat CPU 0 instructions: 80000000 cycles: 33816505 heartbeat IPC: 1.42879 cumulative IPC: 1.42408 (Simulation time: 0 hr 42 min 55 sec) 

Region of Interest Statistics
cpu0_DTLB TOTAL     ACCESS:    4967414  HIT:    4966674  MISS:        740
cpu0_DTLB LOAD      ACCESS:    3454094  HIT:    3453572  MISS:        522
cpu0_DTLB RFO       ACCESS:    1513320  HIT:    1513102  MISS:        218
cpu0_DTLB PREFETCH  ACCESS:          0  HIT:          0  MISS:          0
cpu0_DTLB WRITEBACK ACCESS:          0  HIT:          0  MISS:          0
cpu0_ITLB TOTAL     ACCESS:    1335800  HIT:    1335792  MISS:          8
cpu0_ITLB LOAD      ACCESS:    1335800  HIT:    1335792  MISS:          8
cpu0_ITLB RFO       ACCESS:          0  HIT:          0  MISS:          0
cpu0_ITLB PREFETCH  ACCESS:          0  HIT:          0  MISS:          0
cpu0_ITLB WRITEBACK ACCESS:          0  HIT:          0  MISS:          0
cpu0_L1I TOTAL     ACCESS:    2395870  HIT:    2395764  MISS:        106
cpu0_L1I LOAD      ACCESS:    2395870  HIT:    2395764  MISS:        106
cpu0_L1I RFO       ACCESS:          0  HIT:          0  MISS:          0
cpu0_L1I PREFETCH  ACCESS:          0  HIT:          0  MISS:          0
cpu0_L1I WRITEBACK ACCESS:          0  HIT:          0  MISS:          0
cpu0_STLB TOTAL     ACCESS:        748  HIT:          0  MISS:        748
cpu0_STLB LOAD      ACCESS:        530  HIT:          0  MISS:        530
cpu0_STLB RFO       ACCESS:        218  HIT:          0  MISS:        218
cpu0_STLB PREFETCH  ACCESS:          0  HIT:          0  MISS:          0
cpu0_STLB WRITEBACK ACCESS:          0  HIT:          0  MISS:          0
cpu0_L1D TOTAL     ACCESS:    6472819  HIT:    6438024  MISS:      34795
cpu0_L1D LOAD      ACCESS:    3530837  HIT:    3509914  MISS:      20923
cpu0_L1D RFO       ACCESS:    2941234  HIT:    2927364  MISS:      13870
cpu0_L1D PREFETCH  ACCESS:          0  HIT:          0  MISS:          0
cpu0_L1D WRITEBACK ACCESS:          0  HIT:          0  MISS:          0
cpu0_L2C TOTAL     ACCESS:      48770  HIT:      13870  MISS:      34900
cpu0_L2C LOAD      ACCESS:      21029  HIT:          0  MISS:      21029
cpu0_L2C RFO       ACCESS:      13870  HIT:          0  MISS:      13870
cpu0_L2C PREFETCH  ACCESS:          0  HIT:          0  MISS:          0
cpu0_L2C WRITEBACK ACCESS:      13869  HIT:      13869  MISS:          0
LLC TOTAL     ACCESS:      48322  HIT:       2811  MISS:      45511
LLC LOAD      ACCESS:      21029  HIT:          0  MISS:      21029
LLC RFO       ACCESS:      13870  HIT:          1  MISS:      13869
LLC PREFETCH  ACCESS:          0  HIT:          0  MISS:          0
LLC WRITEBACK ACCESS:      13422  HIT:       2810  MISS:      10612
Heartbeat CPU 0 instructions: 82000003 cycles: 35213898 heartbeat IPC: 1.43124 cumulative IPC: 1.42452 (Simulation time: 0 hr 44 min 38 sec) 

Region of Interest Statistics
cpu0_DTLB TOTAL     ACCESS:    5299184  HIT:    5298386  MISS:        798
cpu0_DTLB LOAD      ACCESS:    3684654  HIT:    3684088  MISS:        566
cpu0_DTLB RFO       ACCESS:    1614530  HIT:    1614298  MISS:        232
cpu0_DTLB PREFETCH  ACCESS:          0  HIT:          0  MISS:          0
cpu0_DTLB WRITEBACK ACCESS:          0  HIT:          0  MISS:          0
cpu0_ITLB TOTAL     ACCESS:    1424526  HIT:    1424518  MISS:          8
cpu0_ITLB LOAD      ACCESS:    1424526  HIT:    1424518  MISS:          8
cpu0_ITLB RFO       ACCESS:          0  HIT:          0  MISS:          0
cpu0_ITLB PREFETCH  ACCESS:          0  HIT:          0  MISS:          0
cpu0_ITLB WRITEBACK ACCESS:          0  HIT:          0  MISS:          0
cpu0_L1I TOTAL     ACCESS:    2555120  HIT:    2555014  MISS:        106
cpu0_L1I LOAD      ACCESS:    2555120  HIT:    2555014  MISS:        106
cpu0_L1I RFO       ACCESS:          0  HIT:          0  MISS:          0
cpu0_L1I PREFETCH  ACCESS:          0  HIT:          0  MISS:          0
cpu0_L1I WRITEBACK ACCESS:          0  HIT:          0  MISS:          0
cpu0_STLB TOTAL     ACCESS:        806  HIT:          0  MISS:        806
cpu0_STLB LOAD      ACCESS:        574  HIT:          0  MISS:        574
cpu0_STLB RFO       ACCESS:        232  HIT:          0  MISS:        232
cpu0_STLB PREFETCH  ACCESS:          0  HIT:          0  MISS:          0
cpu0_STLB WRITEBACK ACCESS:          0  HIT:          0  MISS:          0
cpu0_L1D TOTAL     ACCESS:    6904725  HIT:    6867593  MISS:      37132
cpu0_L1D LOAD      ACCESS:    3765862  HIT:    3743523  MISS:      22339
cpu0_L1D RFO       ACCESS:    3138057  HIT:    3123266  MISS:      14791
cpu0_L1D PREFETCH  ACCESS:          0  HIT:          0  MISS:          0
cpu0_L1D WRITEBACK ACCESS:          0  HIT:          0  MISS:          0
cpu0_L2C TOTAL     ACCESS:      52032  HIT:      14795  MISS:      37237
cpu0_L2C LOAD      ACCESS:      22445  HIT:          0  MISS:      22445
cpu0_L2C RFO       ACCESS:      14791  HIT:          0  MISS:      14791
cpu0_L2C PREFETCH  ACCESS:          0  HIT:          0  MISS:          0
cpu0_L2C WRITEBACK ACCESS:      14794  HIT:      14794  MISS:          0
LLC TOTAL     ACCESS:      51603  HIT:       2945  MISS:      48658
LLC LOAD      ACCESS:      22445  HIT:          0  MISS:      22445
LLC RFO       ACCESS:      14791  HIT:          1  MISS:      14790
LLC PREFETCH  ACCESS:          0  HIT:          0  MISS:          0
LLC WRITEBACK ACCESS:      14366  HIT:       2944  MISS:      11422
Heartbeat CPU 0 instructions: 84000002 cycles: 36614483 heartbeat IPC: 1.42797 cumulative IPC: 1.42472 (Simulation time: 0 hr 46 min 7 sec) 

Region of Interest Statistics
cpu0_DTLB TOTAL     ACCESS:    5630301  HIT:    5629447  MISS:        854
cpu0_DTLB LOAD      ACCESS:    3915260  HIT:    3914652  MISS:        608
cpu0_DTLB RFO       ACCESS:    1715041  HIT:    1714795  MISS:        246
cpu0_DTLB PREFETCH  ACCESS:          0  HIT:          0  MISS:          0
cpu0_DTLB WRITEBACK ACCESS:          0  HIT:          0  MISS:          0
cpu0_ITLB TOTAL     ACCESS:    1513499  HIT:    1513491  MISS:          8
cpu0_ITLB LOAD      ACCESS:    1513499  HIT:    1513491  MISS:          8
cpu0_ITLB RFO       ACCESS:          0  HIT:          0  MISS:          0
cpu0_ITLB PREFETCH  ACCESS:          0  HIT:          0  MISS:          0
cpu0_ITLB WRITEBACK ACCESS:          0  HIT:          0  MISS:          0
cpu0_L1I TOTAL     ACCESS:    2715020  HIT:    2714914  MISS:        106
cpu0_L1I LOAD      ACCESS:    2715020  HIT:    2714914  MISS:        106
cpu0_L1I RFO       ACCESS:          0  HIT:          0  MISS:          0
cpu0_L1I PREFETCH  ACCESS:          0  HIT:          0  MISS:          0
cpu0_L1I WRITEBACK ACCESS:          0  HIT:          0  MISS:          0
cpu0_STLB TOTAL     ACCESS:        862  HIT:          0  MISS:        862
cpu0_STLB LOAD      ACCESS:        616  HIT:          0  MISS:        616
cpu0_STLB RFO       ACCESS:        246  HIT:          0  MISS:        246
cpu0_STLB PREFETCH  ACCESS:          0  HIT:          0  MISS:          0
cpu0_STLB WRITEBACK ACCESS:          0  HIT:          0  MISS:          0
cpu0_L1D TOTAL     ACCESS:    7335817  HIT:    7296377  MISS:      39440
cpu0_L1D LOAD      ACCESS:    4000958  HIT:    3977234  MISS:      23724
cpu0_L1D RFO       ACCESS:    3333997  HIT:    3318283  MISS:      15714
cpu0_L1D PREFETCH  ACCESS:          0  HIT:          0  MISS:          0
cpu0_L1D WRITEBACK ACCESS:          0  HIT:          0  MISS:          0
cpu0_L2C TOTAL     ACCESS:      55257  HIT:      15712  MISS:      39545
cpu0_L2C LOAD      ACCESS:      23830  HIT:          0  MISS:      23830
cpu0_L2C RFO       ACCESS:      15714  HIT:          0  MISS:      15714
cpu0_L2C PREFETCH  ACCESS:          0  HIT:          0  MISS:          0
cpu0_L2C WRITEBACK ACCESS:      15711  HIT:      15711  MISS:          0
LLC TOTAL     ACCESS:      54996  HIT:       3080  MISS:      51916
LLC LOAD      ACCESS:      23830  HIT:          0  MISS:      23830
LLC RFO       ACCESS:      15714  HIT:          1  MISS:      15713
LLC PREFETCH  ACCESS:          0  HIT:          0  MISS:          0
LLC WRITEBACK ACCESS:      15451  HIT:       3079  MISS:      12372
Heartbeat CPU 0 instructions: 86000000 cycles: 38017270 heartbeat IPC: 1.42573 cumulative IPC: 1.42478 (Simulation time: 0 hr 47 min 33 sec) 

Region of Interest Statistics
cpu0_DTLB TOTAL     ACCESS:    5961546  HIT:    5960634  MISS:        912
cpu0_DTLB LOAD      ACCESS:    4145874  HIT:    4145223  MISS:        651
cpu0_DTLB RFO       ACCESS:    1815672  HIT:    1815411  MISS:        261
cpu0_DTLB PREFETCH  ACCESS:          0  HIT:          0  MISS:          0
cpu0_DTLB WRITEBACK ACCESS:          0  HIT:          0  MISS:          0
cpu0_ITLB TOTAL     ACCESS:    1602469  HIT:    1602461  MISS:          8
cpu0_ITLB LOAD      ACCESS:    1602469  HIT:    1602461  MISS:          8
cpu0_ITLB RFO       ACCESS:          0  HIT:          0  MISS:          0
cpu0_ITLB PREFETCH  ACCESS:          0  HIT:          0  MISS:          0
cpu0_ITLB WRITEBACK ACCESS:          0  HIT:          0  MISS:          0
cpu0_L1I TOTAL     ACCESS:    2874928  HIT:    2874822  MISS:        106
cpu0_L1I LOAD      ACCESS:    2874928  HIT:    2874822  MISS:        106
cpu0_L1I RFO       ACCESS:          0  HIT:          0  MISS:          0
cpu0_L1I PREFETCH  ACCESS:          0  HIT:          0  MISS:          0
cpu0_L1I WRITEBACK ACCESS:          0  HIT:          0  MISS:          0
cpu0_STLB TOTAL     ACCESS:        920  HIT:          0  MISS:        920
cpu0_STLB LOAD      ACCESS:        659  HIT:          0  MISS:        659
cpu0_STLB RFO       ACCESS:        261  HIT:          0  MISS:        261
cpu0_STLB PREFETCH  ACCESS:          0  HIT:          0  MISS:          0
cpu0_STLB WRITEBACK ACCESS:          0  HIT:          0  MISS:          0
cpu0_L1D TOTAL     ACCESS:    7766946  HIT:    7725196  MISS:      41750
cpu0_L1D LOAD      ACCESS:    4236080  HIT:    4210970  MISS:      25110
cpu0_L1D RFO       ACCESS:    3529946  HIT:    3513308  MISS:      16638
cpu0_L1D PREFETCH  ACCESS:          0  HIT:          0  MISS:          0
cpu0_L1D WRITEBACK ACCESS:          0  HIT:          0  MISS:          0
cpu0_L2C TOTAL     ACCESS:      58491  HIT:      16636  MISS:      41855
cpu0_L2C LOAD      ACCESS:      25216  HIT:          0  MISS:      25216
cpu0_L2C RFO       ACCESS:      16638  HIT:          0  MISS:      16638
cpu0_L2C PREFETCH  ACCESS:          0  HIT:          0  MISS:          0
cpu0_L2C WRITEBACK ACCESS:      16635  HIT:      16635  MISS:          0
LLC TOTAL     ACCESS:      58222  HIT:       3158  MISS:      55064
LLC LOAD      ACCESS:      25216  HIT:          0  MISS:      25216
LLC RFO       ACCESS:      16638  HIT:          1  MISS:      16637
LLC PREFETCH  ACCESS:          0  HIT:          0  MISS:          0
LLC WRITEBACK ACCESS:      16367  HIT:       3157  MISS:      13210
Heartbeat CPU 0 instructions: 88000004 cycles: 39418509 heartbeat IPC: 1.42731 cumulative IPC: 1.42491 (Simulation time: 0 hr 49 min 1 sec) 

Region of Interest Statistics
cpu0_DTLB TOTAL     ACCESS:    6292860  HIT:    6291892  MISS:        968
cpu0_DTLB LOAD      ACCESS:    4376510  HIT:    4375817  MISS:        693
cpu0_DTLB RFO       ACCESS:    1916350  HIT:    1916075  MISS:        275
cpu0_DTLB PREFETCH  ACCESS:          0  HIT:          0  MISS:          0
cpu0_DTLB WRITEBACK ACCESS:          0  HIT:          0  MISS:          0
cpu0_ITLB TOTAL     ACCESS:    1691476  HIT:    1691468  MISS:          8
cpu0_ITLB LOAD      ACCESS:    1691476  HIT:    1691468  MISS:          8
cpu0_ITLB RFO       ACCESS:          0  HIT:          0  MISS:          0
cpu0_ITLB PREFETCH  ACCESS:          0  HIT:          0  MISS:          0
cpu0_ITLB WRITEBACK ACCESS:          0  HIT:          0  MISS:          0
cpu0_L1I TOTAL     ACCESS:    3034810  HIT:    3034704  MISS:        106
cpu0_L1I LOAD      ACCESS:    3034810  HIT:    3034704  MISS:        106
cpu0_L1I RFO       ACCESS:          0  HIT:          0  MISS:          0
cpu0_L1I PREFETCH  ACCESS:          0  HIT:          0  MISS:          0
cpu0_L1I WRITEBACK ACCESS:          0  HIT:          0  MISS:          0
cpu0_STLB TOTAL     ACCESS:        976  HIT:          0  MISS:        976
cpu0_STLB LOAD      ACCESS:        701  HIT:          0  MISS:        701
cpu0_STLB RFO       ACCESS:        275  HIT:          0  MISS:        275
cpu0_STLB PREFETCH  ACCESS:          0  HIT:          0  MISS:          0
cpu0_STLB WRITEBACK ACCESS:          0  HIT:          0  MISS:          0
cpu0_L1D TOTAL     ACCESS:    8198203  HIT:    8154145  MISS:      44058
cpu0_L1D LOAD      ACCESS:    4471342  HIT:    4444847  MISS:      26495
cpu0_L1D RFO       ACCESS:    3725885  HIT:    3708324  MISS:      17561
cpu0_L1D PREFETCH  ACCESS:          0  HIT:          0  MISS:          0
cpu0_L1D WRITEBACK ACCESS:          0  HIT:          0  MISS:          0
cpu0_L2C TOTAL     ACCESS:      61721  HIT:      17558  MISS:      44163
cpu0_L2C LOAD      ACCESS:      26601  HIT:          0  MISS:      26601
cpu0_L2C RFO       ACCESS:      17561  HIT:          0  MISS:      17561
cpu0_L2C PREFETCH  ACCESS:          0  HIT:          0  MISS:          0
cpu0_L2C WRITEBACK ACCESS:      17557  HIT:      17557  MISS:          0
LLC TOTAL     ACCESS:      61373  HIT:       3231  MISS:      58142
LLC LOAD      ACCESS:      26601  HIT:          0  MISS:      26601
LLC RFO       ACCESS:      17561  HIT:          1  MISS:      17560
LLC PREFETCH  ACCESS:          0  HIT:          0  MISS:          0
LLC WRITEBACK ACCESS:      17210  HIT:       3230  MISS:      13980
Heartbeat CPU 0 instructions: 90000003 cycles: 40821351 heartbeat IPC: 1.42568 cumulative IPC: 1.42495 (Simulation time: 0 hr 50 min 8 sec) 

Region of Interest Statistics
cpu0_DTLB TOTAL     ACCESS:    6624737  HIT:    6623709  MISS:       1028
cpu0_DTLB LOAD      ACCESS:    4607058  HIT:    4606320  MISS:        738
cpu0_DTLB RFO       ACCESS:    2017679  HIT:    2017389  MISS:        290
cpu0_DTLB PREFETCH  ACCESS:          0  HIT:          0  MISS:          0
cpu0_DTLB WRITEBACK ACCESS:          0  HIT:          0  MISS:          0
cpu0_ITLB TOTAL     ACCESS:    1780240  HIT:    1780232  MISS:          8
cpu0_ITLB LOAD      ACCESS:    1780240  HIT:    1780232  MISS:          8
cpu0_ITLB RFO       ACCESS:          0  HIT:          0  MISS:          0
cpu0_ITLB PREFETCH  ACCESS:          0  HIT:          0  MISS:          0
cpu0_ITLB WRITEBACK ACCESS:          0  HIT:          0  MISS:          0
cpu0_L1I TOTAL     ACCESS:    3194029  HIT:    3193923  MISS:        106
cpu0_L1I LOAD      ACCESS:    3194029  HIT:    3193923  MISS:        106
cpu0_L1I RFO       ACCESS:          0  HIT:          0  MISS:          0
cpu0_L1I PREFETCH  ACCESS:          0  HIT:          0  MISS:          0
cpu0_L1I WRITEBACK ACCESS:          0  HIT:          0  MISS:          0
cpu0_STLB TOTAL     ACCESS:       1036  HIT:          0  MISS:       1036
cpu0_STLB LOAD      ACCESS:        746  HIT:          0  MISS:        746
cpu0_STLB RFO       ACCESS:        290  HIT:          0  MISS:        290
cpu0_STLB PREFETCH  ACCESS:          0  HIT:          0  MISS:          0
cpu0_STLB WRITEBACK ACCESS:          0  HIT:          0  MISS:          0
cpu0_L1D TOTAL     ACCESS:    8630299  HIT:    8583904  MISS:      46395
cpu0_L1D LOAD      ACCESS:    4706554  HIT:    4678643  MISS:      27911
cpu0_L1D RFO       ACCESS:    3922709  HIT:    3904227  MISS:      18482
cpu0_L1D PREFETCH  ACCESS:          0  HIT:          0  MISS:          0
cpu0_L1D WRITEBACK ACCESS:          0  HIT:          0  MISS:          0
cpu0_L2C TOTAL     ACCESS:      64978  HIT:      18478  MISS:      46500
cpu0_L2C LOAD      ACCESS:      28017  HIT:          0  MISS:      28017
cpu0_L2C RFO       ACCESS:      18482  HIT:          0  MISS:      18482
cpu0_L2C PREFETCH  ACCESS:          0  HIT:          0  MISS:          0
cpu0_L2C WRITEBACK ACCESS:      18477  HIT:      18477  MISS:          0
LLC TOTAL     ACCESS:      64584  HIT:       3333  MISS:      61251
LLC LOAD      ACCESS:      28017  HIT:          0  MISS:      28017
LLC RFO       ACCESS:      18482  HIT:          1  MISS:      18481
LLC PREFETCH  ACCESS:          0  HIT:          0  MISS:          0
LLC WRITEBACK ACCESS:      18084  HIT:       3332  MISS:      14752
Heartbeat CPU 0 instructions: 92000000 cycles: 42220396 heartbeat IPC: 1.42954 cumulative IPC: 1.42517 (Simulation time: 0 hr 51 min 16 sec) 

Region of Interest Statistics
cpu0_DTLB TOTAL     ACCESS:    6956070  HIT:    6954988  MISS:       1082
cpu0_DTLB LOAD      ACCESS:    4837689  HIT:    4836911  MISS:        778
cpu0_DTLB RFO       ACCESS:    2118381  HIT:    2118077  MISS:        304
cpu0_DTLB PREFETCH  ACCESS:          0  HIT:          0  MISS:          0
cpu0_DTLB WRITEBACK ACCESS:          0  HIT:          0  MISS:          0
cpu0_ITLB TOTAL     ACCESS:    1869214  HIT:    1869206  MISS:          8
cpu0_ITLB LOAD      ACCESS:    1869214  HIT:    1869206  MISS:          8
cpu0_ITLB RFO       ACCESS:          0  HIT:          0  MISS:          0
cpu0_ITLB PREFETCH  ACCESS:          0  HIT:          0  MISS:          0
cpu0_ITLB WRITEBACK ACCESS:          0  HIT:          0  MISS:          0
cpu0_L1I TOTAL     ACCESS:    3353935  HIT:    3353829  MISS:        106
cpu0_L1I LOAD      ACCESS:    3353935  HIT:    3353829  MISS:        106
cpu0_L1I RFO       ACCESS:          0  HIT:          0  MISS:          0
cpu0_L1I PREFETCH  ACCESS:          0  HIT:          0  MISS:          0
cpu0_L1I WRITEBACK ACCESS:          0  HIT:          0  MISS:          0
cpu0_STLB TOTAL     ACCESS:       1090  HIT:          0  MISS:       1090
cpu0_STLB LOAD      ACCESS:        786  HIT:          0  MISS:        786
cpu0_STLB RFO       ACCESS:        304  HIT:          0  MISS:        304
cpu0_STLB PREFETCH  ACCESS:          0  HIT:          0  MISS:          0
cpu0_STLB WRITEBACK ACCESS:          0  HIT:          0  MISS:          0
cpu0_L1D TOTAL     ACCESS:    9061614  HIT:    9012909  MISS:      48705
cpu0_L1D LOAD      ACCESS:    4941866  HIT:    4912569  MISS:      29297
cpu0_L1D RFO       ACCESS:    4118658  HIT:    4099252  MISS:      19406
cpu0_L1D PREFETCH  ACCESS:          0  HIT:          0  MISS:          0
cpu0_L1D WRITEBACK ACCESS:          0  HIT:          0  MISS:          0
cpu0_L2C TOTAL     ACCESS:      68216  HIT:      19406  MISS:      48810
cpu0_L2C LOAD      ACCESS:      29403  HIT:          0  MISS:      29403
cpu0_L2C RFO       ACCESS:      19406  HIT:          0  MISS:      19406
cpu0_L2C PREFETCH  ACCESS:          0  HIT:          0  MISS:          0
cpu0_L2C WRITEBACK ACCESS:      19405  HIT:      19405  MISS:          0
LLC TOTAL     ACCESS:      67838  HIT:       3498  MISS:      64340
LLC LOAD      ACCESS:      29403  HIT:          0  MISS:      29403
LLC RFO       ACCESS:      19406  HIT:          1  MISS:      19405
LLC PREFETCH  ACCESS:          0  HIT:          0  MISS:          0
LLC WRITEBACK ACCESS:      19028  HIT:       3497  MISS:      15531
Heartbeat CPU 0 instructions: 94000000 cycles: 43621498 heartbeat IPC: 1.42745 cumulative IPC: 1.42527 (Simulation time: 0 hr 52 min 26 sec) 

Region of Interest Statistics
cpu0_DTLB TOTAL     ACCESS:    7287252  HIT:    7286126  MISS:       1126
cpu0_DTLB LOAD      ACCESS:    5068370  HIT:    5067563  MISS:        807
cpu0_DTLB RFO       ACCESS:    2218882  HIT:    2218563  MISS:        319
cpu0_DTLB PREFETCH  ACCESS:          0  HIT:          0  MISS:          0
cpu0_DTLB WRITEBACK ACCESS:          0  HIT:          0  MISS:          0
cpu0_ITLB TOTAL     ACCESS:    1958199  HIT:    1958191  MISS:          8
cpu0_ITLB LOAD      ACCESS:    1958199  HIT:    1958191  MISS:          8
cpu0_ITLB RFO       ACCESS:          0  HIT:          0  MISS:          0
cpu0_ITLB PREFETCH  ACCESS:          0  HIT:          0  MISS:          0
cpu0_ITLB WRITEBACK ACCESS:          0  HIT:          0  MISS:          0
cpu0_L1I TOTAL     ACCESS:    3513836  HIT:    3513730  MISS:        106
cpu0_L1I LOAD      ACCESS:    3513836  HIT:    3513730  MISS:        106
cpu0_L1I RFO       ACCESS:          0  HIT:          0  MISS:          0
cpu0_L1I PREFETCH  ACCESS:          0  HIT:          0  MISS:          0
cpu0_L1I WRITEBACK ACCESS:          0  HIT:          0  MISS:          0
cpu0_STLB TOTAL     ACCESS:       1134  HIT:          0  MISS:       1134
cpu0_STLB LOAD      ACCESS:        815  HIT:          0  MISS:        815
cpu0_STLB RFO       ACCESS:        319  HIT:          0  MISS:        319
cpu0_STLB PREFETCH  ACCESS:          0  HIT:          0  MISS:          0
cpu0_STLB WRITEBACK ACCESS:          0  HIT:          0  MISS:          0
cpu0_L1D TOTAL     ACCESS:    9492738  HIT:    9441725  MISS:      51013
cpu0_L1D LOAD      ACCESS:    5177005  HIT:    5146323  MISS:      30682
cpu0_L1D RFO       ACCESS:    4314599  HIT:    4294270  MISS:      20329
cpu0_L1D PREFETCH  ACCESS:          0  HIT:          0  MISS:          0
cpu0_L1D WRITEBACK ACCESS:          0  HIT:          0  MISS:          0
cpu0_L2C TOTAL     ACCESS:      71446  HIT:      20328  MISS:      51118
cpu0_L2C LOAD      ACCESS:      30788  HIT:          0  MISS:      30788
cpu0_L2C RFO       ACCESS:      20329  HIT:          0  MISS:      20329
cpu0_L2C PREFETCH  ACCESS:          0  HIT:          0  MISS:          0
cpu0_L2C WRITEBACK ACCESS:      20327  HIT:      20327  MISS:          0
LLC TOTAL     ACCESS:      71094  HIT:       3711  MISS:      67383
LLC LOAD      ACCESS:      30788  HIT:          0  MISS:      30788
LLC RFO       ACCESS:      20329  HIT:          1  MISS:      20328
LLC PREFETCH  ACCESS:          0  HIT:          0  MISS:          0
LLC WRITEBACK ACCESS:      19976  HIT:       3710  MISS:      16266
Heartbeat CPU 0 instructions: 96000001 cycles: 45020717 heartbeat IPC: 1.42937 cumulative IPC: 1.42545 (Simulation time: 0 hr 53 min 44 sec) 

Region of Interest Statistics
cpu0_DTLB TOTAL     ACCESS:    7618657  HIT:    7617489  MISS:       1168
cpu0_DTLB LOAD      ACCESS:    5298944  HIT:    5298109  MISS:        835
cpu0_DTLB RFO       ACCESS:    2319713  HIT:    2319380  MISS:        333
cpu0_DTLB PREFETCH  ACCESS:          0  HIT:          0  MISS:          0
cpu0_DTLB WRITEBACK ACCESS:          0  HIT:          0  MISS:          0
cpu0_ITLB TOTAL     ACCESS:    2047225  HIT:    2047217  MISS:          8
cpu0_ITLB LOAD      ACCESS:    2047225  HIT:    2047217  MISS:          8
cpu0_ITLB RFO       ACCESS:          0  HIT:          0  MISS:          0
cpu0_ITLB PREFETCH  ACCESS:          0  HIT:          0  MISS:          0
cpu0_ITLB WRITEBACK ACCESS:          0  HIT:          0  MISS:          0
cpu0_L1I TOTAL     ACCESS:    3673696  HIT:    3673590  MISS:        106
cpu0_L1I LOAD      ACCESS:    3673696  HIT:    3673590  MISS:        106
cpu0_L1I RFO       ACCESS:          0  HIT:          0  MISS:          0
cpu0_L1I PREFETCH  ACCESS:          0  HIT:          0  MISS:          0
cpu0_L1I WRITEBACK ACCESS:          0  HIT:          0  MISS:          0
cpu0_STLB TOTAL     ACCESS:       1176  HIT:          0  MISS:       1176
cpu0_STLB LOAD      ACCESS:        843  HIT:          0  MISS:        843
cpu0_STLB RFO       ACCESS:        333  HIT:          0  MISS:        333
cpu0_STLB PREFETCH  ACCESS:          0  HIT:          0  MISS:          0
cpu0_STLB WRITEBACK ACCESS:          0  HIT:          0  MISS:          0
cpu0_L1D TOTAL     ACCESS:    9924303  HIT:    9870980  MISS:      53323
cpu0_L1D LOAD      ACCESS:    5412579  HIT:    5380511  MISS:      32068
cpu0_L1D RFO       ACCESS:    4510548  HIT:    4489295  MISS:      21253
cpu0_L1D PREFETCH  ACCESS:          0  HIT:          0  MISS:          0
cpu0_L1D WRITEBACK ACCESS:          0  HIT:          0  MISS:          0
cpu0_L2C TOTAL     ACCESS:      74678  HIT:      21250  MISS:      53428
cpu0_L2C LOAD      ACCESS:      32174  HIT:          0  MISS:      32174
cpu0_L2C RFO       ACCESS:      21253  HIT:          0  MISS:      21253
cpu0_L2C PREFETCH  ACCESS:          0  HIT:          0  MISS:          0
cpu0_L2C WRITEBACK ACCESS:      21249  HIT:      21249  MISS:          0
LLC TOTAL     ACCESS:      74298  HIT:       3783  MISS:      70515
LLC LOAD      ACCESS:      32174  HIT:          0  MISS:      32174
LLC RFO       ACCESS:      21253  HIT:          1  MISS:      21252
LLC PREFETCH  ACCESS:          0  HIT:          0  MISS:          0
LLC WRITEBACK ACCESS:      20870  HIT:       3782  MISS:      17088
Heartbeat CPU 0 instructions: 98000001 cycles: 46418976 heartbeat IPC: 1.43035 cumulative IPC: 1.42565 (Simulation time: 0 hr 55 min 15 sec) 

Region of Interest Statistics
cpu0_DTLB TOTAL     ACCESS:    7950536  HIT:    7949325  MISS:       1211
cpu0_DTLB LOAD      ACCESS:    5529569  HIT:    5528705  MISS:        864
cpu0_DTLB RFO       ACCESS:    2420967  HIT:    2420620  MISS:        347
cpu0_DTLB PREFETCH  ACCESS:          0  HIT:          0  MISS:          0
cpu0_DTLB WRITEBACK ACCESS:          0  HIT:          0  MISS:          0
cpu0_ITLB TOTAL     ACCESS:    2135975  HIT:    2135967  MISS:          8
cpu0_ITLB LOAD      ACCESS:    2135975  HIT:    2135967  MISS:          8
cpu0_ITLB RFO       ACCESS:          0  HIT:          0  MISS:          0
cpu0_ITLB PREFETCH  ACCESS:          0  HIT:          0  MISS:          0
cpu0_ITLB WRITEBACK ACCESS:          0  HIT:          0  MISS:          0
cpu0_L1I TOTAL     ACCESS:    3832928  HIT:    3832822  MISS:        106
cpu0_L1I LOAD      ACCESS:    3832928  HIT:    3832822  MISS:        106
cpu0_L1I RFO       ACCESS:          0  HIT:          0  MISS:          0
cpu0_L1I PREFETCH  ACCESS:          0  HIT:          0  MISS:          0
cpu0_L1I WRITEBACK ACCESS:          0  HIT:          0  MISS:          0
cpu0_STLB TOTAL     ACCESS:       1219  HIT:          0  MISS:       1219
cpu0_STLB LOAD      ACCESS:        872  HIT:          0  MISS:        872
cpu0_STLB RFO       ACCESS:        347  HIT:          0  MISS:        347
cpu0_STLB PREFETCH  ACCESS:          0  HIT:          0  MISS:          0
cpu0_STLB WRITEBACK ACCESS:          0  HIT:          0  MISS:          0
cpu0_L1D TOTAL     ACCESS:   10356215  HIT:   10300555  MISS:      55660
cpu0_L1D LOAD      ACCESS:    5647627  HIT:    5614143  MISS:      33484
cpu0_L1D RFO       ACCESS:    4707369  HIT:    4685195  MISS:      22174
cpu0_L1D PREFETCH  ACCESS:          0  HIT:          0  MISS:          0
cpu0_L1D WRITEBACK ACCESS:          0  HIT:          0  MISS:          0
cpu0_L2C TOTAL     ACCESS:      77941  HIT:      22176  MISS:      55765
cpu0_L2C LOAD      ACCESS:      33590  HIT:          0  MISS:      33590
cpu0_L2C RFO       ACCESS:      22174  HIT:          0  MISS:      22174
cpu0_L2C PREFETCH  ACCESS:          0  HIT:          0  MISS:          0
cpu0_L2C WRITEBACK ACCESS:      22175  HIT:      22175  MISS:          0
LLC TOTAL     ACCESS:      77430  HIT:       3829  MISS:      73601
LLC LOAD      ACCESS:      33590  HIT:          0  MISS:      33590
LLC RFO       ACCESS:      22174  HIT:          1  MISS:      22173
LLC PREFETCH  ACCESS:          0  HIT:          0  MISS:          0
LLC WRITEBACK ACCESS:      21665  HIT:       3828  MISS:      17837
Heartbeat CPU 0 instructions: 100000001 cycles: 47817955 heartbeat IPC: 1.42961 cumulative IPC: 1.42581 (Simulation time: 0 hr 56 min 44 sec) 

Region of Interest Statistics
cpu0_DTLB TOTAL     ACCESS:    8281944  HIT:    8280689  MISS:       1255
cpu0_DTLB LOAD      ACCESS:    5760169  HIT:    5759276  MISS:        893
cpu0_DTLB RFO       ACCESS:    2521775  HIT:    2521413  MISS:        362
cpu0_DTLB PREFETCH  ACCESS:          0  HIT:          0  MISS:          0
cpu0_DTLB WRITEBACK ACCESS:          0  HIT:          0  MISS:          0
cpu0_ITLB TOTAL     ACCESS:    2224965  HIT:    2224957  MISS:          8
cpu0_ITLB LOAD      ACCESS:    2224965  HIT:    2224957  MISS:          8
cpu0_ITLB RFO       ACCESS:          0  HIT:          0  MISS:          0
cpu0_ITLB PREFETCH  ACCESS:          0  HIT:          0  MISS:          0
cpu0_ITLB WRITEBACK ACCESS:          0  HIT:          0  MISS:          0
cpu0_L1I TOTAL     ACCESS:    3992823  HIT:    3992717  MISS:        106
cpu0_L1I LOAD      ACCESS:    3992823  HIT:    3992717  MISS:        106
cpu0_L1I RFO       ACCESS:          0  HIT:          0  MISS:          0
cpu0_L1I PREFETCH  ACCESS:          0  HIT:          0  MISS:          0
cpu0_L1I WRITEBACK ACCESS:          0  HIT:          0  MISS:          0
cpu0_STLB TOTAL     ACCESS:       1263  HIT:          0  MISS:       1263
cpu0_STLB LOAD      ACCESS:        901  HIT:          0  MISS:        901
cpu0_STLB RFO       ACCESS:        362  HIT:          0  MISS:        362
cpu0_STLB PREFETCH  ACCESS:          0  HIT:          0  MISS:          0
cpu0_STLB WRITEBACK ACCESS:          0  HIT:          0  MISS:          0
cpu0_L1D TOTAL     ACCESS:   10787733  HIT:   10729765  MISS:      57968
cpu0_L1D LOAD      ACCESS:    5883158  HIT:    5848289  MISS:      34869
cpu0_L1D RFO       ACCESS:    4903312  HIT:    4880215  MISS:      23097
cpu0_L1D PREFETCH  ACCESS:          0  HIT:          0  MISS:          0
cpu0_L1D WRITEBACK ACCESS:          0  HIT:          0  MISS:          0
cpu0_L2C TOTAL     ACCESS:      81170  HIT:      23097  MISS:      58073
cpu0_L2C LOAD      ACCESS:      34975  HIT:          0  MISS:      34975
cpu0_L2C RFO       ACCESS:      23097  HIT:          0  MISS:      23097
cpu0_L2C PREFETCH  ACCESS:          0  HIT:          0  MISS:          0
cpu0_L2C WRITEBACK ACCESS:      23096  HIT:      23096  MISS:          0
LLC TOTAL     ACCESS:      80980  HIT:       3987  MISS:      76993
LLC LOAD      ACCESS:      34975  HIT:          0  MISS:      34975
LLC RFO       ACCESS:      23097  HIT:          1  MISS:      23096
LLC PREFETCH  ACCESS:          0  HIT:          0  MISS:          0
LLC WRITEBACK ACCESS:      22907  HIT:       3986  MISS:      18921
Heartbeat CPU 0 instructions: 102000002 cycles: 49215104 heartbeat IPC: 1.43149 cumulative IPC: 1.42603 (Simulation time: 0 hr 57 min 54 sec) 

Region of Interest Statistics
cpu0_DTLB TOTAL     ACCESS:    8613172  HIT:    8611875  MISS:       1297
cpu0_DTLB LOAD      ACCESS:    5990783  HIT:    5989862  MISS:        921
cpu0_DTLB RFO       ACCESS:    2622389  HIT:    2622013  MISS:        376
cpu0_DTLB PREFETCH  ACCESS:          0  HIT:          0  MISS:          0
cpu0_DTLB WRITEBACK ACCESS:          0  HIT:          0  MISS:          0
cpu0_ITLB TOTAL     ACCESS:    2313955  HIT:    2313947  MISS:          8
cpu0_ITLB LOAD      ACCESS:    2313955  HIT:    2313947  MISS:          8
cpu0_ITLB RFO       ACCESS:          0  HIT:          0  MISS:          0
cpu0_ITLB PREFETCH  ACCESS:          0  HIT:          0  MISS:          0
cpu0_ITLB WRITEBACK ACCESS:          0  HIT:          0  MISS:          0
cpu0_L1I TOTAL     ACCESS:    4152721  HIT:    4152615  MISS:        106
cpu0_L1I LOAD      ACCESS:    4152721  HIT:    4152615  MISS:        106
cpu0_L1I RFO       ACCESS:          0  HIT:          0  MISS:          0
cpu0_L1I PREFETCH  ACCESS:          0  HIT:          0  MISS:          0
cpu0_L1I WRITEBACK ACCESS:          0  HIT:          0  MISS:          0
cpu0_STLB TOTAL     ACCESS:       1305  HIT:          0  MISS:       1305
cpu0_STLB LOAD      ACCESS:        929  HIT:          0  MISS:        929
cpu0_STLB RFO       ACCESS:        376  HIT:          0  MISS:        376
cpu0_STLB PREFETCH  ACCESS:          0  HIT:          0  MISS:          0
cpu0_STLB WRITEBACK ACCESS:          0  HIT:          0  MISS:          0
cpu0_L1D TOTAL     ACCESS:   11219020  HIT:   11158742  MISS:      60278
cpu0_L1D LOAD      ACCESS:    6118455  HIT:    6082200  MISS:      36255
cpu0_L1D RFO       ACCESS:    5099260  HIT:    5075239  MISS:      24021
cpu0_L1D PREFETCH  ACCESS:          0  HIT:          0  MISS:          0
cpu0_L1D WRITEBACK ACCESS:          0  HIT:          0  MISS:          0
cpu0_L2C TOTAL     ACCESS:      84401  HIT:      24018  MISS:      60383
cpu0_L2C LOAD      ACCESS:      36361  HIT:          0  MISS:      36361
cpu0_L2C RFO       ACCESS:      24021  HIT:          0  MISS:      24021
cpu0_L2C PREFETCH  ACCESS:          0  HIT:          0  MISS:          0
cpu0_L2C WRITEBACK ACCESS:      24017  HIT:      24017  MISS:          0
LLC TOTAL     ACCESS:      84083  HIT:       4072  MISS:      80011
LLC LOAD      ACCESS:      36361  HIT:          0  MISS:      36361
LLC RFO       ACCESS:      24021  HIT:          1  MISS:      24020
LLC PREFETCH  ACCESS:          0  HIT:          0  MISS:          0
LLC WRITEBACK ACCESS:      23700  HIT:       4071  MISS:      19629
Heartbeat CPU 0 instructions: 104000002 cycles: 50616508 heartbeat IPC: 1.42714 cumulative IPC: 1.42607 (Simulation time: 0 hr 59 min 5 sec) 

Region of Interest Statistics
cpu0_DTLB TOTAL     ACCESS:    8944414  HIT:    8943071  MISS:       1343
cpu0_DTLB LOAD      ACCESS:    6221416  HIT:    6220464  MISS:        952
cpu0_DTLB RFO       ACCESS:    2722998  HIT:    2722607  MISS:        391
cpu0_DTLB PREFETCH  ACCESS:          0  HIT:          0  MISS:          0
cpu0_DTLB WRITEBACK ACCESS:          0  HIT:          0  MISS:          0
cpu0_ITLB TOTAL     ACCESS:    2402914  HIT:    2402906  MISS:          8
cpu0_ITLB LOAD      ACCESS:    2402914  HIT:    2402906  MISS:          8
cpu0_ITLB RFO       ACCESS:          0  HIT:          0  MISS:          0
cpu0_ITLB PREFETCH  ACCESS:          0  HIT:          0  MISS:          0
cpu0_ITLB WRITEBACK ACCESS:          0  HIT:          0  MISS:          0
cpu0_L1I TOTAL     ACCESS:    4312645  HIT:    4312539  MISS:        106
cpu0_L1I LOAD      ACCESS:    4312645  HIT:    4312539  MISS:        106
cpu0_L1I RFO       ACCESS:          0  HIT:          0  MISS:          0
cpu0_L1I PREFETCH  ACCESS:          0  HIT:          0  MISS:          0
cpu0_L1I WRITEBACK ACCESS:          0  HIT:          0  MISS:          0
cpu0_STLB TOTAL     ACCESS:       1351  HIT:          0  MISS:       1351
cpu0_STLB LOAD      ACCESS:        960  HIT:          0  MISS:        960
cpu0_STLB RFO       ACCESS:        391  HIT:          0  MISS:        391
cpu0_STLB PREFETCH  ACCESS:          0  HIT:          0  MISS:          0
cpu0_STLB WRITEBACK ACCESS:          0  HIT:          0  MISS:          0
cpu0_L1D TOTAL     ACCESS:   11650278  HIT:   11587692  MISS:      62586
cpu0_L1D LOAD      ACCESS:    6353724  HIT:    6316084  MISS:      37640
cpu0_L1D RFO       ACCESS:    5295203  HIT:    5270259  MISS:      24944
cpu0_L1D PREFETCH  ACCESS:          0  HIT:          0  MISS:          0
cpu0_L1D WRITEBACK ACCESS:          0  HIT:          0  MISS:          0
cpu0_L2C TOTAL     ACCESS:      87636  HIT:      24945  MISS:      62691
cpu0_L2C LOAD      ACCESS:      37746  HIT:          0  MISS:      37746
cpu0_L2C RFO       ACCESS:      24944  HIT:          0  MISS:      24944
cpu0_L2C PREFETCH  ACCESS:          0  HIT:          0  MISS:          0
cpu0_L2C WRITEBACK ACCESS:      24944  HIT:      24944  MISS:          0
LLC TOTAL     ACCESS:      87473  HIT:       4243  MISS:      83230
LLC LOAD      ACCESS:      37746  HIT:          0  MISS:      37746
LLC RFO       ACCESS:      24944  HIT:          1  MISS:      24943
LLC PREFETCH  ACCESS:          0  HIT:          0  MISS:          0
LLC WRITEBACK ACCESS:      24782  HIT:       4242  MISS:      20540
Heartbeat CPU 0 instructions: 106000002 cycles: 52012750 heartbeat IPC: 1.43242 cumulative IPC: 1.4263 (Simulation time: 1 hr 0 min 15 sec) 

Region of Interest Statistics
cpu0_DTLB TOTAL     ACCESS:    9276205  HIT:    9274804  MISS:       1401
cpu0_DTLB LOAD      ACCESS:    6451966  HIT:    6450970  MISS:        996
cpu0_DTLB RFO       ACCESS:    2824239  HIT:    2823834  MISS:        405
cpu0_DTLB PREFETCH  ACCESS:          0  HIT:          0  MISS:          0
cpu0_DTLB WRITEBACK ACCESS:          0  HIT:          0  MISS:          0
cpu0_ITLB TOTAL     ACCESS:    2491647  HIT:    2491639  MISS:          8
cpu0_ITLB LOAD      ACCESS:    2491647  HIT:    2491639  MISS:          8
cpu0_ITLB RFO       ACCESS:          0  HIT:          0  MISS:          0
cpu0_ITLB PREFETCH  ACCESS:          0  HIT:          0  MISS:          0
cpu0_ITLB WRITEBACK ACCESS:          0  HIT:          0  MISS:          0
cpu0_L1I TOTAL     ACCESS:    4471889  HIT:    4471783  MISS:        106
cpu0_L1I LOAD      ACCESS:    4471889  HIT:    4471783  MISS:        106
cpu0_L1I RFO       ACCESS:          0  HIT:          0  MISS:          0
cpu0_L1I PREFETCH  ACCESS:          0  HIT:          0  MISS:          0
cpu0_L1I WRITEBACK ACCESS:          0  HIT:          0  MISS:          0
cpu0_STLB TOTAL     ACCESS:       1409  HIT:          0  MISS:       1409
cpu0_STLB LOAD      ACCESS:       1004  HIT:          0  MISS:       1004
cpu0_STLB RFO       ACCESS:        405  HIT:          0  MISS:        405
cpu0_STLB PREFETCH  ACCESS:          0  HIT:          0  MISS:          0
cpu0_STLB WRITEBACK ACCESS:          0  HIT:          0  MISS:          0
cpu0_L1D TOTAL     ACCESS:   12082254  HIT:   12017331  MISS:      64923
cpu0_L1D LOAD      ACCESS:    6588820  HIT:    6549764  MISS:      39056
cpu0_L1D RFO       ACCESS:    5492025  HIT:    5466160  MISS:      25865
cpu0_L1D PREFETCH  ACCESS:          0  HIT:          0  MISS:          0
cpu0_L1D WRITEBACK ACCESS:          0  HIT:          0  MISS:          0
cpu0_L2C TOTAL     ACCESS:      90896  HIT:      25868  MISS:      65028
cpu0_L2C LOAD      ACCESS:      39162  HIT:          0  MISS:      39162
cpu0_L2C RFO       ACCESS:      25865  HIT:          0  MISS:      25865
cpu0_L2C PREFETCH  ACCESS:          0  HIT:          0  MISS:          0
cpu0_L2C WRITEBACK ACCESS:      25867  HIT:      25867  MISS:          0
[...]
cpu0_DTLB LOAD      ACCESS:  248958549  HIT:  248549888  MISS:     408661
cpu0_DTLB RFO       ACCESS:   53175714  HIT:   53053781  MISS:     121933
cpu0_DTLB PREFETCH  ACCESS:          0  HIT:          0  MISS:          0
cpu0_DTLB WRITEBACK ACCESS:          0  HIT:          0  MISS:          0
cpu0_ITLB TOTAL     ACCESS:   33238579  HIT:   33238570  MISS:          9
cpu0_ITLB LOAD      ACCESS:   33238579  HIT:   33238570  MISS:          9
cpu0_ITLB RFO       ACCESS:          0  HIT:          0  MISS:          0
cpu0_ITLB PREFETCH  ACCESS:          0  HIT:          0  MISS:          0
cpu0_ITLB WRITEBACK ACCESS:          0  HIT:          0  MISS:          0
cpu0_L1I TOTAL     ACCESS:   51434152  HIT:   51433947  MISS:        205
cpu0_L1I LOAD      ACCESS:   51434152  HIT:   51433947  MISS:        205
cpu0_L1I RFO       ACCESS:          0  HIT:          0  MISS:          0
cpu0_L1I PREFETCH  ACCESS:          0  HIT:          0  MISS:          0
cpu0_L1I WRITEBACK ACCESS:          0  HIT:          0  MISS:          0
cpu0_STLB TOTAL     ACCESS:     530603  HIT:      45695  MISS:     484908
cpu0_STLB LOAD      ACCESS:     408670  HIT:      37846  MISS:     370824
cpu0_STLB RFO       ACCESS:     121933  HIT:       7849  MISS:     114084
cpu0_STLB PREFETCH  ACCESS:          0  HIT:          0  MISS:          0
cpu0_STLB WRITEBACK ACCESS:          0  HIT:          0  MISS:          0
cpu0_L1D TOTAL     ACCESS:  257144486  HIT:  234149459  MISS:   22995027
cpu0_L1D LOAD      ACCESS:  183609373  HIT:  167568325  MISS:   16041048
cpu0_L1D RFO       ACCESS:   73051055  HIT:   66098025  MISS:    6953030
cpu0_L1D PREFETCH  ACCESS:          0  HIT:          0  MISS:          0
cpu0_L1D WRITEBACK ACCESS:          0  HIT:          0  MISS:          0
cpu0_L2C TOTAL     ACCESS:   29948591  HIT:    6953948  MISS:   22994643
cpu0_L2C LOAD      ACCESS:   16041252  HIT:       2352  MISS:   16038900
cpu0_L2C RFO       ACCESS:    6953030  HIT:          0  MISS:    6953030
cpu0_L2C PREFETCH  ACCESS:          0  HIT:          0  MISS:          0
cpu0_L2C WRITEBACK ACCESS:    6953360  HIT:    6951364  MISS:       1996
LLC TOTAL     ACCESS:   29945177  HIT:    1177115  MISS:   28768062
LLC LOAD      ACCESS:   16038900  HIT:          6  MISS:   16038894
LLC RFO       ACCESS:    6953030  HIT:          2  MISS:    6953028
LLC PREFETCH  ACCESS:          0  HIT:          0  MISS:          0
LLC WRITEBACK ACCESS:    6952530  HIT:    1177106  MISS:    5775424
Heartbeat CPU 0 instructions: 1550000000 cycles: 2024649532 heartbeat IPC: 0.640162 cumulative IPC: 0.745564 (Simulation time: 17 hr 31 min 35 sec) 

Region of Interest Statistics
cpu0_DTLB TOTAL     ACCESS:  302540404  HIT:  302008914  MISS:     531490
cpu0_DTLB LOAD      ACCESS:  249292801  HIT:  248883617  MISS:     409184
cpu0_DTLB RFO       ACCESS:   53247603  HIT:   53125297  MISS:     122306
cpu0_DTLB PREFETCH  ACCESS:          0  HIT:          0  MISS:          0
cpu0_DTLB WRITEBACK ACCESS:          0  HIT:          0  MISS:          0
cpu0_ITLB TOTAL     ACCESS:   33254669  HIT:   33254660  MISS:          9
cpu0_ITLB LOAD      ACCESS:   33254669  HIT:   33254660  MISS:          9
cpu0_ITLB RFO       ACCESS:          0  HIT:          0  MISS:          0
cpu0_ITLB PREFETCH  ACCESS:          0  HIT:          0  MISS:          0
cpu0_ITLB WRITEBACK ACCESS:          0  HIT:          0  MISS:          0
cpu0_L1I TOTAL     ACCESS:   51434162  HIT:   51433957  MISS:        205
cpu0_L1I LOAD      ACCESS:   51434162  HIT:   51433957  MISS:        205
cpu0_L1I RFO       ACCESS:          0  HIT:          0  MISS:          0
cpu0_L1I PREFETCH  ACCESS:          0  HIT:          0  MISS:          0
cpu0_L1I WRITEBACK ACCESS:          0  HIT:          0  MISS:          0
cpu0_STLB TOTAL     ACCESS:     531499  HIT:      46105  MISS:     485394
cpu0_STLB LOAD      ACCESS:     409193  HIT:      38219  MISS:     370974
cpu0_STLB RFO       ACCESS:     122306  HIT:       7886  MISS:     114420
cpu0_STLB PREFETCH  ACCESS:          0  HIT:          0  MISS:          0
cpu0_STLB WRITEBACK ACCESS:          0  HIT:          0  MISS:          0
cpu0_L1D TOTAL     ACCESS:  257351304  HIT:  234303947  MISS:   23047357
cpu0_L1D LOAD      ACCESS:  183789609  HIT:  167720048  MISS:   16069561
cpu0_L1D RFO       ACCESS:   73077151  HIT:   66100308  MISS:    6976843
cpu0_L1D PREFETCH  ACCESS:          0  HIT:          0  MISS:          0
cpu0_L1D WRITEBACK ACCESS:          0  HIT:          0  MISS:          0
cpu0_L2C TOTAL     ACCESS:   30024926  HIT:    6977953  MISS:   23046973
cpu0_L2C LOAD      ACCESS:   16069765  HIT:       2352  MISS:   16067413
cpu0_L2C RFO       ACCESS:    6976843  HIT:          0  MISS:    6976843
cpu0_L2C PREFETCH  ACCESS:          0  HIT:          0  MISS:          0
cpu0_L2C WRITEBACK ACCESS:    6977365  HIT:    6975369  MISS:       1996
LLC TOTAL     ACCESS:   30022977  HIT:    1179075  MISS:   28843902
LLC LOAD      ACCESS:   16067413  HIT:          6  MISS:   16067407
LLC RFO       ACCESS:    6976843  HIT:          2  MISS:    6976841
LLC PREFETCH  ACCESS:          0  HIT:          0  MISS:          0
LLC WRITEBACK ACCESS:    6978000  HIT:    1179066  MISS:    5798934
Finished CPU 0 instructions: 1500000001 cycles: 2011899326 cumulative IPC: 0.745564 (Simulation time: 17 hr 31 min 35 sec) 

ChampSim completed all CPUs

Region of Interest Statistics

CPU 0 cumulative IPC: 0.745564 instructions: 1500000001 cycles: 2011899326
cpu0_DTLB TOTAL     ACCESS:  302540404  HIT:  302008914  MISS:     531490
cpu0_DTLB LOAD      ACCESS:  249292801  HIT:  248883617  MISS:     409184
cpu0_DTLB RFO       ACCESS:   53247603  HIT:   53125297  MISS:     122306
cpu0_DTLB PREFETCH  ACCESS:          0  HIT:          0  MISS:          0
cpu0_DTLB WRITEBACK ACCESS:          0  HIT:          0  MISS:          0
cpu0_DTLB TRANSLATION ACCESS:          0  HIT:          0  MISS:          0
cpu0_DTLB PREFETCH  REQUESTED:          0  ISSUED:          0  USEFUL:          0  USELESS:          0
cpu0_DTLB AVERAGE MISS LATENCY: 89.2873 cycles
cpu0_ITLB TOTAL     ACCESS:   33254669  HIT:   33254660  MISS:          9
cpu0_ITLB LOAD      ACCESS:   33254669  HIT:   33254660  MISS:          9
cpu0_ITLB RFO       ACCESS:          0  HIT:          0  MISS:          0
cpu0_ITLB PREFETCH  ACCESS:          0  HIT:          0  MISS:          0
cpu0_ITLB WRITEBACK ACCESS:          0  HIT:          0  MISS:          0
cpu0_ITLB TRANSLATION ACCESS:          0  HIT:          0  MISS:          0
cpu0_ITLB PREFETCH  REQUESTED:          0  ISSUED:          0  USEFUL:          0  USELESS:          0
cpu0_ITLB AVERAGE MISS LATENCY: 218.222 cycles
cpu0_L1I TOTAL     ACCESS:   51434162  HIT:   51433957  MISS:        205
cpu0_L1I LOAD      ACCESS:   51434162  HIT:   51433957  MISS:        205
cpu0_L1I RFO       ACCESS:          0  HIT:          0  MISS:          0
cpu0_L1I PREFETCH  ACCESS:          0  HIT:          0  MISS:          0
cpu0_L1I WRITEBACK ACCESS:          0  HIT:          0  MISS:          0
cpu0_L1I TRANSLATION ACCESS:          0  HIT:          0  MISS:          0
cpu0_L1I PREFETCH  REQUESTED:          0  ISSUED:          0  USEFUL:          0  USELESS:          0
cpu0_L1I AVERAGE MISS LATENCY: 399.346 cycles
cpu0_STLB TOTAL     ACCESS:     531499  HIT:      46105  MISS:     485394
cpu0_STLB LOAD      ACCESS:     409193  HIT:      38219  MISS:     370974
cpu0_STLB RFO       ACCESS:     122306  HIT:       7886  MISS:     114420
cpu0_STLB PREFETCH  ACCESS:          0  HIT:          0  MISS:          0
cpu0_STLB WRITEBACK ACCESS:          0  HIT:          0  MISS:          0
cpu0_STLB TRANSLATION ACCESS:          0  HIT:          0  MISS:          0
cpu0_STLB PREFETCH  REQUESTED:          0  ISSUED:          0  USEFUL:          0  USELESS:          0
cpu0_STLB AVERAGE MISS LATENCY: 87.8902 cycles
cpu0_L1D TOTAL     ACCESS:  257351304  HIT:  234303947  MISS:   23047357
cpu0_L1D LOAD      ACCESS:  183789609  HIT:  167720048  MISS:   16069561
cpu0_L1D RFO       ACCESS:   73077151  HIT:   66100308  MISS:    6976843
cpu0_L1D PREFETCH  ACCESS:          0  HIT:          0  MISS:          0
cpu0_L1D WRITEBACK ACCESS:          0  HIT:          0  MISS:          0
cpu0_L1D TRANSLATION ACCESS:     484544  HIT:     483591  MISS:        953
cpu0_L1D PREFETCH  REQUESTED:          0  ISSUED:          0  USEFUL:          0  USELESS:          0
cpu0_L1D AVERAGE MISS LATENCY: 475.579 cycles
cpu0_L2C TOTAL     ACCESS:   30024926  HIT:    6977953  MISS:   23046973
cpu0_L2C LOAD      ACCESS:   16069765  HIT:       2352  MISS:   16067413
cpu0_L2C RFO       ACCESS:    6976843  HIT:          0  MISS:    6976843
cpu0_L2C PREFETCH  ACCESS:          0  HIT:          0  MISS:          0
cpu0_L2C WRITEBACK ACCESS:    6977365  HIT:    6975369  MISS:       1996
cpu0_L2C TRANSLATION ACCESS:        953  HIT:        232  MISS:        721
cpu0_L2C PREFETCH  REQUESTED:          0  ISSUED:          0  USEFUL:          0  USELESS:          0
cpu0_L2C AVERAGE MISS LATENCY: 464.561 cycles
LLC TOTAL     ACCESS:   30022977  HIT:    1179075  MISS:   28843902
LLC LOAD      ACCESS:   16067413  HIT:          6  MISS:   16067407
LLC RFO       ACCESS:    6976843  HIT:          2  MISS:    6976841
LLC PREFETCH  ACCESS:          0  HIT:          0  MISS:          0
LLC WRITEBACK ACCESS:    6978000  HIT:    1179066  MISS:    5798934
LLC TRANSLATION ACCESS:        721  HIT:          1  MISS:        720
LLC PREFETCH  REQUESTED:          0  ISSUED:          0  USEFUL:          0  USELESS:          0
LLC AVERAGE MISS LATENCY: 354.417 cycles
~~~~~~~~~~Reuse Distance Profiler output~~~~~~~~~~
0	0	0
1	0	0
2	0	0
3	0	0
4	0	0
5	0	0
6	0	0
7	0	0
8	0	0
9	0	0
10	0	0
11	0	0
12	0	0
13	0	0
14	0	0
15	0	0
16	0	0
17	0	0
18	0	0
19	0	0
20	0	0
21	0	0
22	0	0
23	0	0
24	0	0
25	0	0
26	0	0
27	0	0
28	0	0
29	0	0
30	0	0
31	0	0
32	0	0
33	0	0
34	0	0
35	0	0
36	0	0
37	0	0
38	0	0
39	0	0
40	0	0
41	0	0
42	0	0
43	0	0
44	0	0
45	0	0
46	0	0
47	0	0
48	0	0
49	0	0
50	0	0
51	0	0
52	0	0
53	0	0
54	0	0
55	0	0
56	0	0
57	0	0
58	0	0
59	0	0
60	0	0
61	0	0
62	0	0
63	0	0
64	0	0
66	0	0
68	0	0
70	0	0
72	0	0
74	0	0
76	0	0
78	0	0
80	0	0
82	0	0
84	0	0
86	0	0
88	0	0
90	0	0
92	0	0
94	0	0
96	0	0
98	0	0
100	0	0
102	0	0
104	0	0
106	0	0
108	0	0
110	0	0
112	0	0
114	0	0
116	0	0
118	0	0
120	0	0
122	0	0
124	0	0
126	0	0
128	0	0
132	0	0
136	0	0
140	0	0
144	0	0
148	0	0
152	0	0
156	0	0
160	0	0
164	0	0
168	0	0
172	0	0
176	0	0
180	0	0
184	0	0
188	0	0
192	0	0
196	0	0
200	0	0
204	0	0
208	0	0
212	0	0
216	0	0
220	0	0
224	0	0
228	0	0
232	0	0
236	0	0
240	0	0
244	0	0
248	0	0
252	0	0
256	0	0
264	0	0
272	0	0
280	0	0
288	0	0
296	0	0
304	0	0
312	0	0
320	0	0
328	0	0
336	0	0
344	0	0
352	0	0
360	0	0
368	0	0
376	0	0
384	0	0
392	0	0
400	0	0
408	0	0
416	0	0
424	0	0
432	0	0
440	0	0
448	0	0
456	0	0
464	0	0
472	0	0
480	0	0
488	0	0
496	0	0
504	0	0
512	0	0
528	0	0
544	0	0
560	0	0
576	0	0
592	0	0
608	0	0
624	0	0
640	0	0
656	0	0
672	0	0
688	0	0
704	0	0
720	0	0
736	0	0
752	0	0
768	0	0
784	0	0
800	0	0
816	0	0
832	0	0
848	0	0
864	0	0
880	0	0
896	0	0
912	0	0
928	0	0
944	0	0
960	0	0
976	0	0
992	0	0
1008	0	0
1024	0	0
1056	0	0
1088	0	0
1120	0	0
1152	0	0
1184	0	0
1216	0	0
1248	0	0
1280	0	0
1312	0	0
1344	0	0
1376	0	0
1408	0	0
1440	0	0
1472	0	0
1504	0	0
1536	0	0
1568	0	0
1600	0	0
1632	0	0
1664	0	0
1696	0	0
1728	0	0
1760	0	0
1792	0	0
1824	0	0
1856	0	0
1888	0	0
1920	0	0
1952	0	0
1984	0	0
2016	0	0
2048	0	0
2112	0	0
2176	0	0
2240	0	0
2304	0	0
2368	0	0
2432	0	0
2496	0	0
2560	0	0
2624	0	0
2688	0	0
2752	0	0
2816	0	0
2880	0	0
2944	0	0
3008	0	0
3072	0	0
3136	0	0
3200	0	0
3264	0	0
3328	0	0
3392	0	0
3456	0	0
3520	0	0
3584	0	0
3648	0	0
3712	0	0
3776	0	0
3840	0	0
3904	0	0
3968	0	0
4032	0	0
4096	0	0
4224	0	0
4352	0	0
4480	0	0
4608	0	0
4736	0	0
4864	0	0
4992	0	0
5120	0	0
5248	0	0
5376	0	0
5504	0	0
5632	0	0
5760	0	0
5888	0	0
6016	0	0
6144	0	0
6272	0	0
6400	0	0
6528	0	0
6656	0	0
6784	0	0
6912	0	0
7040	0	0
7168	0	0
7296	0	0
7424	0	0
7552	0	0
7680	0	0
7808	0	0
7936	0	0
8064	0	0
8192	0	0
8448	0	0
8704	0	0
8960	0	0
9216	0	0
9472	0	0
9728	0	0
9984	0	0
10240	0	0
10496	0	0
10752	0	0
11008	0	0
11264	0	0
11520	0	0
11776	0	0
12032	0	0
12288	0	0
12544	0	0
12800	0	0
13056	0	0
13312	0	0
13568	0	0
13824	0	0
14080	0	0
14336	0	0
14592	0	0
14848	0	0
15104	0	0
15360	0	0
15616	0	0
15872	0	0
16128	0	0
16384	0	0
16896	0	0
17408	0	0
17920	0	0
18432	0	0
18944	0	0
19456	0	0
19968	0	0
20480	0	0
20992	0	0
21504	0	0
22016	0	0
22528	0	0
23040	0	0
23552	0	0
24064	0	0
24576	0	0
25088	0	0
25600	0	0
26112	0	0
26624	0	0
27136	0	0
27648	0	0
28160	0	0
28672	0	0
29184	0	0
29696	0	0
30208	0	0
30720	0	0
31232	0	0
31744	0	0
32256	0	0
32768	0	0
33792	0	0
34816	0	0
35840	0	0
36864	0	0
37888	0	0
38912	0	0
39936	0	0
40960	0	0
41984	0	0
43008	0	0
44032	0	0
45056	0	0
46080	0	0
47104	0	0
48128	0	0
49152	0	0
50176	0	0
51200	0	0
52224	0	0
53248	0	0
54272	0	0
55296	0	0
56320	0	0
57344	0	0
58368	0	0
59392	0	0
60416	0	0
61440	0	0
62464	0	0
63488	0	0
64512	0	0
65536	0	0
67584	0	0
69632	0	0
71680	0	0
73728	0	0
75776	0	0
77824	0	0
79872	0	0
81920	0	0
83968	0	0
86016	0	0
88064	0	0
90112	0	0
92160	0	0
94208	0	0
96256	0	0
98304	0	0
100352	0	0
102400	0	0
104448	0	0
106496	0	0
108544	0	0
110592	0	0
112640	0	0
114688	0	0
116736	0	0
118784	0	0
120832	0	0
122880	0	0
124928	0	0
126976	0	0
129024	0	0
131072	0	0
135168	0	0
139264	0	0
143360	0	0
147456	0	0
151552	0	0
155648	0	0
159744	0	0
163840	0	0
167936	0	0
172032	0	0
176128	0	0
180224	0	0
184320	0	0
188416	0	0
192512	0	0
196608	0	0
200704	0	0
204800	0	0
208896	0	0
212992	0	0
217088	0	0
221184	0	0
225280	0	0
229376	0	0
233472	0	0
237568	0	0
241664	0	0
245760	0	0
249856	0	0
253952	0	0
258048	0	0
262144	0	0
270336	0	0
278528	0	0
286720	0	0
294912	0	0
303104	0	0
311296	0	0
319488	0	0
327680	0	0
335872	0	0
344064	0	0
352256	0	0
360448	0	0
368640	0	0
376832	0	0
385024	0	0
393216	0	0
401408	0	0
409600	0	0
417792	0	0
425984	0	0
434176	0	0
442368	0	0
450560	0	0
458752	0	0
466944	0	0
475136	0	0
483328	0	0
491520	0	0
499712	0	0
507904	0	0
516096	0	0
524288	0	0
540672	0	0
557056	0	0
573440	0	0
589824	0	0
606208	0	0
622592	0	0
638976	0	0
655360	0	0
671744	0	0
688128	0	0
704512	0	0
720896	0	0
737280	0	0
753664	0	0
770048	0	0
786432	0	0
802816	0	0
819200	0	0
835584	0	0
851968	0	0
868352	0	0
884736	0	0
901120	0	0
917504	0	0
933888	0	0
950272	0	0
966656	0	0
983040	0	0
999424	0	0
1015808	0	0
1032192	0	0
1048576	0	0
1081344	0	0
1114112	0	0
1146880	0	0
1179648	0	0
1212416	0	0
1245184	0	0
1277952	0	0
1310720	0	0
1343488	0	0
1376256	0	0
1409024	0	0
1441792	0	0
1474560	0	0
1507328	0	0
1540096	0	0
1572864	0	0
1605632	0	0
1638400	0	0
1671168	0	0
1703936	0	0
1736704	0	0
1769472	0	0
1802240	0	0
1835008	0	0
1867776	0	0
1900544	0	0
1933312	0	0
1966080	0	0
1998848	0	0
2031616	0	0
2064384	0	0
2097152	0	0
2162688	0	0
2228224	0	0
2293760	0	0
2359296	0	0
2424832	0	0
2490368	0	0
2555904	0	0
2621440	0	0
2686976	0	0
2752512	0	0
2818048	0	0
2883584	0	0
2949120	0	0
3014656	0	0
3080192	0	0
3145728	0	0
3211264	0	0
3276800	0	0
3342336	0	0
3407872	0	0
3473408	0	0
3538944	0	0
3604480	0	0
3670016	0	0
3735552	0	0
3801088	0	0
3866624	0	0
3932160	0	0
3997696	0	0
4063232	0	0
4128768	0	0
4194304	0	0
4325376	0	0
4456448	0	0
4587520	0	0
4718592	0	0
4849664	0	0
4980736	0	0
5111808	0	0
5242880	0	0
5373952	0	0
5505024	0	0
5636096	0	0
5767168	0	0
5898240	0	0
6029312	0	0
6160384	0	0
6291456	0	0
6422528	0	0
6553600	0	0
6684672	0	0
6815744	0	0
6946816	0	0
7077888	0	0
7208960	0	0
7340032	0	0
7471104	0	0
7602176	0	0
7733248	0	0
7864320	0	0
7995392	0	0
8126464	0	0
8257536	0	0
8388608	0	0
8650752	0	0
8912896	0	0
9175040	0	0
9437184	0	0
9699328	0	0
9961472	0	0
10223616	0	0
10485760	0	0
10747904	0	0
11010048	0	0
11272192	0	0
11534336	0	0
11796480	0	0
12058624	0	0
12320768	0	0
12582912	0	0
12845056	0	0
13107200	0	0
13369344	0	0
13631488	0	0
13893632	0	0
14155776	0	0
14417920	0	0
14680064	0	0
14942208	0	0
15204352	0	0
15466496	0	0
15728640	0	0
15990784	0	0
16252928	0	0
16515072	0	0
16777216	0	0
17301504	0	0
17825792	0	0
18350080	0	0
18874368	0	0
19398656	0	0
19922944	0	0
20447232	0	0
20971520	0	0
21495808	0	0
22020096	0	0
22544384	0	0
23068672	0	0
23592960	0	0
24117248	0	0
24641536	0	0
25165824	0	0
25690112	0	0
26214400	0	0
26738688	0	0
27262976	0	0
27787264	0	0
28311552	0	0
28835840	0	0
29360128	0	0
29884416	0	0
30408704	0	0
30932992	0	0
31457280	0	0
31981568	0	0
32505856	0	0
33030144	0	0
33554432	0	0
34603008	0	0
35651584	0	0
36700160	0	0
37748736	0	0
38797312	0	0
39845888	0	0
40894464	0	0
41943040	0	0
42991616	0	0
44040192	0	0
45088768	0	0
46137344	0	0
47185920	0	0
48234496	0	0
49283072	0	0
50331648	0	0
51380224	0	0
52428800	0	0
53477376	0	0
54525952	0	0
55574528	0	0
56623104	0	0
57671680	0	0
58720256	0	0
59768832	0	0
60817408	0	0
61865984	0	0
62914560	0	0
63963136	0	0
65011712	0	0
66060288	0	0
67108864	0	0
69206016	0	0
71303168	0	0
73400320	0	0
75497472	0	0
77594624	0	0
79691776	0	0
81788928	0	0
83886080	0	0
85983232	0	0
88080384	0	0
90177536	0	0
92274688	0	0
94371840	0	0
96468992	0	0
98566144	0	0
100663296	0	0
102760448	0	0
104857600	0	0
106954752	0	0
109051904	0	0
111149056	0	0
113246208	0	0
115343360	0	0
117440512	0	0
119537664	0	0
121634816	0	0
123731968	0	0
125829120	0	0
127926272	0	0
130023424	0	0
132120576	0	0
134217728	0	0
138412032	0	0
142606336	0	0
146800640	0	0
150994944	0	0
155189248	0	0
159383552	0	0
163577856	0	0
167772160	0	0
171966464	0	0
176160768	0	0
180355072	0	0
184549376	0	0
188743680	0	0
192937984	0	0
197132288	0	0
201326592	0	0
205520896	0	0
209715200	0	0
213909504	0	0
218103808	0	0
222298112	0	0
226492416	0	0
230686720	0	0
234881024	0	0
239075328	0	0
243269632	0	0
247463936	0	0
251658240	0	0
255852544	0	0
260046848	0	0
264241152	0	0
268435456	0	0
276824064	0	0
285212672	0	0
293601280	0	0
301989888	0	0
310378496	0	0
318767104	0	0
327155712	0	0
335544320	0	0
343932928	0	0
352321536	0	0
360710144	0	0
369098752	0	0
377487360	0	0
385875968	0	0
394264576	0	0
402653184	0	0
411041792	0	0
419430400	0	0
427819008	0	0
436207616	0	0
444596224	0	0
452984832	0	0
461373440	0	0
469762048	0	0
478150656	0	0
486539264	0	0
494927872	0	0
503316480	0	0
511705088	0	0
520093696	0	0
528482304	0	0
536870912	0	0
553648128	0	0
570425344	0	0
587202560	0	0
603979776	0	0
620756992	0	0
637534208	0	0
654311424	0	0
671088640	0	0
687865856	0	0
704643072	0	0
721420288	0	0
738197504	0	0
754974720	0	0
771751936	0	0
788529152	0	0
805306368	0	0
822083584	0	0
838860800	0	0
855638016	0	0
872415232	0	0
889192448	0	0
905969664	0	0
922746880	0	0
939524096	0	0
956301312	0	0
973078528	0	0
989855744	0	0
1006632960	0	0
1023410176	0	0
1040187392	0	0
1056964608	0	0
1073741824	0	0
1107296256	0	0
1140850688	0	0
1174405120	0	0
1207959552	0	0
1241513984	0	0
1275068416	0	0
1308622848	0	0
1342177280	0	0
1375731712	0	0
1409286144	0	0
1442840576	0	0
1476395008	0	0
1509949440	0	0
1543503872	0	0
1577058304	0	0
1610612736	0	0
1644167168	0	0
1677721600	0	0
1711276032	0	0
1744830464	0	0
1778384896	0	0
1811939328	0	0
1845493760	0	0
1879048192	0	0
1912602624	0	0
1946157056	0	0
1979711488	0	0
2013265920	0	0
2046820352	0	0
2080374784	0	0
2113929216	0	0
2147483648	0	0
2214592512	0	0
2281701376	0	0
2348810240	0	0
2415919104	0	0
2483027968	0	0
2550136832	0	0
2617245696	0	0
2684354560	0	0
2751463424	0	0
2818572288	0	0
2885681152	0	0
2952790016	0	0
3019898880	0	0
3087007744	0	0
3154116608	0	0
3221225472	0	0
3288334336	0	0
3355443200	0	0
3422552064	0	0
3489660928	0	0
3556769792	0	0
3623878656	0	0
3690987520	0	0
3758096384	0	0
3825205248	0	0
3892314112	0	0
3959422976	0	0
4026531840	0	0
4093640704	0	0
4160749568	0	0
4227858432	0	0
~~~~~~~~~~Reuse Distance Profiler output end~~~~~~~~~~


DRAM Statistics
 CHANNEL 0
 RQ ROW_BUFFER_HIT:     456619  ROW_BUFFER_MISS:   22588348
 DBUS AVG_CONGESTED_CYCLE:    3.95972
 WQ ROW_BUFFER_HIT:     540299  ROW_BUFFER_MISS:    6437076  FULL:          0


CPU 0 Branch Prediction Accuracy: 99.811% MPKI: 0.153073 Average ROB Occupancy at Mispredict: 301.94
Branch type MPKI
BRANCH_DIRECT_JUMP: 2.06667e-05
BRANCH_INDIRECT: 1.33333e-06
BRANCH_CONDITIONAL: 0.153004
BRANCH_DIRECT_CALL: 2.33333e-05
BRANCH_INDIRECT_CALL: 0
BRANCH_RETURN: 2.33333e-05

