
*** ChampSim Multicore Out-of-Order Simulator ***

Warmup Instructions: 50000000
Simulation Instructions: 1500000000
Number of CPUs: 1
Off-chip DRAM Size: 4 GiB Channels: 1 Width: 64-bit Data Rate: 3200 MT/s

VirtualMemory physical capacity: 8588881920 num_ppages: 2096895
VirtualMemory page size: 4096 log2_page_size: 12

CPU 0 runs /s/traces/champsim_traces/401.bzip2-7B.champsimtrace.xz
CPU 0 Bimodal branch predictor
Basic BTB sets: 1024 ways: 8 indirect buffer size: 4096 RAS size: 64
Initializing LRU.
Initializing LRU.
Initializing LRU.
Initializing LRU.
Initializing rdLRU.
Initializing LRU.
Initializing LRU.
Heartbeat CPU 0 instructions: 2000000 cycles: 612026 heartbeat IPC: 3.26784 cumulative IPC: 3.26784 (Simulation time: 0 hr 1 min 26 sec) 
Heartbeat CPU 0 instructions: 4000004 cycles: 1207279 heartbeat IPC: 3.35992 cumulative IPC: 3.31324 (Simulation time: 0 hr 2 min 46 sec) 
Heartbeat CPU 0 instructions: 6000002 cycles: 1801594 heartbeat IPC: 3.36522 cumulative IPC: 3.33039 (Simulation time: 0 hr 4 min 15 sec) 
Heartbeat CPU 0 instructions: 8000002 cycles: 2422398 heartbeat IPC: 3.22163 cumulative IPC: 3.30251 (Simulation time: 0 hr 5 min 33 sec) 
Heartbeat CPU 0 instructions: 10000000 cycles: 2993527 heartbeat IPC: 3.50183 cumulative IPC: 3.34054 (Simulation time: 0 hr 6 min 52 sec) 
Heartbeat CPU 0 instructions: 12000002 cycles: 3589028 heartbeat IPC: 3.35852 cumulative IPC: 3.34352 (Simulation time: 0 hr 8 min 13 sec) 
Heartbeat CPU 0 instructions: 14000001 cycles: 4167670 heartbeat IPC: 3.45637 cumulative IPC: 3.35919 (Simulation time: 0 hr 9 min 30 sec) 
Heartbeat CPU 0 instructions: 16000001 cycles: 4740786 heartbeat IPC: 3.48969 cumulative IPC: 3.37497 (Simulation time: 0 hr 10 min 47 sec) 
Heartbeat CPU 0 instructions: 18000002 cycles: 5283571 heartbeat IPC: 3.6847 cumulative IPC: 3.40679 (Simulation time: 0 hr 11 min 56 sec) 
Heartbeat CPU 0 instructions: 20000002 cycles: 5799812 heartbeat IPC: 3.87416 cumulative IPC: 3.44839 (Simulation time: 0 hr 13 min 4 sec) 
Heartbeat CPU 0 instructions: 22000000 cycles: 6306709 heartbeat IPC: 3.94557 cumulative IPC: 3.48835 (Simulation time: 0 hr 14 min 11 sec) 
Heartbeat CPU 0 instructions: 24000001 cycles: 6834705 heartbeat IPC: 3.78791 cumulative IPC: 3.51149 (Simulation time: 0 hr 15 min 17 sec) 
Heartbeat CPU 0 instructions: 26000003 cycles: 7336733 heartbeat IPC: 3.98385 cumulative IPC: 3.54381 (Simulation time: 0 hr 16 min 22 sec) 
Heartbeat CPU 0 instructions: 28000001 cycles: 7867311 heartbeat IPC: 3.76947 cumulative IPC: 3.55903 (Simulation time: 0 hr 17 min 32 sec) 
Heartbeat CPU 0 instructions: 30000000 cycles: 8390082 heartbeat IPC: 3.82576 cumulative IPC: 3.57565 (Simulation time: 0 hr 18 min 37 sec) 
Heartbeat CPU 0 instructions: 32000002 cycles: 8954458 heartbeat IPC: 3.54374 cumulative IPC: 3.57364 (Simulation time: 0 hr 19 min 51 sec) 
Heartbeat CPU 0 instructions: 34000000 cycles: 9543977 heartbeat IPC: 3.39259 cumulative IPC: 3.56246 (Simulation time: 0 hr 21 min 10 sec) 
Heartbeat CPU 0 instructions: 36000000 cycles: 10112498 heartbeat IPC: 3.5179 cumulative IPC: 3.55995 (Simulation time: 0 hr 22 min 29 sec) 
Heartbeat CPU 0 instructions: 38000001 cycles: 10661223 heartbeat IPC: 3.64481 cumulative IPC: 3.56432 (Simulation time: 0 hr 23 min 50 sec) 
Heartbeat CPU 0 instructions: 40000000 cycles: 11326960 heartbeat IPC: 3.00419 cumulative IPC: 3.5314 (Simulation time: 0 hr 25 min 31 sec) 
Heartbeat CPU 0 instructions: 42000003 cycles: 12032844 heartbeat IPC: 2.83333 cumulative IPC: 3.49045 (Simulation time: 0 hr 27 min 12 sec) 
Heartbeat CPU 0 instructions: 44000004 cycles: 12726157 heartbeat IPC: 2.8847 cumulative IPC: 3.45745 (Simulation time: 0 hr 28 min 51 sec) 
Heartbeat CPU 0 instructions: 46000003 cycles: 13317781 heartbeat IPC: 3.38052 cumulative IPC: 3.45403 (Simulation time: 0 hr 30 min 11 sec) 
Heartbeat CPU 0 instructions: 48000001 cycles: 13884148 heartbeat IPC: 3.53128 cumulative IPC: 3.45718 (Simulation time: 0 hr 31 min 26 sec) 
Heartbeat CPU 0 instructions: 50000004 cycles: 14455579 heartbeat IPC: 3.49999 cumulative IPC: 3.45887 (Simulation time: 0 hr 32 min 42 sec) 

Warmup complete CPU 0 instructions: 50000004 cycles: 14455579 (Simulation time: 0 hr 32 min 42 sec) 

Heartbeat CPU 0 instructions: 52000000 cycles: 16069846 heartbeat IPC: 1.23895 cumulative IPC: 1.23895 (Simulation time: 0 hr 33 min 50 sec) 

Region of Interest Statistics
cpu0_DTLB TOTAL     ACCESS:     544051  HIT:     543615  MISS:        436
cpu0_DTLB LOAD      ACCESS:     393028  HIT:     392593  MISS:        435
cpu0_DTLB RFO       ACCESS:     151023  HIT:     151022  MISS:          1
cpu0_DTLB PREFETCH  ACCESS:          0  HIT:          0  MISS:          0
cpu0_DTLB WRITEBACK ACCESS:          0  HIT:          0  MISS:          0
cpu0_ITLB TOTAL     ACCESS:     228053  HIT:     228053  MISS:          0
cpu0_ITLB LOAD      ACCESS:     228053  HIT:     228053  MISS:          0
cpu0_ITLB RFO       ACCESS:          0  HIT:          0  MISS:          0
cpu0_ITLB PREFETCH  ACCESS:          0  HIT:          0  MISS:          0
cpu0_ITLB WRITEBACK ACCESS:          0  HIT:          0  MISS:          0
cpu0_L1I TOTAL     ACCESS:        100  HIT:        100  MISS:          0
cpu0_L1I LOAD      ACCESS:        100  HIT:        100  MISS:          0
cpu0_L1I RFO       ACCESS:          0  HIT:          0  MISS:          0
cpu0_L1I PREFETCH  ACCESS:          0  HIT:          0  MISS:          0
cpu0_L1I WRITEBACK ACCESS:          0  HIT:          0  MISS:          0
cpu0_STLB TOTAL     ACCESS:        436  HIT:        436  MISS:          0
cpu0_STLB LOAD      ACCESS:        435  HIT:        435  MISS:          0
cpu0_STLB RFO       ACCESS:          1  HIT:          1  MISS:          0
cpu0_STLB PREFETCH  ACCESS:          0  HIT:          0  MISS:          0
cpu0_STLB WRITEBACK ACCESS:          0  HIT:          0  MISS:          0
cpu0_L1D TOTAL     ACCESS:     753683  HIT:     738347  MISS:      15336
cpu0_L1D LOAD      ACCESS:     453453  HIT:     438122  MISS:      15331
cpu0_L1D RFO       ACCESS:     300230  HIT:     300225  MISS:          5
cpu0_L1D PREFETCH  ACCESS:          0  HIT:          0  MISS:          0
cpu0_L1D WRITEBACK ACCESS:          0  HIT:          0  MISS:          0
cpu0_L2C TOTAL     ACCESS:      16430  HIT:       5398  MISS:      11032
cpu0_L2C LOAD      ACCESS:      15331  HIT:       4447  MISS:      10884
cpu0_L2C RFO       ACCESS:          5  HIT:          2  MISS:          3
cpu0_L2C PREFETCH  ACCESS:          0  HIT:          0  MISS:          0
cpu0_L2C WRITEBACK ACCESS:       1094  HIT:        949  MISS:        145
LLC TOTAL     ACCESS:      11515  HIT:      11515  MISS:          0
LLC LOAD      ACCESS:      10883  HIT:      10883  MISS:          0
LLC RFO       ACCESS:          3  HIT:          3  MISS:          0
LLC PREFETCH  ACCESS:          0  HIT:          0  MISS:          0
LLC WRITEBACK ACCESS:        629  HIT:        629  MISS:          0
Heartbeat CPU 0 instructions: 54000002 cycles: 17689903 heartbeat IPC: 1.23453 cumulative IPC: 1.23673 (Simulation time: 0 hr 34 min 59 sec) 

Region of Interest Statistics
cpu0_DTLB TOTAL     ACCESS:    1079162  HIT:    1077866  MISS:       1296
cpu0_DTLB LOAD      ACCESS:     781429  HIT:     780136  MISS:       1293
cpu0_DTLB RFO       ACCESS:     297733  HIT:     297730  MISS:          3
cpu0_DTLB PREFETCH  ACCESS:          0  HIT:          0  MISS:          0
cpu0_DTLB WRITEBACK ACCESS:          0  HIT:          0  MISS:          0
cpu0_ITLB TOTAL     ACCESS:     450639  HIT:     450639  MISS:          0
cpu0_ITLB LOAD      ACCESS:     450639  HIT:     450639  MISS:          0
cpu0_ITLB RFO       ACCESS:          0  HIT:          0  MISS:          0
cpu0_ITLB PREFETCH  ACCESS:          0  HIT:          0  MISS:          0
cpu0_ITLB WRITEBACK ACCESS:          0  HIT:          0  MISS:          0
cpu0_L1I TOTAL     ACCESS:        222  HIT:        222  MISS:          0
cpu0_L1I LOAD      ACCESS:        222  HIT:        222  MISS:          0
cpu0_L1I RFO       ACCESS:          0  HIT:          0  MISS:          0
cpu0_L1I PREFETCH  ACCESS:          0  HIT:          0  MISS:          0
cpu0_L1I WRITEBACK ACCESS:          0  HIT:          0  MISS:          0
cpu0_STLB TOTAL     ACCESS:       1296  HIT:       1296  MISS:          0
cpu0_STLB LOAD      ACCESS:       1293  HIT:       1293  MISS:          0
cpu0_STLB RFO       ACCESS:          3  HIT:          3  MISS:          0
cpu0_STLB PREFETCH  ACCESS:          0  HIT:          0  MISS:          0
cpu0_STLB WRITEBACK ACCESS:          0  HIT:          0  MISS:          0
cpu0_L1D TOTAL     ACCESS:    1487554  HIT:    1455534  MISS:      32020
cpu0_L1D LOAD      ACCESS:     895530  HIT:     863526  MISS:      32004
cpu0_L1D RFO       ACCESS:     592024  HIT:     592008  MISS:         16
cpu0_L1D PREFETCH  ACCESS:          0  HIT:          0  MISS:          0
cpu0_L1D WRITEBACK ACCESS:          0  HIT:          0  MISS:          0
cpu0_L2C TOTAL     ACCESS:      34362  HIT:      12841  MISS:      21521
cpu0_L2C LOAD      ACCESS:      32003  HIT:      10939  MISS:      21064
cpu0_L2C RFO       ACCESS:         16  HIT:          8  MISS:          8
cpu0_L2C PREFETCH  ACCESS:          0  HIT:          0  MISS:          0
cpu0_L2C WRITEBACK ACCESS:       2343  HIT:       1894  MISS:        449
LLC TOTAL     ACCESS:      22457  HIT:      22425  MISS:         32
LLC LOAD      ACCESS:      21063  HIT:      21031  MISS:         32
LLC RFO       ACCESS:          8  HIT:          8  MISS:          0
LLC PREFETCH  ACCESS:          0  HIT:          0  MISS:          0
LLC WRITEBACK ACCESS:       1386  HIT:       1386  MISS:          0
Heartbeat CPU 0 instructions: 56000002 cycles: 18875536 heartbeat IPC: 1.68686 cumulative IPC: 1.35748 (Simulation time: 0 hr 36 min 9 sec) 

Region of Interest Statistics
cpu0_DTLB TOTAL     ACCESS:    1532270  HIT:    1526548  MISS:       5722
cpu0_DTLB LOAD      ACCESS:    1141345  HIT:    1136828  MISS:       4517
cpu0_DTLB RFO       ACCESS:     390925  HIT:     389720  MISS:       1205
cpu0_DTLB PREFETCH  ACCESS:          0  HIT:          0  MISS:          0
cpu0_DTLB WRITEBACK ACCESS:          0  HIT:          0  MISS:          0
cpu0_ITLB TOTAL     ACCESS:     632679  HIT:     632679  MISS:          0
cpu0_ITLB LOAD      ACCESS:     632679  HIT:     632679  MISS:          0
cpu0_ITLB RFO       ACCESS:          0  HIT:          0  MISS:          0
cpu0_ITLB PREFETCH  ACCESS:          0  HIT:          0  MISS:          0
cpu0_ITLB WRITEBACK ACCESS:          0  HIT:          0  MISS:          0
cpu0_L1I TOTAL     ACCESS:        613  HIT:        613  MISS:          0
cpu0_L1I LOAD      ACCESS:        613  HIT:        613  MISS:          0
cpu0_L1I RFO       ACCESS:          0  HIT:          0  MISS:          0
cpu0_L1I PREFETCH  ACCESS:          0  HIT:          0  MISS:          0
cpu0_L1I WRITEBACK ACCESS:          0  HIT:          0  MISS:          0
cpu0_STLB TOTAL     ACCESS:       5722  HIT:       5720  MISS:          2
cpu0_STLB LOAD      ACCESS:       4517  HIT:       4515  MISS:          2
cpu0_STLB RFO       ACCESS:       1205  HIT:       1205  MISS:          0
cpu0_STLB PREFETCH  ACCESS:          0  HIT:          0  MISS:          0
cpu0_STLB WRITEBACK ACCESS:          0  HIT:          0  MISS:          0
cpu0_L1D TOTAL     ACCESS:    1991678  HIT:    1930880  MISS:      60798
cpu0_L1D LOAD      ACCESS:    1218429  HIT:    1165698  MISS:      52731
cpu0_L1D RFO       ACCESS:     773247  HIT:     765182  MISS:       8065
cpu0_L1D PREFETCH  ACCESS:          0  HIT:          0  MISS:          0
cpu0_L1D WRITEBACK ACCESS:          0  HIT:          0  MISS:          0
cpu0_L2C TOTAL     ACCESS:      72153  HIT:      20071  MISS:      52082
cpu0_L2C LOAD      ACCESS:      52730  HIT:      15545  MISS:      37185
cpu0_L2C RFO       ACCESS:       8065  HIT:         35  MISS:       8030
cpu0_L2C PREFETCH  ACCESS:          0  HIT:          0  MISS:          0
cpu0_L2C WRITEBACK ACCESS:      11356  HIT:       4490  MISS:       6866
LLC TOTAL     ACCESS:      55352  HIT:      54997  MISS:        355
LLC LOAD      ACCESS:      37183  HIT:      36873  MISS:        310
LLC RFO       ACCESS:       8030  HIT:       7985  MISS:         45
LLC PREFETCH  ACCESS:          0  HIT:          0  MISS:          0
LLC WRITEBACK ACCESS:      10138  HIT:      10138  MISS:          0
Heartbeat CPU 0 instructions: 58000003 cycles: 20065294 heartbeat IPC: 1.68102 cumulative IPC: 1.4261 (Simulation time: 0 hr 37 min 19 sec) 

Region of Interest Statistics
cpu0_DTLB TOTAL     ACCESS:    1986172  HIT:    1974169  MISS:      12003
cpu0_DTLB LOAD      ACCESS:    1498545  HIT:    1490035  MISS:       8510
cpu0_DTLB RFO       ACCESS:     487627  HIT:     484134  MISS:       3493
cpu0_DTLB PREFETCH  ACCESS:          0  HIT:          0  MISS:          0
cpu0_DTLB WRITEBACK ACCESS:          0  HIT:          0  MISS:          0
cpu0_ITLB TOTAL     ACCESS:     817739  HIT:     817739  MISS:          0
cpu0_ITLB LOAD      ACCESS:     817739  HIT:     817739  MISS:          0
cpu0_ITLB RFO       ACCESS:          0  HIT:          0  MISS:          0
cpu0_ITLB PREFETCH  ACCESS:          0  HIT:          0  MISS:          0
cpu0_ITLB WRITEBACK ACCESS:          0  HIT:          0  MISS:          0
cpu0_L1I TOTAL     ACCESS:       2294  HIT:       2294  MISS:          0
cpu0_L1I LOAD      ACCESS:       2294  HIT:       2294  MISS:          0
cpu0_L1I RFO       ACCESS:          0  HIT:          0  MISS:          0
cpu0_L1I PREFETCH  ACCESS:          0  HIT:          0  MISS:          0
cpu0_L1I WRITEBACK ACCESS:          0  HIT:          0  MISS:          0
cpu0_STLB TOTAL     ACCESS:      12003  HIT:      11990  MISS:         13
cpu0_STLB LOAD      ACCESS:       8510  HIT:       8504  MISS:          6
cpu0_STLB RFO       ACCESS:       3493  HIT:       3486  MISS:          7
cpu0_STLB PREFETCH  ACCESS:          0  HIT:          0  MISS:          0
cpu0_STLB WRITEBACK ACCESS:          0  HIT:          0  MISS:          0
cpu0_L1D TOTAL     ACCESS:    2479650  HIT:    2391527  MISS:      88123
cpu0_L1D LOAD      ACCESS:    1529705  HIT:    1457448  MISS:      72257
cpu0_L1D RFO       ACCESS:     949933  HIT:     934073  MISS:      15860
cpu0_L1D PREFETCH  ACCESS:          0  HIT:          0  MISS:          0
cpu0_L1D WRITEBACK ACCESS:          0  HIT:          0  MISS:          0
cpu0_L2C TOTAL     ACCESS:     108276  HIT:      27507  MISS:      80769
cpu0_L2C LOAD      ACCESS:      72254  HIT:      19846  MISS:      52408
cpu0_L2C RFO       ACCESS:      15858  HIT:        218  MISS:      15640
cpu0_L2C PREFETCH  ACCESS:          0  HIT:          0  MISS:          0
cpu0_L2C WRITEBACK ACCESS:      20158  HIT:       7441  MISS:      12717
LLC TOTAL     ACCESS:      86690  HIT:      85557  MISS:       1133
LLC LOAD      ACCESS:      52405  HIT:      51815  MISS:        590
LLC RFO       ACCESS:      15637  HIT:      15094  MISS:        543
LLC PREFETCH  ACCESS:          0  HIT:          0  MISS:          0
LLC WRITEBACK ACCESS:      18644  HIT:      18644  MISS:          0
Heartbeat CPU 0 instructions: 60000000 cycles: 21295751 heartbeat IPC: 1.62541 cumulative IPC: 1.46195 (Simulation time: 0 hr 38 min 28 sec) 

Region of Interest Statistics
cpu0_DTLB TOTAL     ACCESS:    2442247  HIT:    2424407  MISS:      17840
cpu0_DTLB LOAD      ACCESS:    1853980  HIT:    1841697  MISS:      12283
cpu0_DTLB RFO       ACCESS:     588267  HIT:     582710  MISS:       5557
cpu0_DTLB PREFETCH  ACCESS:          0  HIT:          0  MISS:          0
cpu0_DTLB WRITEBACK ACCESS:          0  HIT:          0  MISS:          0
cpu0_ITLB TOTAL     ACCESS:    1013087  HIT:    1013087  MISS:          0
cpu0_ITLB LOAD      ACCESS:    1013087  HIT:    1013087  MISS:          0
cpu0_ITLB RFO       ACCESS:          0  HIT:          0  MISS:          0
cpu0_ITLB PREFETCH  ACCESS:          0  HIT:          0  MISS:          0
cpu0_ITLB WRITEBACK ACCESS:          0  HIT:          0  MISS:          0
cpu0_L1I TOTAL     ACCESS:       4108  HIT:       4108  MISS:          0
cpu0_L1I LOAD      ACCESS:       4108  HIT:       4108  MISS:          0
cpu0_L1I RFO       ACCESS:          0  HIT:          0  MISS:          0
cpu0_L1I PREFETCH  ACCESS:          0  HIT:          0  MISS:          0
cpu0_L1I WRITEBACK ACCESS:          0  HIT:          0  MISS:          0
cpu0_STLB TOTAL     ACCESS:      17840  HIT:      17818  MISS:         22
cpu0_STLB LOAD      ACCESS:      12283  HIT:      12274  MISS:          9
cpu0_STLB RFO       ACCESS:       5557  HIT:       5544  MISS:         13
cpu0_STLB PREFETCH  ACCESS:          0  HIT:          0  MISS:          0
cpu0_STLB WRITEBACK ACCESS:          0  HIT:          0  MISS:          0
cpu0_L1D TOTAL     ACCESS:    2984894  HIT:    2872587  MISS:     112307
cpu0_L1D LOAD      ACCESS:    1848130  HIT:    1759333  MISS:      88797
cpu0_L1D RFO       ACCESS:    1136743  HIT:    1113244  MISS:      23499
cpu0_L1D PREFETCH  ACCESS:          0  HIT:          0  MISS:          0
cpu0_L1D WRITEBACK ACCESS:          0  HIT:          0  MISS:          0
cpu0_L2C TOTAL     ACCESS:     140931  HIT:      34424  MISS:     106507
cpu0_L2C LOAD      ACCESS:      88792  HIT:      23228  MISS:      65564
cpu0_L2C RFO       ACCESS:      23495  HIT:        396  MISS:      23099
cpu0_L2C PREFETCH  ACCESS:          0  HIT:          0  MISS:          0
cpu0_L2C WRITEBACK ACCESS:      28633  HIT:      10797  MISS:      17836
LLC TOTAL     ACCESS:     115545  HIT:     113660  MISS:       1885
LLC LOAD      ACCESS:      65561  HIT:      64702  MISS:        859
LLC RFO       ACCESS:      23096  HIT:      22070  MISS:       1026
LLC PREFETCH  ACCESS:          0  HIT:          0  MISS:          0
LLC WRITEBACK ACCESS:      26880  HIT:      26880  MISS:          0
Heartbeat CPU 0 instructions: 62000004 cycles: 22522539 heartbeat IPC: 1.63028 cumulative IPC: 1.48755 (Simulation time: 0 hr 39 min 38 sec) 

Region of Interest Statistics
cpu0_DTLB TOTAL     ACCESS:    2893882  HIT:    2863299  MISS:      30583
cpu0_DTLB LOAD      ACCESS:    2208130  HIT:    2185825  MISS:      22305
cpu0_DTLB RFO       ACCESS:     685752  HIT:     677474  MISS:       8278
cpu0_DTLB PREFETCH  ACCESS:          0  HIT:          0  MISS:          0
cpu0_DTLB WRITEBACK ACCESS:          0  HIT:          0  MISS:          0
cpu0_ITLB TOTAL     ACCESS:    1202828  HIT:    1202828  MISS:          0
cpu0_ITLB LOAD      ACCESS:    1202828  HIT:    1202828  MISS:          0
cpu0_ITLB RFO       ACCESS:          0  HIT:          0  MISS:          0
cpu0_ITLB PREFETCH  ACCESS:          0  HIT:          0  MISS:          0
cpu0_ITLB WRITEBACK ACCESS:          0  HIT:          0  MISS:          0
cpu0_L1I TOTAL     ACCESS:       5426  HIT:       5426  MISS:          0
cpu0_L1I LOAD      ACCESS:       5426  HIT:       5426  MISS:          0
cpu0_L1I RFO       ACCESS:          0  HIT:          0  MISS:          0
cpu0_L1I PREFETCH  ACCESS:          0  HIT:          0  MISS:          0
cpu0_L1I WRITEBACK ACCESS:          0  HIT:          0  MISS:          0
cpu0_STLB TOTAL     ACCESS:      30583  HIT:      30545  MISS:         38
cpu0_STLB LOAD      ACCESS:      22305  HIT:      22294  MISS:         11
cpu0_STLB RFO       ACCESS:       8278  HIT:       8251  MISS:         27
cpu0_STLB PREFETCH  ACCESS:          0  HIT:          0  MISS:          0
cpu0_STLB WRITEBACK ACCESS:          0  HIT:          0  MISS:          0
cpu0_L1D TOTAL     ACCESS:    3485846  HIT:    3352541  MISS:     133305
cpu0_L1D LOAD      ACCESS:    2168333  HIT:    2064633  MISS:     103700
cpu0_L1D RFO       ACCESS:    1317477  HIT:    1287891  MISS:      29586
cpu0_L1D PREFETCH  ACCESS:          0  HIT:          0  MISS:          0
cpu0_L1D WRITEBACK ACCESS:          0  HIT:          0  MISS:          0
cpu0_L2C TOTAL     ACCESS:     168054  HIT:      38708  MISS:     129346
cpu0_L2C LOAD      ACCESS:     103692  HIT:      25180  MISS:      78512
cpu0_L2C RFO       ACCESS:      29582  HIT:        556  MISS:      29026
cpu0_L2C PREFETCH  ACCESS:          0  HIT:          0  MISS:          0
cpu0_L2C WRITEBACK ACCESS:      34761  HIT:      12967  MISS:      21794
LLC TOTAL     ACCESS:     139992  HIT:     137384  MISS:       2608
LLC LOAD      ACCESS:      78506  HIT:      77367  MISS:       1139
LLC RFO       ACCESS:      29023  HIT:      27554  MISS:       1469
LLC PREFETCH  ACCESS:          0  HIT:          0  MISS:          0
LLC WRITEBACK ACCESS:      32449  HIT:      32449  MISS:          0
Heartbeat CPU 0 instructions: 64000002 cycles: 23703066 heartbeat IPC: 1.69416 cumulative IPC: 1.51392 (Simulation time: 0 hr 40 min 48 sec) 

Region of Interest Statistics
cpu0_DTLB TOTAL     ACCESS:    3329553  HIT:    3291201  MISS:      38352
cpu0_DTLB LOAD      ACCESS:    2554839  HIT:    2526281  MISS:      28558
cpu0_DTLB RFO       ACCESS:     774714  HIT:     764920  MISS:       9794
cpu0_DTLB PREFETCH  ACCESS:          0  HIT:          0  MISS:          0
cpu0_DTLB WRITEBACK ACCESS:          0  HIT:          0  MISS:          0
cpu0_ITLB TOTAL     ACCESS:    1384108  HIT:    1384108  MISS:          0
cpu0_ITLB LOAD      ACCESS:    1384108  HIT:    1384108  MISS:          0
cpu0_ITLB RFO       ACCESS:          0  HIT:          0  MISS:          0
cpu0_ITLB PREFETCH  ACCESS:          0  HIT:          0  MISS:          0
cpu0_ITLB WRITEBACK ACCESS:          0  HIT:          0  MISS:          0
cpu0_L1I TOTAL     ACCESS:       5676  HIT:       5676  MISS:          0
cpu0_L1I LOAD      ACCESS:       5676  HIT:       5676  MISS:          0
cpu0_L1I RFO       ACCESS:          0  HIT:          0  MISS:          0
cpu0_L1I PREFETCH  ACCESS:          0  HIT:          0  MISS:          0
cpu0_L1I WRITEBACK ACCESS:          0  HIT:          0  MISS:          0
cpu0_STLB TOTAL     ACCESS:      38352  HIT:      38311  MISS:         41
cpu0_STLB LOAD      ACCESS:      28558  HIT:      28544  MISS:         14
cpu0_STLB RFO       ACCESS:       9794  HIT:       9767  MISS:         27
cpu0_STLB PREFETCH  ACCESS:          0  HIT:          0  MISS:          0
cpu0_STLB WRITEBACK ACCESS:          0  HIT:          0  MISS:          0
cpu0_L1D TOTAL     ACCESS:    3974525  HIT:    3825219  MISS:     149306
cpu0_L1D LOAD      ACCESS:    2479099  HIT:    2362179  MISS:     116920
cpu0_L1D RFO       ACCESS:    1495387  HIT:    1463022  MISS:      32365
cpu0_L1D PREFETCH  ACCESS:          0  HIT:          0  MISS:          0
cpu0_L1D WRITEBACK ACCESS:          0  HIT:          0  MISS:          0
cpu0_L2C TOTAL     ACCESS:     188199  HIT:      44230  MISS:     143969
cpu0_L2C LOAD      ACCESS:     116910  HIT:      29412  MISS:      87498
cpu0_L2C RFO       ACCESS:      32361  HIT:        671  MISS:      31690
cpu0_L2C PREFETCH  ACCESS:          0  HIT:          0  MISS:          0
cpu0_L2C WRITEBACK ACCESS:      38907  HIT:      14142  MISS:      24765
LLC TOTAL     ACCESS:     155981  HIT:     153107  MISS:       2874
LLC LOAD      ACCESS:      87491  HIT:      86087  MISS:       1404
LLC RFO       ACCESS:      31685  HIT:      30215  MISS:       1470
LLC PREFETCH  ACCESS:          0  HIT:          0  MISS:          0
LLC WRITEBACK ACCESS:      36789  HIT:      36789  MISS:          0
Heartbeat CPU 0 instructions: 66000001 cycles: 24781783 heartbeat IPC: 1.85405 cumulative IPC: 1.54946 (Simulation time: 0 hr 42 min 1 sec) 

Region of Interest Statistics
cpu0_DTLB TOTAL     ACCESS:    3795612  HIT:    3746609  MISS:      49003
cpu0_DTLB LOAD      ACCESS:    2919413  HIT:    2885252  MISS:      34161
cpu0_DTLB RFO       ACCESS:     876199  HIT:     861357  MISS:      14842
cpu0_DTLB PREFETCH  ACCESS:          0  HIT:          0  MISS:          0
cpu0_DTLB WRITEBACK ACCESS:          0  HIT:          0  MISS:          0
cpu0_ITLB TOTAL     ACCESS:    1558532  HIT:    1558532  MISS:          0
cpu0_ITLB LOAD      ACCESS:    1558532  HIT:    1558532  MISS:          0
cpu0_ITLB RFO       ACCESS:          0  HIT:          0  MISS:          0
cpu0_ITLB PREFETCH  ACCESS:          0  HIT:          0  MISS:          0
cpu0_ITLB WRITEBACK ACCESS:          0  HIT:          0  MISS:          0
cpu0_L1I TOTAL     ACCESS:       9167  HIT:       9167  MISS:          0
cpu0_L1I LOAD      ACCESS:       9167  HIT:       9167  MISS:          0
cpu0_L1I RFO       ACCESS:          0  HIT:          0  MISS:          0
cpu0_L1I PREFETCH  ACCESS:          0  HIT:          0  MISS:          0
cpu0_L1I WRITEBACK ACCESS:          0  HIT:          0  MISS:          0
cpu0_STLB TOTAL     ACCESS:      49003  HIT:      48944  MISS:         59
cpu0_STLB LOAD      ACCESS:      34161  HIT:      34144  MISS:         17
cpu0_STLB RFO       ACCESS:      14842  HIT:      14800  MISS:         42
cpu0_STLB PREFETCH  ACCESS:          0  HIT:          0  MISS:          0
cpu0_STLB WRITEBACK ACCESS:          0  HIT:          0  MISS:          0
cpu0_L1D TOTAL     ACCESS:    4438562  HIT:    4243369  MISS:     195193
cpu0_L1D LOAD      ACCESS:    2784604  HIT:    2642661  MISS:     141943
cpu0_L1D RFO       ACCESS:    1653901  HIT:    1600685  MISS:      53216
cpu0_L1D PREFETCH  ACCESS:          0  HIT:          0  MISS:          0
cpu0_L1D WRITEBACK ACCESS:          0  HIT:          0  MISS:          0
cpu0_L2C TOTAL     ACCESS:     255853  HIT:      54611  MISS:     201242
cpu0_L2C LOAD      ACCESS:     141932  HIT:      32149  MISS:     109783
cpu0_L2C RFO       ACCESS:      53208  HIT:       1505  MISS:      51703
cpu0_L2C PREFETCH  ACCESS:          0  HIT:          0  MISS:          0
cpu0_L2C WRITEBACK ACCESS:      60679  HIT:      20948  MISS:      39731
LLC TOTAL     ACCESS:     219560  HIT:     215505  MISS:       4055
LLC LOAD      ACCESS:     109775  HIT:     108126  MISS:       1649
LLC RFO       ACCESS:      51695  HIT:      49289  MISS:       2406
LLC PREFETCH  ACCESS:          0  HIT:          0  MISS:          0
LLC WRITEBACK ACCESS:      58065  HIT:      58065  MISS:          0
Heartbeat CPU 0 instructions: 68000003 cycles: 26034442 heartbeat IPC: 1.59661 cumulative IPC: 1.55456 (Simulation time: 0 hr 43 min 11 sec) 

Region of Interest Statistics
cpu0_DTLB TOTAL     ACCESS:    4255569  HIT:    4198869  MISS:      56700
cpu0_DTLB LOAD      ACCESS:    3283739  HIT:    3242287  MISS:      41452
cpu0_DTLB RFO       ACCESS:     971830  HIT:     956582  MISS:      15248
cpu0_DTLB PREFETCH  ACCESS:          0  HIT:          0  MISS:          0
cpu0_DTLB WRITEBACK ACCESS:          0  HIT:          0  MISS:          0
cpu0_ITLB TOTAL     ACCESS:    1750489  HIT:    1750489  MISS:          0
cpu0_ITLB LOAD      ACCESS:    1750489  HIT:    1750489  MISS:          0
cpu0_ITLB RFO       ACCESS:          0  HIT:          0  MISS:          0
cpu0_ITLB PREFETCH  ACCESS:          0  HIT:          0  MISS:          0
cpu0_ITLB WRITEBACK ACCESS:          0  HIT:          0  MISS:          0
cpu0_L1I TOTAL     ACCESS:       9343  HIT:       9343  MISS:          0
cpu0_L1I LOAD      ACCESS:       9343  HIT:       9343  MISS:          0
cpu0_L1I RFO       ACCESS:          0  HIT:          0  MISS:          0
cpu0_L1I PREFETCH  ACCESS:          0  HIT:          0  MISS:          0
cpu0_L1I WRITEBACK ACCESS:          0  HIT:          0  MISS:          0
cpu0_STLB TOTAL     ACCESS:      56700  HIT:      56632  MISS:         68
cpu0_STLB LOAD      ACCESS:      41452  HIT:      41433  MISS:         19
cpu0_STLB RFO       ACCESS:      15248  HIT:      15199  MISS:         49
cpu0_STLB PREFETCH  ACCESS:          0  HIT:          0  MISS:          0
cpu0_STLB WRITEBACK ACCESS:          0  HIT:          0  MISS:          0
cpu0_L1D TOTAL     ACCESS:    4937246  HIT:    4724655  MISS:     212591
cpu0_L1D LOAD      ACCESS:    3109686  HIT:    2952629  MISS:     157057
cpu0_L1D RFO       ACCESS:    1827494  HIT:    1771999  MISS:      55495
cpu0_L1D PREFETCH  ACCESS:          0  HIT:          0  MISS:          0
cpu0_L1D WRITEBACK ACCESS:          0  HIT:          0  MISS:          0
cpu0_L2C TOTAL     ACCESS:     275558  HIT:      57917  MISS:     217641
cpu0_L2C LOAD      ACCESS:     157046  HIT:      33890  MISS:     123156
cpu0_L2C RFO       ACCESS:      55487  HIT:       1600  MISS:      53887
cpu0_L2C PREFETCH  ACCESS:          0  HIT:          0  MISS:          0
cpu0_L2C WRITEBACK ACCESS:      62986  HIT:      22418  MISS:      40568
LLC TOTAL     ACCESS:     236940  HIT:     232070  MISS:       4870
LLC LOAD      ACCESS:     123146  HIT:     121221  MISS:       1925
LLC RFO       ACCESS:      53879  HIT:      50934  MISS:       2945
LLC PREFETCH  ACCESS:          0  HIT:          0  MISS:          0
LLC WRITEBACK ACCESS:      59885  HIT:      59885  MISS:          0
Heartbeat CPU 0 instructions: 70000000 cycles: 27224889 heartbeat IPC: 1.68004 cumulative IPC: 1.56625 (Simulation time: 0 hr 44 min 17 sec) 

Region of Interest Statistics
cpu0_DTLB TOTAL     ACCESS:    4694368  HIT:    4629974  MISS:      64394
cpu0_DTLB LOAD      ACCESS:    3633332  HIT:    3587655  MISS:      45677
cpu0_DTLB RFO       ACCESS:    1061036  HIT:    1042319  MISS:      18717
cpu0_DTLB PREFETCH  ACCESS:          0  HIT:          0  MISS:          0
cpu0_DTLB WRITEBACK ACCESS:          0  HIT:          0  MISS:          0
cpu0_ITLB TOTAL     ACCESS:    1940067  HIT:    1940067  MISS:          0
cpu0_ITLB LOAD      ACCESS:    1940067  HIT:    1940067  MISS:          0
cpu0_ITLB RFO       ACCESS:          0  HIT:          0  MISS:          0
cpu0_ITLB PREFETCH  ACCESS:          0  HIT:          0  MISS:          0
cpu0_ITLB WRITEBACK ACCESS:          0  HIT:          0  MISS:          0
cpu0_L1I TOTAL     ACCESS:      10014  HIT:      10014  MISS:          0
cpu0_L1I LOAD      ACCESS:      10014  HIT:      10014  MISS:          0
cpu0_L1I RFO       ACCESS:          0  HIT:          0  MISS:          0
cpu0_L1I PREFETCH  ACCESS:          0  HIT:          0  MISS:          0
cpu0_L1I WRITEBACK ACCESS:          0  HIT:          0  MISS:          0
cpu0_STLB TOTAL     ACCESS:      64394  HIT:      64323  MISS:         71
cpu0_STLB LOAD      ACCESS:      45677  HIT:      45655  MISS:         22
cpu0_STLB RFO       ACCESS:      18717  HIT:      18668  MISS:         49
cpu0_STLB PREFETCH  ACCESS:          0  HIT:          0  MISS:          0
cpu0_STLB WRITEBACK ACCESS:          0  HIT:          0  MISS:          0
cpu0_L1D TOTAL     ACCESS:    5417820  HIT:    5183075  MISS:     234745
cpu0_L1D LOAD      ACCESS:    3413135  HIT:    3242543  MISS:     170592
cpu0_L1D RFO       ACCESS:    2004616  HIT:    1940504  MISS:      64112
cpu0_L1D PREFETCH  ACCESS:          0  HIT:          0  MISS:          0
cpu0_L1D WRITEBACK ACCESS:          0  HIT:          0  MISS:          0
cpu0_L2C TOTAL     ACCESS:     307688  HIT:      64263  MISS:     243425
cpu0_L2C LOAD      ACCESS:     170576  HIT:      37657  MISS:     132919
cpu0_L2C RFO       ACCESS:      64103  HIT:       1845  MISS:      62258
cpu0_L2C PREFETCH  ACCESS:          0  HIT:          0  MISS:          0
cpu0_L2C WRITEBACK ACCESS:      72968  HIT:      24752  MISS:      48216
LLC TOTAL     ACCESS:     265258  HIT:     260117  MISS:       5141
LLC LOAD      ACCESS:     132909  HIT:     130713  MISS:       2196
LLC RFO       ACCESS:      62247  HIT:      59302  MISS:       2945
LLC PREFETCH  ACCESS:          0  HIT:          0  MISS:          0
LLC WRITEBACK ACCESS:      70070  HIT:      70070  MISS:          0
Heartbeat CPU 0 instructions: 72000001 cycles: 28040969 heartbeat IPC: 2.45074 cumulative IPC: 1.61939 (Simulation time: 0 hr 45 min 40 sec) 

Region of Interest Statistics
cpu0_DTLB TOTAL     ACCESS:    5133576  HIT:    5062083  MISS:      71493
cpu0_DTLB LOAD      ACCESS:    3996819  HIT:    3947872  MISS:      48947
cpu0_DTLB RFO       ACCESS:    1136757  HIT:    1114211  MISS:      22546
cpu0_DTLB PREFETCH  ACCESS:          0  HIT:          0  MISS:          0
cpu0_DTLB WRITEBACK ACCESS:          0  HIT:          0  MISS:          0
cpu0_ITLB TOTAL     ACCESS:    2042241  HIT:    2042241  MISS:          0
cpu0_ITLB LOAD      ACCESS:    2042241  HIT:    2042241  MISS:          0
cpu0_ITLB RFO       ACCESS:          0  HIT:          0  MISS:          0
cpu0_ITLB PREFETCH  ACCESS:          0  HIT:          0  MISS:          0
cpu0_ITLB WRITEBACK ACCESS:          0  HIT:          0  MISS:          0
cpu0_L1I TOTAL     ACCESS:      12013  HIT:      12013  MISS:          0
cpu0_L1I LOAD      ACCESS:      12013  HIT:      12013  MISS:          0
cpu0_L1I RFO       ACCESS:          0  HIT:          0  MISS:          0
cpu0_L1I PREFETCH  ACCESS:          0  HIT:          0  MISS:          0
cpu0_L1I WRITEBACK ACCESS:          0  HIT:          0  MISS:          0
cpu0_STLB TOTAL     ACCESS:      71493  HIT:      71404  MISS:         89
cpu0_STLB LOAD      ACCESS:      48947  HIT:      48912  MISS:         35
cpu0_STLB RFO       ACCESS:      22546  HIT:      22492  MISS:         54
cpu0_STLB PREFETCH  ACCESS:          0  HIT:          0  MISS:          0
cpu0_STLB WRITEBACK ACCESS:          0  HIT:          0  MISS:          0
cpu0_L1D TOTAL     ACCESS:    5782846  HIT:    5488755  MISS:     294091
cpu0_L1D LOAD      ACCESS:    3653747  HIT:    3436099  MISS:     217648
cpu0_L1D RFO       ACCESS:    2129012  HIT:    2052615  MISS:      76397
cpu0_L1D PREFETCH  ACCESS:          0  HIT:          0  MISS:          0
cpu0_L1D WRITEBACK ACCESS:          0  HIT:          0  MISS:          0
cpu0_L2C TOTAL     ACCESS:     383247  HIT:      72502  MISS:     310745
cpu0_L2C LOAD      ACCESS:     217632  HIT:      38813  MISS:     178819
cpu0_L2C RFO       ACCESS:      76388  HIT:       2529  MISS:      73859
cpu0_L2C PREFETCH  ACCESS:          0  HIT:          0  MISS:          0
cpu0_L2C WRITEBACK ACCESS:      89181  HIT:      31149  MISS:      58032
LLC TOTAL     ACCESS:     338668  HIT:     332065  MISS:       6603
LLC LOAD      ACCESS:     178809  HIT:     175514  MISS:       3295
LLC RFO       ACCESS:      73839  HIT:      70531  MISS:       3308
LLC PREFETCH  ACCESS:          0  HIT:          0  MISS:          0
LLC WRITEBACK ACCESS:      85985  HIT:      85985  MISS:          0
Heartbeat CPU 0 instructions: 74000002 cycles: 29066874 heartbeat IPC: 1.9495 cumulative IPC: 1.64256 (Simulation time: 0 hr 46 min 49 sec) 

Region of Interest Statistics
cpu0_DTLB TOTAL     ACCESS:    5564353  HIT:    5492760  MISS:      71593
cpu0_DTLB LOAD      ACCESS:    4346127  HIT:    4297081  MISS:      49046
cpu0_DTLB RFO       ACCESS:    1218226  HIT:    1195679  MISS:      22547
cpu0_DTLB PREFETCH  ACCESS:          0  HIT:          0  MISS:          0
cpu0_DTLB WRITEBACK ACCESS:          0  HIT:          0  MISS:          0
cpu0_ITLB TOTAL     ACCESS:    2211597  HIT:    2211597  MISS:          0
cpu0_ITLB LOAD      ACCESS:    2211597  HIT:    2211597  MISS:          0
cpu0_ITLB RFO       ACCESS:          0  HIT:          0  MISS:          0
cpu0_ITLB PREFETCH  ACCESS:          0  HIT:          0  MISS:          0
cpu0_ITLB WRITEBACK ACCESS:          0  HIT:          0  MISS:          0
cpu0_L1I TOTAL     ACCESS:      12103  HIT:      12103  MISS:          0
cpu0_L1I LOAD      ACCESS:      12103  HIT:      12103  MISS:          0
cpu0_L1I RFO       ACCESS:          0  HIT:          0  MISS:          0
cpu0_L1I PREFETCH  ACCESS:          0  HIT:          0  MISS:          0
cpu0_L1I WRITEBACK ACCESS:          0  HIT:          0  MISS:          0
cpu0_STLB TOTAL     ACCESS:      71593  HIT:      71504  MISS:         89
cpu0_STLB LOAD      ACCESS:      49046  HIT:      49011  MISS:         35
cpu0_STLB RFO       ACCESS:      22547  HIT:      22493  MISS:         54
cpu0_STLB PREFETCH  ACCESS:          0  HIT:          0  MISS:          0
cpu0_STLB WRITEBACK ACCESS:          0  HIT:          0  MISS:          0
cpu0_L1D TOTAL     ACCESS:    6233264  HIT:    5921933  MISS:     311331
cpu0_L1D LOAD      ACCESS:    3940675  HIT:    3705814  MISS:     234861
cpu0_L1D RFO       ACCESS:    2292502  HIT:    2216078  MISS:      76424
cpu0_L1D PREFETCH  ACCESS:          0  HIT:          0  MISS:          0
cpu0_L1D WRITEBACK ACCESS:          0  HIT:          0  MISS:          0
cpu0_L2C TOTAL     ACCESS:     402144  HIT:      75246  MISS:     326898
cpu0_L2C LOAD      ACCESS:     234844  HIT:      40317  MISS:     194527
cpu0_L2C RFO       ACCESS:      76415  HIT:       2536  MISS:      73879
cpu0_L2C PREFETCH  ACCESS:          0  HIT:          0  MISS:          0
cpu0_L2C WRITEBACK ACCESS:      90839  HIT:      32382  MISS:      58457
LLC TOTAL     ACCESS:     355847  HIT:     349244  MISS:       6603
LLC LOAD      ACCESS:     194517  HIT:     191222  MISS:       3295
LLC RFO       ACCESS:      73859  HIT:      70551  MISS:       3308
LLC PREFETCH  ACCESS:          0  HIT:          0  MISS:          0
LLC WRITEBACK ACCESS:      87436  HIT:      87436  MISS:          0
Heartbeat CPU 0 instructions: 76000002 cycles: 30070272 heartbeat IPC: 1.99323 cumulative IPC: 1.6651 (Simulation time: 0 hr 47 min 56 sec) 

Region of Interest Statistics
cpu0_DTLB TOTAL     ACCESS:    5996098  HIT:    5924341  MISS:      71757
cpu0_DTLB LOAD      ACCESS:    4694933  HIT:    4645725  MISS:      49208
cpu0_DTLB RFO       ACCESS:    1301165  HIT:    1278616  MISS:      22549
cpu0_DTLB PREFETCH  ACCESS:          0  HIT:          0  MISS:          0
cpu0_DTLB WRITEBACK ACCESS:          0  HIT:          0  MISS:          0
cpu0_ITLB TOTAL     ACCESS:    2403361  HIT:    2403361  MISS:          0
cpu0_ITLB LOAD      ACCESS:    2403361  HIT:    2403361  MISS:          0
cpu0_ITLB RFO       ACCESS:          0  HIT:          0  MISS:          0
cpu0_ITLB PREFETCH  ACCESS:          0  HIT:          0  MISS:          0
cpu0_ITLB WRITEBACK ACCESS:          0  HIT:          0  MISS:          0
cpu0_L1I TOTAL     ACCESS:      12110  HIT:      12110  MISS:          0
cpu0_L1I LOAD      ACCESS:      12110  HIT:      12110  MISS:          0
cpu0_L1I RFO       ACCESS:          0  HIT:          0  MISS:          0
cpu0_L1I PREFETCH  ACCESS:          0  HIT:          0  MISS:          0
cpu0_L1I WRITEBACK ACCESS:          0  HIT:          0  MISS:          0
cpu0_STLB TOTAL     ACCESS:      71757  HIT:      71668  MISS:         89
cpu0_STLB LOAD      ACCESS:      49208  HIT:      49173  MISS:         35
cpu0_STLB RFO       ACCESS:      22549  HIT:      22495  MISS:         54
cpu0_STLB PREFETCH  ACCESS:          0  HIT:          0  MISS:          0
cpu0_STLB WRITEBACK ACCESS:          0  HIT:          0  MISS:          0
cpu0_L1D TOTAL     ACCESS:    6692073  HIT:    6356894  MISS:     335179
cpu0_L1D LOAD      ACCESS:    4229104  HIT:    3970456  MISS:     258648
cpu0_L1D RFO       ACCESS:    2462882  HIT:    2386397  MISS:      76485
cpu0_L1D PREFETCH  ACCESS:          0  HIT:          0  MISS:          0
cpu0_L1D WRITEBACK ACCESS:          0  HIT:          0  MISS:          0
cpu0_L2C TOTAL     ACCESS:     427719  HIT:      78985  MISS:     348734
cpu0_L2C LOAD      ACCESS:     258631  HIT:      42623  MISS:     216008
cpu0_L2C RFO       ACCESS:      76476  HIT:       2558  MISS:      73918
cpu0_L2C PREFETCH  ACCESS:          0  HIT:          0  MISS:          0
cpu0_L2C WRITEBACK ACCESS:      92566  HIT:      33793  MISS:      58773
LLC TOTAL     ACCESS:     379105  HIT:     372502  MISS:       6603
LLC LOAD      ACCESS:     215999  HIT:     212704  MISS:       3295
LLC RFO       ACCESS:      73898  HIT:      70590  MISS:       3308
LLC PREFETCH  ACCESS:          0  HIT:          0  MISS:          0
LLC WRITEBACK ACCESS:      89173  HIT:      89173  MISS:          0
Heartbeat CPU 0 instructions: 78000002 cycles: 31152144 heartbeat IPC: 1.84865 cumulative IPC: 1.67699 (Simulation time: 0 hr 49 min 18 sec) 

Region of Interest Statistics
cpu0_DTLB TOTAL     ACCESS:    6429396  HIT:    6357236  MISS:      72160
cpu0_DTLB LOAD      ACCESS:    5044949  HIT:    4995345  MISS:      49604
cpu0_DTLB RFO       ACCESS:    1384447  HIT:    1361891  MISS:      22556
cpu0_DTLB PREFETCH  ACCESS:          0  HIT:          0  MISS:          0
cpu0_DTLB WRITEBACK ACCESS:          0  HIT:          0  MISS:          0
cpu0_ITLB TOTAL     ACCESS:    2512581  HIT:    2512581  MISS:          0
cpu0_ITLB LOAD      ACCESS:    2512581  HIT:    2512581  MISS:          0
cpu0_ITLB RFO       ACCESS:          0  HIT:          0  MISS:          0
cpu0_ITLB PREFETCH  ACCESS:          0  HIT:          0  MISS:          0
cpu0_ITLB WRITEBACK ACCESS:          0  HIT:          0  MISS:          0
cpu0_L1I TOTAL     ACCESS:      13543  HIT:      13543  MISS:          0
cpu0_L1I LOAD      ACCESS:      13543  HIT:      13543  MISS:          0
cpu0_L1I RFO       ACCESS:          0  HIT:          0  MISS:          0
cpu0_L1I PREFETCH  ACCESS:          0  HIT:          0  MISS:          0
cpu0_L1I WRITEBACK ACCESS:          0  HIT:          0  MISS:          0
cpu0_STLB TOTAL     ACCESS:      72160  HIT:      72071  MISS:         89
cpu0_STLB LOAD      ACCESS:      49604  HIT:      49569  MISS:         35
cpu0_STLB RFO       ACCESS:      22556  HIT:      22502  MISS:         54
cpu0_STLB PREFETCH  ACCESS:          0  HIT:          0  MISS:          0
cpu0_STLB WRITEBACK ACCESS:          0  HIT:          0  MISS:          0
cpu0_L1D TOTAL     ACCESS:    7117276  HIT:    6737423  MISS:     379853
cpu0_L1D LOAD      ACCESS:    4494545  HIT:    4191248  MISS:     303297
cpu0_L1D RFO       ACCESS:    2622644  HIT:    2546134  MISS:      76510
cpu0_L1D PREFETCH  ACCESS:          0  HIT:          0  MISS:          0
cpu0_L1D WRITEBACK ACCESS:          0  HIT:          0  MISS:          0
cpu0_L2C TOTAL     ACCESS:     476723  HIT:      83550  MISS:     393173
cpu0_L2C LOAD      ACCESS:     303280  HIT:      43263  MISS:     260017
cpu0_L2C RFO       ACCESS:      76501  HIT:       2558  MISS:      73943
cpu0_L2C PREFETCH  ACCESS:          0  HIT:          0  MISS:          0
cpu0_L2C WRITEBACK ACCESS:      96896  HIT:      37718  MISS:      59178
LLC TOTAL     ACCESS:     427342  HIT:     420739  MISS:       6603
LLC LOAD      ACCESS:     260007  HIT:     256712  MISS:       3295
LLC RFO       ACCESS:      73923  HIT:      70615  MISS:       3308
LLC PREFETCH  ACCESS:          0  HIT:          0  MISS:          0
LLC WRITEBACK ACCESS:      93377  HIT:      93377  MISS:          0
Heartbeat CPU 0 instructions: 80000000 cycles: 32741190 heartbeat IPC: 1.25862 cumulative IPC: 1.64063 (Simulation time: 0 hr 50 min 25 sec) 

Region of Interest Statistics
cpu0_DTLB TOTAL     ACCESS:    6887030  HIT:    6813887  MISS:      73143
cpu0_DTLB LOAD      ACCESS:    5410102  HIT:    5359515  MISS:      50587
cpu0_DTLB RFO       ACCESS:    1476928  HIT:    1454372  MISS:      22556
cpu0_DTLB PREFETCH  ACCESS:          0  HIT:          0  MISS:          0
cpu0_DTLB WRITEBACK ACCESS:          0  HIT:          0  MISS:          0
cpu0_ITLB TOTAL     ACCESS:    2721840  HIT:    2721840  MISS:          0
cpu0_ITLB LOAD      ACCESS:    2721840  HIT:    2721840  MISS:          0
cpu0_ITLB RFO       ACCESS:          0  HIT:          0  MISS:          0
cpu0_ITLB PREFETCH  ACCESS:          0  HIT:          0  MISS:          0
cpu0_ITLB WRITEBACK ACCESS:          0  HIT:          0  MISS:          0
cpu0_L1I TOTAL     ACCESS:      13758  HIT:      13758  MISS:          0
cpu0_L1I LOAD      ACCESS:      13758  HIT:      13758  MISS:          0
cpu0_L1I RFO       ACCESS:          0  HIT:          0  MISS:          0
cpu0_L1I PREFETCH  ACCESS:          0  HIT:          0  MISS:          0
cpu0_L1I WRITEBACK ACCESS:          0  HIT:          0  MISS:          0
cpu0_STLB TOTAL     ACCESS:      73143  HIT:      73054  MISS:         89
cpu0_STLB LOAD      ACCESS:      50587  HIT:      50552  MISS:         35
cpu0_STLB RFO       ACCESS:      22556  HIT:      22502  MISS:         54
cpu0_STLB PREFETCH  ACCESS:          0  HIT:          0  MISS:          0
cpu0_STLB WRITEBACK ACCESS:          0  HIT:          0  MISS:          0
cpu0_L1D TOTAL     ACCESS:    7611607  HIT:    7202401  MISS:     409206
cpu0_L1D LOAD      ACCESS:    4805245  HIT:    4472595  MISS:     332650
cpu0_L1D RFO       ACCESS:    2806275  HIT:    2729765  MISS:      76510
cpu0_L1D PREFETCH  ACCESS:          0  HIT:          0  MISS:          0
cpu0_L1D WRITEBACK ACCESS:          0  HIT:          0  MISS:          0
cpu0_L2C TOTAL     ACCESS:     508614  HIT:      91012  MISS:     417602
cpu0_L2C LOAD      ACCESS:     332633  HIT:      48784  MISS:     283849
cpu0_L2C RFO       ACCESS:      76501  HIT:       2558  MISS:      73943
cpu0_L2C PREFETCH  ACCESS:          0  HIT:          0  MISS:          0
cpu0_L2C WRITEBACK ACCESS:      99434  HIT:      39659  MISS:      59775
LLC TOTAL     ACCESS:     453148  HIT:     446545  MISS:       6603
LLC LOAD      ACCESS:     283838  HIT:     280543  MISS:       3295
LLC RFO       ACCESS:      73923  HIT:      70615  MISS:       3308
LLC PREFETCH  ACCESS:          0  HIT:          0  MISS:          0
LLC WRITEBACK ACCESS:      95352  HIT:      95352  MISS:          0
Heartbeat CPU 0 instructions: 82000001 cycles: 34018307 heartbeat IPC: 1.56603 cumulative IPC: 1.63576 (Simulation time: 0 hr 51 min 36 sec) 

Region of Interest Statistics
cpu0_DTLB TOTAL     ACCESS:    7341025  HIT:    7266801  MISS:      74224
cpu0_DTLB LOAD      ACCESS:    5778951  HIT:    5727283  MISS:      51668
cpu0_DTLB RFO       ACCESS:    1562074  HIT:    1539518  MISS:      22556
cpu0_DTLB PREFETCH  ACCESS:          0  HIT:          0  MISS:          0
cpu0_DTLB WRITEBACK ACCESS:          0  HIT:          0  MISS:          0
cpu0_ITLB TOTAL     ACCESS:    2923793  HIT:    2923793  MISS:          0
cpu0_ITLB LOAD      ACCESS:    2923793  HIT:    2923793  MISS:          0
cpu0_ITLB RFO       ACCESS:          0  HIT:          0  MISS:          0
cpu0_ITLB PREFETCH  ACCESS:          0  HIT:          0  MISS:          0
cpu0_ITLB WRITEBACK ACCESS:          0  HIT:          0  MISS:          0
cpu0_L1I TOTAL     ACCESS:      13785  HIT:      13785  MISS:          0
cpu0_L1I LOAD      ACCESS:      13785  HIT:      13785  MISS:          0
cpu0_L1I RFO       ACCESS:          0  HIT:          0  MISS:          0
cpu0_L1I PREFETCH  ACCESS:          0  HIT:          0  MISS:          0
cpu0_L1I WRITEBACK ACCESS:          0  HIT:          0  MISS:          0
cpu0_STLB TOTAL     ACCESS:      74224  HIT:      74135  MISS:         89
cpu0_STLB LOAD      ACCESS:      51668  HIT:      51633  MISS:         35
cpu0_STLB RFO       ACCESS:      22556  HIT:      22502  MISS:         54
cpu0_STLB PREFETCH  ACCESS:          0  HIT:          0  MISS:          0
cpu0_STLB WRITEBACK ACCESS:          0  HIT:          0  MISS:          0
cpu0_L1D TOTAL     ACCESS:    8096190  HIT:    7675906  MISS:     420284
cpu0_L1D LOAD      ACCESS:    5118766  HIT:    4775038  MISS:     343728
cpu0_L1D RFO       ACCESS:    2977337  HIT:    2900827  MISS:      76510
cpu0_L1D PREFETCH  ACCESS:          0  HIT:          0  MISS:          0
cpu0_L1D WRITEBACK ACCESS:          0  HIT:          0  MISS:          0
cpu0_L2C TOTAL     ACCESS:     520440  HIT:      94383  MISS:     426057
cpu0_L2C LOAD      ACCESS:     343711  HIT:      51727  MISS:     291984
cpu0_L2C RFO       ACCESS:      76501  HIT:       2558  MISS:      73943
cpu0_L2C PREFETCH  ACCESS:          0  HIT:          0  MISS:          0
cpu0_L2C WRITEBACK ACCESS:     100182  HIT:      40087  MISS:      60095
LLC TOTAL     ACCESS:     461871  HIT:     455268  MISS:       6603
LLC LOAD      ACCESS:     291973  HIT:     288678  MISS:       3295
LLC RFO       ACCESS:      73923  HIT:      70615  MISS:       3308
LLC PREFETCH  ACCESS:          0  HIT:          0  MISS:          0
LLC WRITEBACK ACCESS:      95940  HIT:      95940  MISS:          0
Heartbeat CPU 0 instructions: 84000002 cycles: 35241384 heartbeat IPC: 1.63522 cumulative IPC: 1.63573 (Simulation time: 0 hr 52 min 52 sec) 

Region of Interest Statistics
cpu0_DTLB TOTAL     ACCESS:    7791748  HIT:    7716868  MISS:      74880
cpu0_DTLB LOAD      ACCESS:    6148397  HIT:    6096073  MISS:      52324
cpu0_DTLB RFO       ACCESS:    1643351  HIT:    1620795  MISS:      22556
cpu0_DTLB PREFETCH  ACCESS:          0  HIT:          0  MISS:          0
cpu0_DTLB WRITEBACK ACCESS:          0  HIT:          0  MISS:          0
cpu0_ITLB TOTAL     ACCESS:    3123026  HIT:    3123026  MISS:          0
cpu0_ITLB LOAD      ACCESS:    3123026  HIT:    3123026  MISS:          0
cpu0_ITLB RFO       ACCESS:          0  HIT:          0  MISS:          0
cpu0_ITLB PREFETCH  ACCESS:          0  HIT:          0  MISS:          0
cpu0_ITLB WRITEBACK ACCESS:          0  HIT:          0  MISS:          0
cpu0_L1I TOTAL     ACCESS:      13794  HIT:      13794  MISS:          0
cpu0_L1I LOAD      ACCESS:      13794  HIT:      13794  MISS:          0
cpu0_L1I RFO       ACCESS:          0  HIT:          0  MISS:          0
cpu0_L1I PREFETCH  ACCESS:          0  HIT:          0  MISS:          0
cpu0_L1I WRITEBACK ACCESS:          0  HIT:          0  MISS:          0
cpu0_STLB TOTAL     ACCESS:      74880  HIT:      74791  MISS:         89
cpu0_STLB LOAD      ACCESS:      52324  HIT:      52289  MISS:         35
cpu0_STLB RFO       ACCESS:      22556  HIT:      22502  MISS:         54
cpu0_STLB PREFETCH  ACCESS:          0  HIT:          0  MISS:          0
cpu0_STLB WRITEBACK ACCESS:          0  HIT:          0  MISS:          0
cpu0_L1D TOTAL     ACCESS:    8570017  HIT:    8143765  MISS:     426252
cpu0_L1D LOAD      ACCESS:    5428603  HIT:    5078907  MISS:     349696
cpu0_L1D RFO       ACCESS:    3141327  HIT:    3064817  MISS:      76510
cpu0_L1D PREFETCH  ACCESS:          0  HIT:          0  MISS:          0
cpu0_L1D WRITEBACK ACCESS:          0  HIT:          0  MISS:          0
cpu0_L2C TOTAL     ACCESS:     526841  HIT:      94881  MISS:     431960
cpu0_L2C LOAD      ACCESS:     349679  HIT:      51966  MISS:     297713
cpu0_L2C RFO       ACCESS:      76501  HIT:       2558  MISS:      73943
cpu0_L2C PREFETCH  ACCESS:          0  HIT:          0  MISS:          0
cpu0_L2C WRITEBACK ACCESS:     100615  HIT:      40346  MISS:      60269
LLC TOTAL     ACCESS:     468040  HIT:     461437  MISS:       6603
LLC LOAD      ACCESS:     297702  HIT:     294407  MISS:       3295
LLC RFO       ACCESS:      73923  HIT:      70615  MISS:       3308
LLC PREFETCH  ACCESS:          0  HIT:          0  MISS:          0
LLC WRITEBACK ACCESS:      96380  HIT:      96380  MISS:          0
Heartbeat CPU 0 instructions: 86000002 cycles: 36432136 heartbeat IPC: 1.67961 cumulative IPC: 1.63811 (Simulation time: 0 hr 53 min 28 sec) 

Region of Interest Statistics
cpu0_DTLB TOTAL     ACCESS:    8241732  HIT:    8166410  MISS:      75322
cpu0_DTLB LOAD      ACCESS:    6519477  HIT:    6466711  MISS:      52766
cpu0_DTLB RFO       ACCESS:    1722255  HIT:    1699699  MISS:      22556
cpu0_DTLB PREFETCH  ACCESS:          0  HIT:          0  MISS:          0
cpu0_DTLB WRITEBACK ACCESS:          0  HIT:          0  MISS:          0
cpu0_ITLB TOTAL     ACCESS:    3318591  HIT:    3318591  MISS:          0
cpu0_ITLB LOAD      ACCESS:    3318591  HIT:    3318591  MISS:          0
cpu0_ITLB RFO       ACCESS:          0  HIT:          0  MISS:          0
cpu0_ITLB PREFETCH  ACCESS:          0  HIT:          0  MISS:          0
cpu0_ITLB WRITEBACK ACCESS:          0  HIT:          0  MISS:          0
cpu0_L1I TOTAL     ACCESS:      13794  HIT:      13794  MISS:          0
cpu0_L1I LOAD      ACCESS:      13794  HIT:      13794  MISS:          0
cpu0_L1I RFO       ACCESS:          0  HIT:          0  MISS:          0
cpu0_L1I PREFETCH  ACCESS:          0  HIT:          0  MISS:          0
cpu0_L1I WRITEBACK ACCESS:          0  HIT:          0  MISS:          0
cpu0_STLB TOTAL     ACCESS:      75322  HIT:      75233  MISS:         89
cpu0_STLB LOAD      ACCESS:      52766  HIT:      52731  MISS:         35
cpu0_STLB RFO       ACCESS:      22556  HIT:      22502  MISS:         54
cpu0_STLB PREFETCH  ACCESS:          0  HIT:          0  MISS:          0
cpu0_STLB WRITEBACK ACCESS:          0  HIT:          0  MISS:          0
cpu0_L1D TOTAL     ACCESS:    9030567  HIT:    8598993  MISS:     431574
cpu0_L1D LOAD      ACCESS:    5730819  HIT:    5375801  MISS:     355018
cpu0_L1D RFO       ACCESS:    3299661  HIT:    3223151  MISS:      76510
cpu0_L1D PREFETCH  ACCESS:          0  HIT:          0  MISS:          0
cpu0_L1D WRITEBACK ACCESS:          0  HIT:          0  MISS:          0
cpu0_L2C TOTAL     ACCESS:     532550  HIT:      95376  MISS:     437174
cpu0_L2C LOAD      ACCESS:     355001  HIT:      52160  MISS:     302841
cpu0_L2C RFO       ACCESS:      76501  HIT:       2558  MISS:      73943
cpu0_L2C PREFETCH  ACCESS:          0  HIT:          0  MISS:          0
cpu0_L2C WRITEBACK ACCESS:     101002  HIT:      40647  MISS:      60355
LLC TOTAL     ACCESS:     473556  HIT:     466953  MISS:       6603
LLC LOAD      ACCESS:     302830  HIT:     299535  MISS:       3295
LLC RFO       ACCESS:      73923  HIT:      70615  MISS:       3308
LLC PREFETCH  ACCESS:          0  HIT:          0  MISS:          0
LLC WRITEBACK ACCESS:      96768  HIT:      96768  MISS:          0
Heartbeat CPU 0 instructions: 88000002 cycles: 37634303 heartbeat IPC: 1.66366 cumulative IPC: 1.63943 (Simulation time: 0 hr 54 min 56 sec) 

Region of Interest Statistics
cpu0_DTLB TOTAL     ACCESS:    8676937  HIT:    8601331  MISS:      75606
cpu0_DTLB LOAD      ACCESS:    6875333  HIT:    6822283  MISS:      53050
cpu0_DTLB RFO       ACCESS:    1801604  HIT:    1779048  MISS:      22556
cpu0_DTLB PREFETCH  ACCESS:          0  HIT:          0  MISS:          0
cpu0_DTLB WRITEBACK ACCESS:          0  HIT:          0  MISS:          0
cpu0_ITLB TOTAL     ACCESS:    3520364  HIT:    3520364  MISS:          0
cpu0_ITLB LOAD      ACCESS:    3520364  HIT:    3520364  MISS:          0
cpu0_ITLB RFO       ACCESS:          0  HIT:          0  MISS:          0
cpu0_ITLB PREFETCH  ACCESS:          0  HIT:          0  MISS:          0
cpu0_ITLB WRITEBACK ACCESS:          0  HIT:          0  MISS:          0
cpu0_L1I TOTAL     ACCESS:      13794  HIT:      13794  MISS:          0
cpu0_L1I LOAD      ACCESS:      13794  HIT:      13794  MISS:          0
cpu0_L1I RFO       ACCESS:          0  HIT:          0  MISS:          0
cpu0_L1I PREFETCH  ACCESS:          0  HIT:          0  MISS:          0
cpu0_L1I WRITEBACK ACCESS:          0  HIT:          0  MISS:          0
cpu0_STLB TOTAL     ACCESS:      75606  HIT:      75517  MISS:         89
cpu0_STLB LOAD      ACCESS:      53050  HIT:      53015  MISS:         35
cpu0_STLB RFO       ACCESS:      22556  HIT:      22502  MISS:         54
cpu0_STLB PREFETCH  ACCESS:          0  HIT:          0  MISS:          0
cpu0_STLB WRITEBACK ACCESS:          0  HIT:          0  MISS:          0
cpu0_L1D TOTAL     ACCESS:    9477111  HIT:    9038839  MISS:     438272
cpu0_L1D LOAD      ACCESS:    6019108  HIT:    5657392  MISS:     361716
cpu0_L1D RFO       ACCESS:    3457916  HIT:    3381406  MISS:      76510
cpu0_L1D PREFETCH  ACCESS:          0  HIT:          0  MISS:          0
cpu0_L1D WRITEBACK ACCESS:          0  HIT:          0  MISS:          0
cpu0_L2C TOTAL     ACCESS:     539722  HIT:      96024  MISS:     443698
cpu0_L2C LOAD      ACCESS:     361699  HIT:      52406  MISS:     309293
cpu0_L2C RFO       ACCESS:      76501  HIT:       2558  MISS:      73943
cpu0_L2C PREFETCH  ACCESS:          0  HIT:          0  MISS:          0
cpu0_L2C WRITEBACK ACCESS:     101476  HIT:      41049  MISS:      60427
LLC TOTAL     ACCESS:     480489  HIT:     473886  MISS:       6603
LLC LOAD      ACCESS:     309282  HIT:     305987  MISS:       3295
LLC RFO       ACCESS:      73923  HIT:      70615  MISS:       3308
LLC PREFETCH  ACCESS:          0  HIT:          0  MISS:          0
LLC WRITEBACK ACCESS:      97249  HIT:      97249  MISS:          0
Heartbeat CPU 0 instructions: 90000000 cycles: 38632163 heartbeat IPC: 2.00429 cumulative IPC: 1.65449 (Simulation time: 0 hr 56 min 18 sec) 

Region of Interest Statistics
cpu0_DTLB TOTAL     ACCESS:    9121765  HIT:    9044224  MISS:      77541
cpu0_DTLB LOAD      ACCESS:    7228063  HIT:    7174293  MISS:      53770
cpu0_DTLB RFO       ACCESS:    1893702  HIT:    1869931  MISS:      23771
cpu0_DTLB PREFETCH  ACCESS:          0  HIT:          0  MISS:          0
cpu0_DTLB WRITEBACK ACCESS:          0  HIT:          0  MISS:          0
cpu0_ITLB TOTAL     ACCESS:    3682845  HIT:    3682845  MISS:          0
cpu0_ITLB LOAD      ACCESS:    3682845  HIT:    3682845  MISS:          0
cpu0_ITLB RFO       ACCESS:          0  HIT:          0  MISS:          0
cpu0_ITLB PREFETCH  ACCESS:          0  HIT:          0  MISS:          0
cpu0_ITLB WRITEBACK ACCESS:          0  HIT:          0  MISS:          0
cpu0_L1I TOTAL     ACCESS:      15791  HIT:      15791  MISS:          0
cpu0_L1I LOAD      ACCESS:      15791  HIT:      15791  MISS:          0
cpu0_L1I RFO       ACCESS:          0  HIT:          0  MISS:          0
cpu0_L1I PREFETCH  ACCESS:          0  HIT:          0  MISS:          0
cpu0_L1I WRITEBACK ACCESS:          0  HIT:          0  MISS:          0
cpu0_STLB TOTAL     ACCESS:      77541  HIT:      77422  MISS:        119
cpu0_STLB LOAD      ACCESS:      53770  HIT:      53720  MISS:         50
cpu0_STLB RFO       ACCESS:      23771  HIT:      23702  MISS:         69
cpu0_STLB PREFETCH  ACCESS:          0  HIT:          0  MISS:          0
cpu0_STLB WRITEBACK ACCESS:          0  HIT:          0  MISS:          0
cpu0_L1D TOTAL     ACCESS:    9885611  HIT:    9406106  MISS:     479505
cpu0_L1D LOAD      ACCESS:    6286085  HIT:    5897867  MISS:     388218
cpu0_L1D RFO       ACCESS:    3599410  HIT:    3508178  MISS:      91232
cpu0_L1D PREFETCH  ACCESS:          0  HIT:          0  MISS:          0
cpu0_L1D WRITEBACK ACCESS:          0  HIT:          0  MISS:          0
cpu0_L2C TOTAL     ACCESS:     597020  HIT:     101343  MISS:     495677
cpu0_L2C LOAD      ACCESS:     388201  HIT:      53639  MISS:     334562
cpu0_L2C RFO       ACCESS:      91223  HIT:       2567  MISS:      88656
cpu0_L2C PREFETCH  ACCESS:          0  HIT:          0  MISS:          0
cpu0_L2C WRITEBACK ACCESS:     117541  HIT:      45123  MISS:      72418
LLC TOTAL     ACCESS:     536481  HIT:     527702  MISS:       8779
LLC LOAD      ACCESS:     334551  HIT:     330047  MISS:       4504
LLC RFO       ACCESS:      88636  HIT:      84361  MISS:       4275
LLC PREFETCH  ACCESS:          0  HIT:          0  MISS:          0
LLC WRITEBACK ACCESS:     113253  HIT:     113253  MISS:          0
Heartbeat CPU 0 instructions: 92000002 cycles: 39643194 heartbeat IPC: 1.97818 cumulative IPC: 1.66749 (Simulation time: 0 hr 57 min 31 sec) 

Region of Interest Statistics
cpu0_DTLB TOTAL     ACCESS:    9561040  HIT:    9483415  MISS:      77625
cpu0_DTLB LOAD      ACCESS:    7573821  HIT:    7519968  MISS:      53853
cpu0_DTLB RFO       ACCESS:    1987219  HIT:    1963447  MISS:      23772
cpu0_DTLB PREFETCH  ACCESS:          0  HIT:          0  MISS:          0
cpu0_DTLB WRITEBACK ACCESS:          0  HIT:          0  MISS:          0
cpu0_ITLB TOTAL     ACCESS:    3826946  HIT:    3826946  MISS:          0
cpu0_ITLB LOAD      ACCESS:    3826946  HIT:    3826946  MISS:          0
cpu0_ITLB RFO       ACCESS:          0  HIT:          0  MISS:          0
cpu0_ITLB PREFETCH  ACCESS:          0  HIT:          0  MISS:          0
cpu0_ITLB WRITEBACK ACCESS:          0  HIT:          0  MISS:          0
cpu0_L1I TOTAL     ACCESS:      16143  HIT:      16143  MISS:          0
cpu0_L1I LOAD      ACCESS:      16143  HIT:      16143  MISS:          0
cpu0_L1I RFO       ACCESS:          0  HIT:          0  MISS:          0
cpu0_L1I PREFETCH  ACCESS:          0  HIT:          0  MISS:          0
cpu0_L1I WRITEBACK ACCESS:          0  HIT:          0  MISS:          0
cpu0_STLB TOTAL     ACCESS:      77625  HIT:      77506  MISS:        119
cpu0_STLB LOAD      ACCESS:      53853  HIT:      53803  MISS:         50
cpu0_STLB RFO       ACCESS:      23772  HIT:      23703  MISS:         69
cpu0_STLB PREFETCH  ACCESS:          0  HIT:          0  MISS:          0
cpu0_STLB WRITEBACK ACCESS:          0  HIT:          0  MISS:          0
cpu0_L1D TOTAL     ACCESS:   10366492  HIT:    9872044  MISS:     494448
cpu0_L1D LOAD      ACCESS:    6580933  HIT:    6177805  MISS:     403128
cpu0_L1D RFO       ACCESS:    3785443  HIT:    3694178  MISS:      91265
cpu0_L1D PREFETCH  ACCESS:          0  HIT:          0  MISS:          0
cpu0_L1D WRITEBACK ACCESS:          0  HIT:          0  MISS:          0
cpu0_L2C TOTAL     ACCESS:     614228  HIT:     104511  MISS:     509717
cpu0_L2C LOAD      ACCESS:     403111  HIT:      55261  MISS:     347850
cpu0_L2C RFO       ACCESS:      91256  HIT:       2577  MISS:      88679
cpu0_L2C PREFETCH  ACCESS:          0  HIT:          0  MISS:          0
cpu0_L2C WRITEBACK ACCESS:     119806  HIT:      46659  MISS:      73147
LLC TOTAL     ACCESS:     551585  HIT:     542806  MISS:       8779
LLC LOAD      ACCESS:     347838  HIT:     343334  MISS:       4504
LLC RFO       ACCESS:      88659  HIT:      84384  MISS:       4275
LLC PREFETCH  ACCESS:          0  HIT:          0  MISS:          0
LLC WRITEBACK ACCESS:     115047  HIT:     115047  MISS:          0
Heartbeat CPU 0 instructions: 94000000 cycles: 40588226 heartbeat IPC: 2.11633 cumulative IPC: 1.68372 (Simulation time: 0 hr 58 min 46 sec) 

Region of Interest Statistics
cpu0_DTLB TOTAL     ACCESS:    9980152  HIT:    9902264  MISS:      77888
cpu0_DTLB LOAD      ACCESS:    7912102  HIT:    7857990  MISS:      54112
cpu0_DTLB RFO       ACCESS:    2068050  HIT:    2044274  MISS:      23776
cpu0_DTLB PREFETCH  ACCESS:          0  HIT:          0  MISS:          0
cpu0_DTLB WRITEBACK ACCESS:          0  HIT:          0  MISS:          0
cpu0_ITLB TOTAL     ACCESS:    3968525  HIT:    3968525  MISS:          0
cpu0_ITLB LOAD      ACCESS:    3968525  HIT:    3968525  MISS:          0
cpu0_ITLB RFO       ACCESS:          0  HIT:          0  MISS:          0
cpu0_ITLB PREFETCH  ACCESS:          0  HIT:          0  MISS:          0
cpu0_ITLB WRITEBACK ACCESS:          0  HIT:          0  MISS:          0
cpu0_L1I TOTAL     ACCESS:      17396  HIT:      17396  MISS:          0
cpu0_L1I LOAD      ACCESS:      17396  HIT:      17396  MISS:          0
cpu0_L1I RFO       ACCESS:          0  HIT:          0  MISS:          0
cpu0_L1I PREFETCH  ACCESS:          0  HIT:          0  MISS:          0
cpu0_L1I WRITEBACK ACCESS:          0  HIT:          0  MISS:          0
cpu0_STLB TOTAL     ACCESS:      77888  HIT:      77769  MISS:        119
cpu0_STLB LOAD      ACCESS:      54112  HIT:      54062  MISS:         50
cpu0_STLB RFO       ACCESS:      23776  HIT:      23707  MISS:         69
cpu0_STLB PREFETCH  ACCESS:          0  HIT:          0  MISS:          0
cpu0_STLB WRITEBACK ACCESS:          0  HIT:          0  MISS:          0
cpu0_L1D TOTAL     ACCESS:   10820733  HIT:   10306429  MISS:     514304
cpu0_L1D LOAD      ACCESS:    6871243  HIT:    6448285  MISS:     422958
cpu0_L1D RFO       ACCESS:    3949374  HIT:    3858083  MISS:      91291
cpu0_L1D PREFETCH  ACCESS:          0  HIT:          0  MISS:          0
cpu0_L1D WRITEBACK ACCESS:          0  HIT:          0  MISS:          0
cpu0_L2C TOTAL     ACCESS:     636151  HIT:     106527  MISS:     529624
cpu0_L2C LOAD      ACCESS:     422941  HIT:      56022  MISS:     366919
cpu0_L2C RFO       ACCESS:      91282  HIT:       2587  MISS:      88695
cpu0_L2C PREFETCH  ACCESS:          0  HIT:          0  MISS:          0
cpu0_L2C WRITEBACK ACCESS:     121873  HIT:      47904  MISS:      73969
LLC TOTAL     ACCESS:     572636  HIT:     563857  MISS:       8779
LLC LOAD      ACCESS:     366907  HIT:     362403  MISS:       4504
LLC RFO       ACCESS:      88675  HIT:      84400  MISS:       4275
LLC PREFETCH  ACCESS:          0  HIT:          0  MISS:          0
LLC WRITEBACK ACCESS:     117013  HIT:     117013  MISS:          0
Heartbeat CPU 0 instructions: 96000000 cycles: 41737599 heartbeat IPC: 1.74008 cumulative IPC: 1.68609 (Simulation time: 1 hr 0 min 7 sec) 

Region of Interest Statistics
cpu0_DTLB TOTAL     ACCESS:   10426217  HIT:   10347808  MISS:      78409
cpu0_DTLB LOAD      ACCESS:    8264890  HIT:    8210265  MISS:      54625
cpu0_DTLB RFO       ACCESS:    2161327  HIT:    2137543  MISS:      23784
cpu0_DTLB PREFETCH  ACCESS:          0  HIT:          0  MISS:          0
cpu0_DTLB WRITEBACK ACCESS:          0  HIT:          0  MISS:          0
cpu0_ITLB TOTAL     ACCESS:    4076118  HIT:    4076118  MISS:          0
cpu0_ITLB LOAD      ACCESS:    4076118  HIT:    4076118  MISS:          0
cpu0_ITLB RFO       ACCESS:          0  HIT:          0  MISS:          0
cpu0_ITLB PREFETCH  ACCESS:          0  HIT:          0  MISS:          0
cpu0_ITLB WRITEBACK ACCESS:          0  HIT:          0  MISS:          0
cpu0_L1I TOTAL     ACCESS:      18162  HIT:      18162  MISS:          0
cpu0_L1I LOAD      ACCESS:      18162  HIT:      18162  MISS:          0
cpu0_L1I RFO       ACCESS:          0  HIT:          0  MISS:          0
cpu0_L1I PREFETCH  ACCESS:          0  HIT:          0  MISS:          0
cpu0_L1I WRITEBACK ACCESS:          0  HIT:          0  MISS:          0
cpu0_STLB TOTAL     ACCESS:      78409  HIT:      78290  MISS:        119
cpu0_STLB LOAD      ACCESS:      54625  HIT:      54575  MISS:         50
cpu0_STLB RFO       ACCESS:      23784  HIT:      23715  MISS:         69
cpu0_STLB PREFETCH  ACCESS:          0  HIT:          0  MISS:          0
cpu0_STLB WRITEBACK ACCESS:          0  HIT:          0  MISS:          0
cpu0_L1D TOTAL     ACCESS:   11281180  HIT:   10714086  MISS:     567094
cpu0_L1D LOAD      ACCESS:    7154179  HIT:    6678457  MISS:     475722
cpu0_L1D RFO       ACCESS:    4126885  HIT:    4035568  MISS:      91317
cpu0_L1D PREFETCH  ACCESS:          0  HIT:          0  MISS:          0
cpu0_L1D WRITEBACK ACCESS:          0  HIT:          0  MISS:          0
cpu0_L2C TOTAL     ACCESS:     694081  HIT:     109765  MISS:     584316
cpu0_L2C LOAD      ACCESS:     475705  HIT:      56277  MISS:     419428
cpu0_L2C RFO       ACCESS:      91308  HIT:       2587  MISS:      88721
cpu0_L2C PREFETCH  ACCESS:          0  HIT:          0  MISS:          0
cpu0_L2C WRITEBACK ACCESS:     127013  HIT:      50887  MISS:      76126
LLC TOTAL     ACCESS:     630316  HIT:     621537  MISS:       8779
LLC LOAD      ACCESS:     419416  HIT:     414912  MISS:       4504
LLC RFO       ACCESS:      88701  HIT:      84426  MISS:       4275
LLC PREFETCH  ACCESS:          0  HIT:          0  MISS:          0
LLC WRITEBACK ACCESS:     122158  HIT:     122158  MISS:          0
Heartbeat CPU 0 instructions: 98000000 cycles: 43420002 heartbeat IPC: 1.18878 cumulative IPC: 1.65721 (Simulation time: 1 hr 1 min 16 sec) 

Region of Interest Statistics
cpu0_DTLB TOTAL     ACCESS:   10917953  HIT:   10838060  MISS:      79893
cpu0_DTLB LOAD      ACCESS:    8642748  HIT:    8586639  MISS:      56109
cpu0_DTLB RFO       ACCESS:    2275205  HIT:    2251421  MISS:      23784
cpu0_DTLB PREFETCH  ACCESS:          0  HIT:          0  MISS:          0
cpu0_DTLB WRITEBACK ACCESS:          0  HIT:          0  MISS:          0
cpu0_ITLB TOTAL     ACCESS:    4303615  HIT:    4303615  MISS:          0
cpu0_ITLB LOAD      ACCESS:    4303615  HIT:    4303615  MISS:          0
cpu0_ITLB RFO       ACCESS:          0  HIT:          0  MISS:          0
cpu0_ITLB PREFETCH  ACCESS:          0  HIT:          0  MISS:          0
cpu0_ITLB WRITEBACK ACCESS:          0  HIT:          0  MISS:          0
cpu0_L1I TOTAL     ACCESS:      18282  HIT:      18282  MISS:          0
cpu0_L1I LOAD      ACCESS:      18282  HIT:      18282  MISS:          0
cpu0_L1I RFO       ACCESS:          0  HIT:          0  MISS:          0
cpu0_L1I PREFETCH  ACCESS:          0  HIT:          0  MISS:          0
cpu0_L1I WRITEBACK ACCESS:          0  HIT:          0  MISS:          0
cpu0_STLB TOTAL     ACCESS:      79893  HIT:      79774  MISS:        119
cpu0_STLB LOAD      ACCESS:      56109  HIT:      56059  MISS:         50
cpu0_STLB RFO       ACCESS:      23784  HIT:      23715  MISS:         69
cpu0_STLB PREFETCH  ACCESS:          0  HIT:          0  MISS:          0
cpu0_STLB WRITEBACK ACCESS:          0  HIT:          0  MISS:          0
cpu0_L1D TOTAL     ACCESS:   11871295  HIT:   11273248  MISS:     598047
cpu0_L1D LOAD      ACCESS:    7518075  HIT:    7011400  MISS:     506675
cpu0_L1D RFO       ACCESS:    4353104  HIT:    4261787  MISS:      91317
cpu0_L1D PREFETCH  ACCESS:          0  HIT:          0  MISS:          0
cpu0_L1D WRITEBACK ACCESS:          0  HIT:          0  MISS:          0
cpu0_L2C TOTAL     ACCESS:     727641  HIT:     119227  MISS:     608414
cpu0_L2C LOAD      ACCESS:     506658  HIT:      63995  MISS:     442663
cpu0_L2C RFO       ACCESS:      91308  HIT:       2587  MISS:      88721
cpu0_L2C PREFETCH  ACCESS:          0  HIT:          0  MISS:          0
cpu0_L2C WRITEBACK ACCESS:     129620  HIT:      52631  MISS:      76989
LLC TOTAL     ACCESS:     655438  HIT:     646659  MISS:       8779
LLC LOAD      ACCESS:     442650  HIT:     438146  MISS:       4504
LLC RFO       ACCESS:      88701  HIT:      84426  MISS:       4275
LLC PREFETCH  ACCESS:          0  HIT:          0  MISS:          0
LLC WRITEBACK ACCESS:     124046  HIT:     124046  MISS:          0
Heartbeat CPU 0 instructions: 100000000 cycles: 44762493 heartbeat IPC: 1.48977 cumulative IPC: 1.64979 (Simulation time: 1 hr 2 min 31 sec) 

Region of Interest Statistics
cpu0_DTLB TOTAL     ACCESS:   11405690  HIT:   11324747  MISS:      80943
cpu0_DTLB LOAD      ACCESS:    9026351  HIT:    8969192  MISS:      57159
cpu0_DTLB RFO       ACCESS:    2379339  HIT:    2355555  MISS:      23784
cpu0_DTLB PREFETCH  ACCESS:          0  HIT:          0  MISS:          0
cpu0_DTLB WRITEBACK ACCESS:          0  HIT:          0  MISS:          0
cpu0_ITLB TOTAL     ACCESS:    4524456  HIT:    4524456  MISS:          0
cpu0_ITLB LOAD      ACCESS:    4524456  HIT:    4524456  MISS:          0
cpu0_ITLB RFO       ACCESS:          0  HIT:          0  MISS:          0
cpu0_ITLB PREFETCH  ACCESS:          0  HIT:          0  MISS:          0
cpu0_ITLB WRITEBACK ACCESS:          0  HIT:          0  MISS:          0
cpu0_L1I TOTAL     ACCESS:      18289  HIT:      18289  MISS:          0
cpu0_L1I LOAD      ACCESS:      18289  HIT:      18289  MISS:          0
cpu0_L1I RFO       ACCESS:          0  HIT:          0  MISS:          0
cpu0_L1I PREFETCH  ACCESS:          0  HIT:          0  MISS:          0
cpu0_L1I WRITEBACK ACCESS:          0  HIT:          0  MISS:          0
cpu0_STLB TOTAL     ACCESS:      80943  HIT:      80824  MISS:        119
cpu0_STLB LOAD      ACCESS:      57159  HIT:      57109  MISS:         50
cpu0_STLB RFO       ACCESS:      23784  HIT:      23715  MISS:         69
cpu0_STLB PREFETCH  ACCESS:          0  HIT:          0  MISS:          0
cpu0_STLB WRITEBACK ACCESS:          0  HIT:          0  MISS:          0
cpu0_L1D TOTAL     ACCESS:   12439882  HIT:   11833536  MISS:     606346
cpu0_L1D LOAD      ACCESS:    7876875  HIT:    7361901  MISS:     514974
cpu0_L1D RFO       ACCESS:    4562891  HIT:    4471574  MISS:      91317
cpu0_L1D PREFETCH  ACCESS:          0  HIT:          0  MISS:          0
cpu0_L1D WRITEBACK ACCESS:          0  HIT:          0  MISS:          0
cpu0_L2C TOTAL     ACCESS:     736566  HIT:     120036  MISS:     616530
cpu0_L2C LOAD      ACCESS:     514957  HIT:      64498  MISS:     450459
cpu0_L2C RFO       ACCESS:      91308  HIT:       2587  MISS:      88721
cpu0_L2C PREFETCH  ACCESS:          0  HIT:          0  MISS:          0
cpu0_L2C WRITEBACK ACCESS:     130246  HIT:      52937  MISS:      77309
LLC TOTAL     ACCESS:     663850  HIT:     655071  MISS:       8779
LLC LOAD      ACCESS:     450446  HIT:     445942  MISS:       4504
LLC RFO       ACCESS:      88701  HIT:      84426  MISS:       4275
LLC PREFETCH  ACCESS:          0  HIT:          0  MISS:          0
LLC WRITEBACK ACCESS:     124662  HIT:     124662  MISS:          0
Heartbeat CPU 0 instructions: 102000000 cycles: 46065951 heartbeat IPC: 1.53438 cumulative IPC: 1.64503 (Simulation time: 1 hr 3 min 42 sec) 

Region of Interest Statistics
cpu0_DTLB TOTAL     ACCESS:   11885901  HIT:   11804435  MISS:      81466
cpu0_DTLB LOAD      ACCESS:    9407071  HIT:    9349389  MISS:      57682
cpu0_DTLB RFO       ACCESS:    2478830  HIT:    2455046  MISS:      23784
cpu0_DTLB PREFETCH  ACCESS:          0  HIT:          0  MISS:          0
cpu0_DTLB WRITEBACK ACCESS:          0  HIT:          0  MISS:          0
cpu0_ITLB TOTAL     ACCESS:    4742891  HIT:    4742891  MISS:          0
cpu0_ITLB LOAD      ACCESS:    4742891  HIT:    4742891  MISS:          0
cpu0_ITLB RFO       ACCESS:          0  HIT:          0  MISS:          0
cpu0_ITLB PREFETCH  ACCESS:          0  HIT:          0  MISS:          0
cpu0_ITLB WRITEBACK ACCESS:          0  HIT:          0  MISS:          0
cpu0_L1I TOTAL     ACCESS:      18289  HIT:      18289  MISS:          0
cpu0_L1I LOAD      ACCESS:      18289  HIT:      18289  MISS:          0
cpu0_L1I RFO       ACCESS:          0  HIT:          0  MISS:          0
cpu0_L1I PREFETCH  ACCESS:          0  HIT:          0  MISS:          0
cpu0_L1I WRITEBACK ACCESS:          0  HIT:          0  MISS:          0
cpu0_STLB TOTAL     ACCESS:      81466  HIT:      81347  MISS:        119
cpu0_STLB LOAD      ACCESS:      57682  HIT:      57632  MISS:         50
cpu0_STLB RFO       ACCESS:      23784  HIT:      23715  MISS:         69
cpu0_STLB PREFETCH  ACCESS:          0  HIT:          0  MISS:          0
cpu0_STLB WRITEBACK ACCESS:          0  HIT:          0  MISS:          0
cpu0_L1D TOTAL     ACCESS:   12993947  HIT:   12380970  MISS:     612977
cpu0_L1D LOAD      ACCESS:    8231688  HIT:    7710083  MISS:     521605
cpu0_L1D RFO       ACCESS:    4762143  HIT:    4670826  MISS:      91317
cpu0_L1D PREFETCH  ACCESS:          0  HIT:          0  MISS:          0
cpu0_L1D WRITEBACK ACCESS:          0  HIT:          0  MISS:          0
cpu0_L2C TOTAL     ACCESS:     743685  HIT:     120639  MISS:     623046
cpu0_L2C LOAD      ACCESS:     521588  HIT:      64743  MISS:     456845
cpu0_L2C RFO       ACCESS:      91308  HIT:       2587  MISS:      88721
cpu0_L2C PREFETCH  ACCESS:          0  HIT:          0  MISS:          0
cpu0_L2C WRITEBACK ACCESS:     130734  HIT:      53295  MISS:      77439
LLC TOTAL     ACCESS:     670729  HIT:     661950  MISS:       8779
LLC LOAD      ACCESS:     456832  HIT:     452328  MISS:       4504
LLC RFO       ACCESS:      88701  HIT:      84426  MISS:       4275
LLC PREFETCH  ACCESS:          0  HIT:          0  MISS:          0
LLC WRITEBACK ACCESS:     125155  HIT:     125155  MISS:          0
Heartbeat CPU 0 instructions: 104000003 cycles: 47366624 heartbeat IPC: 1.53767 cumulative IPC: 1.64079 (Simulation time: 1 hr 4 min 53 sec) 

Region of Interest Statistics
cpu0_DTLB TOTAL     ACCESS:   12344473  HIT:   12262780  MISS:      81693
cpu0_DTLB LOAD      ACCESS:    9768758  HIT:    9710849  MISS:      57909
cpu0_DTLB RFO       ACCESS:    2575715  HIT:    2551931  MISS:      23784
cpu0_DTLB PREFETCH  ACCESS:          0  HIT:          0  MISS:          0
cpu0_DTLB WRITEBACK ACCESS:          0  HIT:          0  MISS:          0
cpu0_ITLB TOTAL     ACCESS:    4961137  HIT:    4961137  MISS:          0
cpu0_ITLB LOAD      ACCESS:    4961137  HIT:    4961137  MISS:          0
cpu0_ITLB RFO       ACCESS:          0  HIT:          0  MISS:          0
cpu0_ITLB PREFETCH  ACCESS:          0  HIT:          0  MISS:          0
cpu0_ITLB WRITEBACK ACCESS:          0  HIT:          0  MISS:          0
cpu0_L1I TOTAL     ACCESS:      18289  HIT:      18289  MISS:          0
cpu0_L1I LOAD      ACCESS:      18289  HIT:      18289  MISS:          0
cpu0_L1I RFO       ACCESS:          0  HIT:          0  MISS:          0
cpu0_L1I PREFETCH  ACCESS:          0  HIT:          0  MISS:          0
cpu0_L1I WRITEBACK ACCESS:          0  HIT:          0  MISS:          0
cpu0_STLB TOTAL     ACCESS:      81693  HIT:      81574  MISS:        119
cpu0_STLB LOAD      ACCESS:      57909  HIT:      57859  MISS:         50
cpu0_STLB RFO       ACCESS:      23784  HIT:      23715  MISS:         69
cpu0_STLB PREFETCH  ACCESS:          0  HIT:          0  MISS:          0
cpu0_STLB WRITEBACK ACCESS:          0  HIT:          0  MISS:          0
cpu0_L1D TOTAL     ACCESS:   13528801  HIT:   12907924  MISS:     620877
cpu0_L1D LOAD      ACCESS:    8570147  HIT:    8040642  MISS:     529505
cpu0_L1D RFO       ACCESS:    4958538  HIT:    4867221  MISS:      91317
cpu0_L1D PREFETCH  ACCESS:          0  HIT:          0  MISS:          0
cpu0_L1D WRITEBACK ACCESS:          0  HIT:          0  MISS:          0
cpu0_L2C TOTAL     ACCESS:     752165  HIT:     121397  MISS:     630768
cpu0_L2C LOAD      ACCESS:     529488  HIT:      65040  MISS:     464448
cpu0_L2C RFO       ACCESS:      91308  HIT:       2587  MISS:      88721
cpu0_L2C PREFETCH  ACCESS:          0  HIT:          0  MISS:          0
cpu0_L2C WRITEBACK ACCESS:     131314  HIT:      53756  MISS:      77558
LLC TOTAL     ACCESS:     678918  HIT:     670139  MISS:       8779
LLC LOAD      ACCESS:     464435  HIT:     459931  MISS:       4504
LLC RFO       ACCESS:      88701  HIT:      84426  MISS:       4275
LLC PREFETCH  ACCESS:          0  HIT:          0  MISS:          0
LLC WRITEBACK ACCESS:     125741  HIT:     125741  MISS:          0
Heartbeat CPU 0 instructions: 106000000 cycles: 48652261 heartbeat IPC: 1.55565 cumulative IPC: 1.63759 (Simulation time: 1 hr 6 min 13 sec) 

Region of Interest Statistics
cpu0_DTLB TOTAL     ACCESS:   12821856  HIT:   12738016  MISS:      83840
cpu0_DTLB LOAD      ACCESS:   10137512  HIT:   10078704  MISS:      58808
cpu0_DTLB RFO       ACCESS:    2684344  HIT:    2659312  MISS:      25032
cpu0_DTLB PREFETCH  ACCESS:          0  HIT:          0  MISS:          0
cpu0_DTLB WRITEBACK ACCESS:          0  HIT:          0  MISS:          0
cpu0_ITLB TOTAL     ACCESS:    5111661  HIT:    5111661  MISS:          0
cpu0_ITLB LOAD      ACCESS:    5111661  HIT:    5111661  MISS:          0
cpu0_ITLB RFO       ACCESS:          0  HIT:          0  MISS:          0
cpu0_ITLB PREFETCH  ACCESS:          0  HIT:          0  MISS:          0
cpu0_ITLB WRITEBACK ACCESS:          0  HIT:          0  MISS:          0
cpu0_L1I TOTAL     ACCESS:      20418  HIT:      20418  MISS:          0
cpu0_L1I LOAD      ACCESS:      20418  HIT:      20418  MISS:          0
cpu0_L1I RFO       ACCESS:          0  HIT:          0  MISS:          0
cpu0_L1I PREFETCH  ACCESS:          0  HIT:          0  MISS:          0
cpu0_L1I WRITEBACK ACCESS:          0  HIT:          0  MISS:          0
cpu0_STLB TOTAL     ACCESS:      83840  HIT:      83690  MISS:        150
cpu0_STLB LOAD      ACCESS:      58808  HIT:      58743  MISS:         65
cpu0_STLB RFO       ACCESS:      25032  HIT:      24947  MISS:         85
cpu0_STLB PREFETCH  ACCESS:          0  HIT:          0  MISS:          0
cpu0_STLB WRITEBACK ACCESS:          0  HIT:          0  MISS:          0
cpu0_L1D TOTAL     ACCESS:   13982536  HIT:   13307865  MISS:     674671
cpu0_L1D LOAD      ACCESS:    8857771  HIT:    8289248  MISS:     568523
cpu0_L1D RFO       ACCESS:    5124619  HIT:    5018536  MISS:     106083
cpu0_L1D PREFETCH  ACCESS:          0  HIT:          0  MISS:          0
cpu0_L1D WRITEBACK ACCESS:          0  HIT:          0  MISS:          0
cpu0_L2C TOTAL     ACCESS:     823842  HIT:     128444  MISS:     695398
cpu0_L2C LOAD      ACCESS:     568506  HIT:      66595  MISS:     501911
cpu0_L2C RFO       ACCESS:     106074  HIT:       2600  MISS:     103474
cpu0_L2C PREFETCH  ACCESS:          0  HIT:          0  MISS:          0
cpu0_L2C WRITEBACK ACCESS:     149197  HIT:      59231  MISS:      89966
[...]
cpu0_DTLB PREFETCH  REQUESTED:          0  ISSUED:          0  USEFUL:          0  USELESS:          0
cpu0_DTLB AVERAGE MISS LATENCY: 9.11007 cycles
cpu0_ITLB TOTAL     ACCESS:  113270288  HIT:  113270280  MISS:          8
cpu0_ITLB LOAD      ACCESS:  113270288  HIT:  113270280  MISS:          8
cpu0_ITLB RFO       ACCESS:          0  HIT:          0  MISS:          0
cpu0_ITLB PREFETCH  ACCESS:          0  HIT:          0  MISS:          0
cpu0_ITLB WRITEBACK ACCESS:          0  HIT:          0  MISS:          0
cpu0_ITLB TRANSLATION ACCESS:          0  HIT:          0  MISS:          0
cpu0_ITLB PREFETCH  REQUESTED:          0  ISSUED:          0  USEFUL:          0  USELESS:          0
cpu0_ITLB AVERAGE MISS LATENCY: 257.375 cycles
cpu0_L1I TOTAL     ACCESS:   15105660  HIT:   15105397  MISS:        263
cpu0_L1I LOAD      ACCESS:   15105660  HIT:   15105397  MISS:        263
cpu0_L1I RFO       ACCESS:          0  HIT:          0  MISS:          0
cpu0_L1I PREFETCH  ACCESS:          0  HIT:          0  MISS:          0
cpu0_L1I WRITEBACK ACCESS:          0  HIT:          0  MISS:          0
cpu0_L1I TRANSLATION ACCESS:          0  HIT:          0  MISS:          0
cpu0_L1I PREFETCH  REQUESTED:          0  ISSUED:          0  USEFUL:          0  USELESS:          0
cpu0_L1I AVERAGE MISS LATENCY: 204.856 cycles
cpu0_STLB TOTAL     ACCESS:    4718825  HIT:    4717714  MISS:       1111
cpu0_STLB LOAD      ACCESS:    2841306  HIT:    2840411  MISS:        895
cpu0_STLB RFO       ACCESS:    1877519  HIT:    1877303  MISS:        216
cpu0_STLB PREFETCH  ACCESS:          0  HIT:          0  MISS:          0
cpu0_STLB WRITEBACK ACCESS:          0  HIT:          0  MISS:          0
cpu0_STLB TRANSLATION ACCESS:          0  HIT:          0  MISS:          0
cpu0_STLB PREFETCH  REQUESTED:          0  ISSUED:          0  USEFUL:          0  USELESS:          0
cpu0_STLB AVERAGE MISS LATENCY: 212.044 cycles
cpu0_L1D TOTAL     ACCESS:  389046591  HIT:  370366092  MISS:   18680499
cpu0_L1D LOAD      ACCESS:  230704018  HIT:  214942602  MISS:   15761416
cpu0_L1D RFO       ACCESS:  158341468  HIT:  155422513  MISS:    2918955
cpu0_L1D PREFETCH  ACCESS:          0  HIT:          0  MISS:          0
cpu0_L1D WRITEBACK ACCESS:          0  HIT:          0  MISS:          0
cpu0_L1D TRANSLATION ACCESS:       1105  HIT:        977  MISS:        128
cpu0_L1D PREFETCH  REQUESTED:          0  ISSUED:          0  USEFUL:          0  USELESS:          0
cpu0_L1D AVERAGE MISS LATENCY: 34.9929 cycles
cpu0_L2C TOTAL     ACCESS:   22871444  HIT:    3012387  MISS:   19859057
cpu0_L2C LOAD      ACCESS:   15761132  HIT:    1246886  MISS:   14514246
cpu0_L2C RFO       ACCESS:    2918735  HIT:      79310  MISS:    2839425
cpu0_L2C PREFETCH  ACCESS:          0  HIT:          0  MISS:          0
cpu0_L2C WRITEBACK ACCESS:    4191449  HIT:    1686165  MISS:    2505284
cpu0_L2C TRANSLATION ACCESS:        128  HIT:         26  MISS:        102
cpu0_L2C PREFETCH  REQUESTED:          0  ISSUED:          0  USEFUL:          0  USELESS:          0
cpu0_L2C AVERAGE MISS LATENCY: 22.5202 cycles
LLC TOTAL     ACCESS:   21418290  HIT:   21111275  MISS:     307015
LLC LOAD      ACCESS:   14513877  HIT:   14390716  MISS:     123161
LLC RFO       ACCESS:    2839103  HIT:    2655260  MISS:     183843
LLC PREFETCH  ACCESS:          0  HIT:          0  MISS:          0
LLC WRITEBACK ACCESS:    4065208  HIT:    4065208  MISS:          0
LLC TRANSLATION ACCESS:        102  HIT:         91  MISS:         11
LLC PREFETCH  REQUESTED:          0  ISSUED:          0  USEFUL:          0  USELESS:          0
LLC AVERAGE MISS LATENCY: 269.715 cycles
~~~~~~~~~~Reuse Distance Profiler output~~~~~~~~~~
0	50897024	11517680
1	39320080	18345584
2	39146976	24739296
3	34331008	25200784
4	21990848	15277312
5	18072432	12069632
6	14459024	8818784
7	13795360	8527696
8	13696064	7540384
9	12181808	8253728
10	9531584	6042576
11	10718592	4937008
12	7498272	4723808
13	17653840	9147792
14	5322608	3606240
15	4532112	2901616
16	3975520	2479216
17	3182304	1945664
18	2738256	1625552
19	2460576	1395296
20	2132784	1105488
21	1974656	1108896
22	1893488	1023056
23	1754688	842080
24	1408224	727216
25	1168976	650336
26	1059040	606080
27	1290128	721328
28	870496	489040
29	702544	393248
30	617520	370176
31	571920	358672
32	581616	370112
33	546512	368528
34	489728	332016
35	478816	295632
36	408864	291408
37	358656	261520
38	379632	284256
39	342912	270064
40	310096	230608
41	655088	333840
42	251104	204240
43	225808	185632
44	206560	175456
45	202384	176768
46	187120	165040
47	185376	163376
48	167424	147856
49	171920	152832
50	160496	140784
51	167248	139248
52	160000	145296
53	147520	134816
54	148032	131056
55	318768	237920
56	141888	129424
57	139296	123248
58	181072	162768
59	135056	124272
60	131152	121584
61	126016	116128
62	125136	115904
63	127376	117968
64	248592	230320
66	260656	237808
68	360480	342640
70	251232	239904
72	256416	242736
74	319296	290032
76	362400	340400
78	405536	378112
80	423936	376640
82	469680	431248
84	338816	319872
86	319664	293584
88	317136	290576
90	366560	335616
92	363008	335872
94	397376	370848
96	549920	457008
98	418528	382976
100	423632	386928
102	402512	367968
104	401584	366912
106	381600	350432
108	360992	330784
110	413456	385504
112	295728	270704
114	262320	235376
116	236240	210896
118	228528	193856
120	219456	179328
122	229568	175984
124	329008	257040
126	238336	153840
128	485616	253152
132	538272	224656
136	712512	300208
140	459472	197696
144	379200	194512
148	311408	188064
152	319200	247168
156	203552	161248
160	188800	153664
164	242720	222496
168	168896	144128
172	160688	138016
176	155280	135440
180	214400	194176
184	144768	123648
188	137952	117808
192	197600	173200
196	143024	116528
200	139904	108480
204	144496	109600
208	201216	161728
212	143776	99712
216	144800	96672
220	190448	147824
224	133104	96672
228	122992	91264
232	117984	89328
236	158352	137632
240	101328	85296
244	94880	84864
248	141488	133344
252	92944	84192
256	201072	170832
264	232992	205248
272	253392	220000
280	219552	180448
288	251744	227088
296	193760	171728
304	210512	183280
312	169056	131088
320	204128	157520
328	226384	161920
336	237584	145920
344	284128	190016
352	204880	157456
360	190784	168912
368	113392	106560
376	133456	128800
384	127872	124272
392	100416	95584
400	123040	117984
408	88640	84256
416	115008	111376
424	93216	90976
432	106144	103840
440	102656	100288
448	90400	87040
456	114080	111360
464	100096	96784
472	120784	116864
480	98864	95824
488	122224	118480
496	123872	121008
504	109136	101664
512	215696	208624
528	209936	191968
544	219968	212048
560	192832	186080
576	144768	140432
592	137248	134032
608	126976	123776
624	131088	127712
640	129424	125776
656	132320	128208
672	119552	113984
688	116752	113408
704	111904	108720
720	112128	109056
736	114720	111776
752	110496	107664
768	121744	119152
784	113248	110384
800	105120	101216
816	105904	102000
832	104192	101888
848	94656	92240
864	96496	93856
880	97856	95376
896	93264	91024
912	93776	91504
928	91872	89072
944	91408	87936
960	86592	83840
976	86592	84608
992	80320	78320
1008	78512	76224
1024	162576	158432
1056	137024	132384
1088	137488	131632
1120	121536	117152
1152	113760	109888
1184	117808	113712
1216	113216	106784
1248	102704	98608
1280	117040	111280
1312	113056	109168
1344	109216	101632
1376	115440	111440
1408	100624	96896
1440	92576	89424
1472	95904	91888
1504	86192	81776
1536	79904	76896
1568	74048	71232
1600	72320	68656
1632	73664	68848
1664	79216	75280
1696	86176	82432
1728	71552	67248
1760	70096	65888
1792	70192	66688
1824	67680	63920
1856	71344	65648
1888	69584	62368
1920	68672	63744
1952	81312	77744
1984	82768	78656
2016	68816	63408
2048	123856	115680
2112	160208	139008
2176	141264	115760
2240	131088	119936
2304	137904	127712
2368	121392	112096
2432	116448	108448
2496	104144	99248
2560	138288	132864
2624	131760	126992
2688	120944	115024
2752	171904	167744
2816	174784	169136
2880	175376	170528
2944	128176	123024
3008	148368	142800
3072	121872	117392
3136	96800	92640
3200	83392	79504
3264	74432	70400
3328	71520	67216
3392	83600	75792
3456	75392	67712
3520	72192	60752
3584	69184	59104
3648	69824	59280
3712	63744	58080
3776	64672	59920
3840	68112	56560
3904	56912	52576
3968	54208	50608
4032	54592	51104
4096	107968	101472
4224	102800	96864
4352	120064	114256
4480	99152	93152
4608	89632	82400
4736	85200	79856
4864	80464	74944
4992	81824	76112
5120	78144	72912
5248	73984	68816
5376	76640	71744
5504	75872	70432
5632	73664	68224
5760	70944	66496
5888	72064	67792
6016	77632	73216
6144	77584	72848
6272	73264	68688
6400	72624	67376
6528	70128	65856
6656	65680	61040
6784	62624	58352
6912	62048	58320
7040	164800	160208
7168	85712	81696
7296	63760	59296
7424	60352	56832
7552	59360	55968
7680	55264	51248
7808	62832	52432
7936	63424	49936
8064	57360	53856
8192	106768	99216
8448	102432	95216
8704	96128	89552
8960	89472	82688
9216	90768	83536
9472	88640	82256
9728	81296	74816
9984	74768	68496
10240	73296	66528
10496	73296	66144
10752	66272	60000
11008	69760	64768
11264	68640	63408
11520	73712	67232
11776	72288	66560
12032	64192	58512
12288	68128	61664
12544	72064	60464
12800	77280	64928
13056	70992	66336
13312	76368	71904
13568	73376	69312
13824	61088	57232
14080	70480	65136
14336	95376	92192
14592	260736	257632
14848	65456	62608
15104	65920	62384
15360	59040	55824
15616	58048	55232
15872	58160	54480
16128	54544	51344
16384	127104	121408
16896	289680	283824
17408	111424	106240
17920	94048	88944
18432	101840	96576
18944	91840	87088
19456	90672	85824
19968	100176	95712
20480	163600	158592
20992	128704	124176
21504	127536	122624
22016	97984	93392
22528	93936	89664
23040	94864	90416
23552	101120	96736
24064	361968	356944
24576	77360	73584
25088	77904	75184
25600	80032	76144
26112	69040	66496
26624	67808	65296
27136	66192	63648
27648	71488	68480
28160	67472	64768
28672	71344	69056
29184	156432	153984
29696	119120	117024
30208	68352	66480
30720	73472	71136
31232	61552	59520
31744	68352	66112
32256	68656	66960
32768	337616	334112
33792	316768	312800
34816	142240	138496
35840	560976	556720
36864	585376	580544
37888	128192	123584
38912	146016	139760
39936	153392	151040
40960	109424	106912
41984	100688	98576
43008	93584	91568
44032	106320	100224
45056	92784	90832
46080	89040	87136
47104	84944	82496
48128	81728	79808
49152	77168	74992
50176	72224	70240
51200	69920	67456
52224	72448	69712
53248	64752	61904
54272	64144	61440
55296	67216	64544
56320	92416	55520
57344	55824	52672
58368	57568	54656
59392	54352	50592
60416	71920	53488
61440	78144	53280
62464	72224	49072
63488	51648	49024
64512	44432	42256
65536	95280	89760
67584	107344	93136
69632	93472	80160
71680	96432	79648
73728	110640	98480
75776	108112	82976
77824	89184	75328
79872	71616	68720
81920	93200	67648
83968	87280	71040
86016	65264	61360
88064	62032	57808
90112	62336	57936
92160	61008	53280
94208	70416	54368
96256	53664	50256
98304	55456	51504
100352	55792	50080
102400	55136	41264
104448	48592	43888
106496	66064	49120
108544	52864	48096
110592	55040	49584
112640	54480	48240
114688	67712	48752
116736	47056	40544
118784	52112	42528
120832	43280	34224
122880	42976	35760
124928	37088	33632
126976	36352	32464
129024	37040	32272
131072	72288	54304
135168	63312	56288
139264	56336	53216
143360	61696	57024
147456	65808	62720
151552	63504	59152
155648	72464	56480
159744	56576	53088
163840	54176	49552
167936	47664	43056
172032	49056	45264
176128	60352	43424
180224	50832	44432
184320	45328	41840
188416	41680	38304
192512	43104	39056
196608	47936	44752
200704	43792	39536
204800	37056	36048
208896	38048	36880
212992	41520	39872
217088	38384	36304
221184	41104	39232
225280	42544	40912
229376	42224	41024
233472	43200	40048
237568	40128	38848
241664	49136	42336
245760	44896	43408
249856	39840	38480
253952	37664	34528
258048	35136	33520
262144	62032	59424
270336	52784	50640
278528	55312	52560
286720	50160	46880
294912	52768	50640
303104	44720	42160
311296	44512	42352
319488	42656	40464
327680	49744	46880
335872	42784	40480
344064	43520	41088
352256	59136	42784
360448	50656	47760
368640	52592	50256
376832	49728	40144
385024	42608	38992
393216	44048	37312
401408	40544	35088
409600	48432	34736
417792	34048	30640
425984	42608	29840
434176	31856	29424
442368	39824	27328
450560	45840	33744
458752	25888	23440
466944	27024	23408
475136	32032	25936
483328	26016	21392
491520	27152	24384
499712	31952	27648
507904	31744	23664
516096	29824	24048
524288	58048	46864
540672	68848	47392
557056	64160	44528
573440	61424	46512
589824	71072	51088
606208	64608	45616
622592	52048	35728
638976	43136	33472
655360	51840	32336
671744	44256	27824
688128	39680	28480
704512	43312	29312
720896	37584	26128
737280	38336	29264
753664	41456	31856
770048	39568	31776
786432	43024	28368
802816	31824	26672
819200	54944	39584
835584	32848	26800
851968	28528	26256
868352	47408	27248
884736	38704	30688
901120	26448	23712
917504	61120	46112
933888	21504	19696
950272	25120	22928
966656	30112	15728
983040	21168	17536
999424	17952	14384
1015808	17040	14880
1032192	36400	27776
1048576	42032	24960
1081344	27440	19808
1114112	45136	31184
1146880	24640	17104
1179648	46992	16160
1212416	26528	17760
1245184	48128	18880
1277952	48432	18720
1310720	48464	18112
1343488	41248	21376
1376256	40944	16736
1409024	29648	16768
1441792	33904	18144
1474560	70512	18640
1507328	45504	15280
1540096	30112	12336
1572864	17984	13840
1605632	14368	9280
1638400	14496	7808
1671168	23920	9056
1703936	20816	10704
1736704	13760	11024
1769472	13168	10192
1802240	14880	9568
1835008	14480	9648
1867776	15696	10128
1900544	19392	12304
1933312	12624	10176
1966080	21936	11712
1998848	16416	9504
2031616	13488	8560
2064384	9808	8112
2097152	28944	17696
2162688	21632	11520
2228224	16624	9040
2293760	18912	8704
2359296	13840	8896
2424832	22016	9648
2490368	20208	12880
2555904	18320	12496
2621440	17680	10816
2686976	18944	10736
2752512	16544	9616
2818048	14592	8400
2883584	12704	6960
2949120	10928	7968
3014656	13776	10016
3080192	13936	9504
3145728	14256	5776
3211264	12048	5664
3276800	10048	5312
3342336	11104	7632
3407872	10624	8144
3473408	8560	5568
3538944	6240	4320
3604480	6320	4080
3670016	11008	4208
3735552	27584	6416
3801088	28464	4416
3866624	26880	4896
3932160	17408	3184
3997696	9904	3408
4063232	8416	3104
4128768	18800	4064
4194304	29232	8016
4325376	25040	5504
4456448	18304	5792
4587520	20000	6096
4718592	14192	4560
4849664	9088	4416
4980736	9600	4176
5111808	22560	6944
5242880	23040	7392
5373952	15600	10000
5505024	23200	8176
5636096	37760	7824
5767168	15072	7024
5898240	17184	7216
6029312	20688	7504
6160384	14800	7568
6291456	19488	6256
6422528	9872	5296
6553600	9232	4320
6684672	15008	2896
6815744	12416	2528
6946816	5840	1632
7077888	11440	4240
7208960	8656	5568
7340032	6640	2384
7471104	5552	2704
7602176	5520	1888
7733248	4880	2400
7864320	4320	1760
7995392	8944	3312
8126464	6144	2368
8257536	5424	2432
8388608	12800	4704
8650752	12144	4720
8912896	10592	4400
9175040	11120	4208
9437184	6608	2416
9699328	9856	3024
9961472	10960	3120
10223616	10096	3504
10485760	8912	1440
10747904	8400	1888
11010048	8976	2080
11272192	8288	3104
11534336	9120	3424
11796480	7584	2480
12058624	5408	1600
12320768	9248	5440
12582912	6928	3872
12845056	7328	4944
13107200	3696	1552
13369344	5872	4832
13631488	4992	3568
13893632	4032	1984
14155776	7856	3120
14417920	10640	2784
14680064	12800	2976
14942208	19728	2544
15204352	20960	1984
15466496	24592	2080
15728640	27136	1664
15990784	29136	2080
16252928	25248	2128
16515072	22848	1968
16777216	36224	3968
17301504	27616	1136
17825792	17952	560
18350080	10704	3936
18874368	4864	1952
19398656	4432	2912
19922944	3408	2032
20447232	3712	2144
20971520	8240	5808
21495808	5072	3664
22020096	10912	8624
22544384	6080	3616
23068672	6352	4592
23592960	5376	4208
24117248	8320	6496
24641536	4624	3408
25165824	4864	2880
25690112	3888	3232
26214400	3984	2592
26738688	3984	2752
27262976	2416	1680
27787264	1920	1664
28311552	1872	1632
28835840	2384	1744
29360128	2176	1856
29884416	2080	1152
30408704	944	832
30932992	1552	1296
31457280	2800	2496
31981568	3824	2752
32505856	2496	1696
33030144	3600	3040
33554432	7504	5904
34603008	13328	11216
35651584	6816	5744
36700160	7520	7232
37748736	6752	6464
38797312	7504	7168
39845888	5776	4528
40894464	6000	4304
41943040	4752	3952
42991616	4304	4192
44040192	6832	5488
45088768	7376	5584
46137344	4448	3184
47185920	4672	2464
48234496	2960	1840
49283072	1472	1280
50331648	1584	1504
51380224	2720	2672
52428800	2256	2176
53477376	1680	1616
54525952	1184	656
55574528	1264	688
56623104	816	400
57671680	2352	336
58720256	1920	32
59768832	96	0
60817408	256	16
61865984	1952	0
62914560	80	0
63963136	0	0
65011712	320	0
66060288	32	0
67108864	80	48
69206016	1808	0
71303168	2224	0
73400320	240	0
75497472	128	0
77594624	0	0
79691776	0	0
81788928	0	0
83886080	0	0
85983232	0	0
88080384	0	0
90177536	0	0
92274688	0	0
94371840	0	0
96468992	0	0
98566144	0	0
100663296	0	0
102760448	0	0
104857600	0	0
106954752	0	0
109051904	0	0
111149056	0	0
113246208	0	0
115343360	0	0
117440512	0	0
119537664	0	0
121634816	16	0
123731968	0	0
125829120	0	0
127926272	0	0
130023424	0	0
132120576	0	0
134217728	0	0
138412032	0	0
142606336	0	0
146800640	0	0
150994944	0	0
155189248	0	0
159383552	0	0
163577856	0	0
167772160	0	0
171966464	0	0
176160768	0	0
180355072	0	0
184549376	0	0
188743680	0	0
192937984	0	0
197132288	0	0
201326592	0	0
205520896	0	0
209715200	0	0
213909504	0	0
218103808	0	0
222298112	0	0
226492416	0	0
230686720	0	0
234881024	0	0
239075328	0	0
243269632	0	0
247463936	0	0
251658240	0	0
255852544	0	0
260046848	0	0
264241152	0	0
268435456	0	0
276824064	0	0
285212672	0	0
293601280	0	0
301989888	0	0
310378496	0	0
318767104	0	0
327155712	0	0
335544320	0	0
343932928	0	0
352321536	0	0
360710144	0	0
369098752	0	0
377487360	0	0
385875968	0	0
394264576	0	0
402653184	0	0
411041792	0	0
419430400	0	0
427819008	0	0
436207616	0	0
444596224	0	0
452984832	0	0
461373440	0	0
469762048	0	0
478150656	0	0
486539264	0	0
494927872	0	0
503316480	0	0
511705088	0	0
520093696	0	0
528482304	0	0
536870912	0	0
553648128	0	0
570425344	0	0
587202560	0	0
603979776	0	0
620756992	0	0
637534208	0	0
654311424	0	0
671088640	0	0
687865856	0	0
704643072	0	0
721420288	0	0
738197504	0	0
754974720	0	0
771751936	0	0
788529152	0	0
805306368	0	0
822083584	0	0
838860800	0	0
855638016	0	0
872415232	0	0
889192448	0	0
905969664	0	0
922746880	0	0
939524096	0	0
956301312	0	0
973078528	0	0
989855744	0	0
1006632960	0	0
1023410176	0	0
1040187392	0	0
1056964608	0	0
1073741824	0	0
1107296256	0	0
1140850688	0	0
1174405120	0	0
1207959552	0	0
1241513984	0	0
1275068416	0	0
1308622848	0	0
1342177280	0	0
1375731712	0	0
1409286144	0	0
1442840576	0	0
1476395008	0	0
1509949440	0	0
1543503872	0	0
1577058304	0	0
1610612736	0	0
1644167168	0	0
1677721600	0	0
1711276032	0	0
1744830464	0	0
1778384896	0	0
1811939328	0	0
1845493760	0	0
1879048192	0	0
1912602624	0	0
1946157056	0	0
1979711488	0	0
2013265920	0	0
2046820352	0	0
2080374784	0	0
2113929216	0	0
2147483648	0	0
2214592512	0	0
2281701376	0	0
2348810240	0	0
2415919104	0	0
2483027968	0	0
2550136832	0	0
2617245696	0	0
2684354560	0	0
2751463424	0	0
2818572288	0	0
2885681152	0	0
2952790016	0	0
3019898880	0	0
3087007744	0	0
3154116608	0	0
3221225472	0	0
3288334336	0	0
3355443200	0	0
3422552064	0	0
3489660928	0	0
3556769792	0	0
3623878656	0	0
3690987520	0	0
3758096384	0	0
3825205248	0	0
3892314112	0	0
3959422976	0	0
4026531840	0	0
4093640704	0	0
4160749568	0	0
4227858432	0	0
~~~~~~~~~~Reuse Distance Profiler output end~~~~~~~~~~

Sampler size:6992

DRAM Statistics
 CHANNEL 0
 RQ ROW_BUFFER_HIT:      60886  ROW_BUFFER_MISS:     245669
 DBUS AVG_CONGESTED_CYCLE:    3.96182
 WQ ROW_BUFFER_HIT:      63822  ROW_BUFFER_MISS:     148049  FULL:          0


CPU 0 Branch Prediction Accuracy: 93.4576% MPKI: 9.78123 Average ROB Occupancy at Mispredict: 52.6124
Branch type MPKI
BRANCH_DIRECT_JUMP: 2.66667e-05
BRANCH_INDIRECT: 0
BRANCH_CONDITIONAL: 9.78108
BRANCH_DIRECT_CALL: 6.06667e-05
BRANCH_INDIRECT_CALL: 0
BRANCH_RETURN: 6.2e-05

