
*** ChampSim Multicore Out-of-Order Simulator ***

Warmup Instructions: 50000000
Simulation Instructions: 1500000000
Number of CPUs: 1
Off-chip DRAM Size: 4 GiB Channels: 1 Width: 64-bit Data Rate: 3200 MT/s

VirtualMemory physical capacity: 8588881920 num_ppages: 2096895
VirtualMemory page size: 4096 log2_page_size: 12

CPU 0 runs /s/traces/champsim_traces/437.leslie3d-265B.champsimtrace.xz
CPU 0 Bimodal branch predictor
Basic BTB sets: 1024 ways: 8 indirect buffer size: 4096 RAS size: 64
Initializing LRU.
Initializing LRU.
Initializing LRU.
Initializing LRU.
Initializing rdLRU.
Initializing LRU.
Initializing LRU.
Heartbeat CPU 0 instructions: 2000000 cycles: 758067 heartbeat IPC: 2.63829 cumulative IPC: 2.63829 (Simulation time: 0 hr 1 min 7 sec) 
Heartbeat CPU 0 instructions: 4000000 cycles: 1516086 heartbeat IPC: 2.63846 cumulative IPC: 2.63837 (Simulation time: 0 hr 2 min 14 sec) 
Heartbeat CPU 0 instructions: 6000002 cycles: 2274111 heartbeat IPC: 2.63844 cumulative IPC: 2.63839 (Simulation time: 0 hr 3 min 18 sec) 
Heartbeat CPU 0 instructions: 8000002 cycles: 3031905 heartbeat IPC: 2.63924 cumulative IPC: 2.63861 (Simulation time: 0 hr 4 min 28 sec) 
Heartbeat CPU 0 instructions: 10000003 cycles: 3789767 heartbeat IPC: 2.639 cumulative IPC: 2.63869 (Simulation time: 0 hr 5 min 46 sec) 
Heartbeat CPU 0 instructions: 12000004 cycles: 4547581 heartbeat IPC: 2.63917 cumulative IPC: 2.63877 (Simulation time: 0 hr 6 min 50 sec) 
Heartbeat CPU 0 instructions: 14000001 cycles: 5304856 heartbeat IPC: 2.64104 cumulative IPC: 2.63909 (Simulation time: 0 hr 8 min 2 sec) 
Heartbeat CPU 0 instructions: 16000000 cycles: 6062106 heartbeat IPC: 2.64113 cumulative IPC: 2.63935 (Simulation time: 0 hr 9 min 10 sec) 
Heartbeat CPU 0 instructions: 18000001 cycles: 6819502 heartbeat IPC: 2.64063 cumulative IPC: 2.63949 (Simulation time: 0 hr 10 min 22 sec) 
Heartbeat CPU 0 instructions: 20000000 cycles: 7576969 heartbeat IPC: 2.64038 cumulative IPC: 2.63958 (Simulation time: 0 hr 11 min 31 sec) 
Heartbeat CPU 0 instructions: 22000001 cycles: 8334439 heartbeat IPC: 2.64037 cumulative IPC: 2.63965 (Simulation time: 0 hr 12 min 36 sec) 
Heartbeat CPU 0 instructions: 24000003 cycles: 9092432 heartbeat IPC: 2.63855 cumulative IPC: 2.63956 (Simulation time: 0 hr 13 min 44 sec) 
Heartbeat CPU 0 instructions: 26000003 cycles: 9849929 heartbeat IPC: 2.64027 cumulative IPC: 2.63961 (Simulation time: 0 hr 14 min 56 sec) 
Heartbeat CPU 0 instructions: 28000002 cycles: 10607562 heartbeat IPC: 2.6398 cumulative IPC: 2.63963 (Simulation time: 0 hr 16 min 2 sec) 
Heartbeat CPU 0 instructions: 30000003 cycles: 11365453 heartbeat IPC: 2.6389 cumulative IPC: 2.63958 (Simulation time: 0 hr 17 min 11 sec) 
Heartbeat CPU 0 instructions: 32000002 cycles: 12123401 heartbeat IPC: 2.6387 cumulative IPC: 2.63952 (Simulation time: 0 hr 18 min 18 sec) 
Heartbeat CPU 0 instructions: 34000004 cycles: 12881420 heartbeat IPC: 2.63846 cumulative IPC: 2.63946 (Simulation time: 0 hr 19 min 20 sec) 
Heartbeat CPU 0 instructions: 36000004 cycles: 13639440 heartbeat IPC: 2.63845 cumulative IPC: 2.6394 (Simulation time: 0 hr 20 min 22 sec) 
Heartbeat CPU 0 instructions: 38000003 cycles: 14397230 heartbeat IPC: 2.63925 cumulative IPC: 2.6394 (Simulation time: 0 hr 21 min 20 sec) 
Heartbeat CPU 0 instructions: 40000004 cycles: 15155088 heartbeat IPC: 2.63902 cumulative IPC: 2.63938 (Simulation time: 0 hr 22 min 28 sec) 
Heartbeat CPU 0 instructions: 42000001 cycles: 15912896 heartbeat IPC: 2.63919 cumulative IPC: 2.63937 (Simulation time: 0 hr 23 min 37 sec) 
Heartbeat CPU 0 instructions: 44000000 cycles: 16670148 heartbeat IPC: 2.64113 cumulative IPC: 2.63945 (Simulation time: 0 hr 24 min 46 sec) 
Heartbeat CPU 0 instructions: 46000000 cycles: 17427399 heartbeat IPC: 2.64113 cumulative IPC: 2.63952 (Simulation time: 0 hr 25 min 54 sec) 
Heartbeat CPU 0 instructions: 48000001 cycles: 18184806 heartbeat IPC: 2.64059 cumulative IPC: 2.63957 (Simulation time: 0 hr 27 min 4 sec) 
Heartbeat CPU 0 instructions: 50000002 cycles: 18942278 heartbeat IPC: 2.64036 cumulative IPC: 2.6396 (Simulation time: 0 hr 28 min 10 sec) 

Warmup complete CPU 0 instructions: 50000002 cycles: 18942278 (Simulation time: 0 hr 28 min 10 sec) 

Heartbeat CPU 0 instructions: 52000001 cycles: 20658099 heartbeat IPC: 1.16562 cumulative IPC: 1.16562 (Simulation time: 0 hr 29 min 58 sec) 

Region of Interest Statistics
cpu0_DTLB TOTAL     ACCESS:     511242  HIT:     510827  MISS:        415
cpu0_DTLB LOAD      ACCESS:     463446  HIT:     463131  MISS:        315
cpu0_DTLB RFO       ACCESS:      47796  HIT:      47696  MISS:        100
cpu0_DTLB PREFETCH  ACCESS:          0  HIT:          0  MISS:          0
cpu0_DTLB WRITEBACK ACCESS:          0  HIT:          0  MISS:          0
cpu0_ITLB TOTAL     ACCESS:      20502  HIT:      20502  MISS:          0
cpu0_ITLB LOAD      ACCESS:      20502  HIT:      20502  MISS:          0
cpu0_ITLB RFO       ACCESS:          0  HIT:          0  MISS:          0
cpu0_ITLB PREFETCH  ACCESS:          0  HIT:          0  MISS:          0
cpu0_ITLB WRITEBACK ACCESS:          0  HIT:          0  MISS:          0
cpu0_L1I TOTAL     ACCESS:       7160  HIT:       7160  MISS:          0
cpu0_L1I LOAD      ACCESS:       7160  HIT:       7160  MISS:          0
cpu0_L1I RFO       ACCESS:          0  HIT:          0  MISS:          0
cpu0_L1I PREFETCH  ACCESS:          0  HIT:          0  MISS:          0
cpu0_L1I WRITEBACK ACCESS:          0  HIT:          0  MISS:          0
cpu0_STLB TOTAL     ACCESS:        415  HIT:        303  MISS:        112
cpu0_STLB LOAD      ACCESS:        315  HIT:        232  MISS:         83
cpu0_STLB RFO       ACCESS:        100  HIT:         71  MISS:         29
cpu0_STLB PREFETCH  ACCESS:          0  HIT:          0  MISS:          0
cpu0_STLB WRITEBACK ACCESS:          0  HIT:          0  MISS:          0
cpu0_L1D TOTAL     ACCESS:     546932  HIT:     529609  MISS:      17323
cpu0_L1D LOAD      ACCESS:     477632  HIT:     463882  MISS:      13750
cpu0_L1D RFO       ACCESS:      69191  HIT:      65659  MISS:       3532
cpu0_L1D PREFETCH  ACCESS:          0  HIT:          0  MISS:          0
cpu0_L1D WRITEBACK ACCESS:          0  HIT:          0  MISS:          0
cpu0_L2C TOTAL     ACCESS:      22039  HIT:       5825  MISS:      16214
cpu0_L2C LOAD      ACCESS:      13750  HIT:       1469  MISS:      12281
cpu0_L2C RFO       ACCESS:       3532  HIT:       1249  MISS:       2283
cpu0_L2C PREFETCH  ACCESS:          0  HIT:          0  MISS:          0
cpu0_L2C WRITEBACK ACCESS:       4716  HIT:       3098  MISS:       1618
LLC TOTAL     ACCESS:      18420  HIT:       7186  MISS:      11234
LLC LOAD      ACCESS:      12281  HIT:       2862  MISS:       9419
LLC RFO       ACCESS:       2283  HIT:        473  MISS:       1810
LLC PREFETCH  ACCESS:          0  HIT:          0  MISS:          0
LLC WRITEBACK ACCESS:       3824  HIT:       3819  MISS:          5
Heartbeat CPU 0 instructions: 54000001 cycles: 22359910 heartbeat IPC: 1.17522 cumulative IPC: 1.1704 (Simulation time: 0 hr 31 min 53 sec) 

Region of Interest Statistics
cpu0_DTLB TOTAL     ACCESS:    1022175  HIT:    1021276  MISS:        899
cpu0_DTLB LOAD      ACCESS:     926928  HIT:     926237  MISS:        691
cpu0_DTLB RFO       ACCESS:      95247  HIT:      95039  MISS:        208
cpu0_DTLB PREFETCH  ACCESS:          0  HIT:          0  MISS:          0
cpu0_DTLB WRITEBACK ACCESS:          0  HIT:          0  MISS:          0
cpu0_ITLB TOTAL     ACCESS:      40746  HIT:      40746  MISS:          0
cpu0_ITLB LOAD      ACCESS:      40746  HIT:      40746  MISS:          0
cpu0_ITLB RFO       ACCESS:          0  HIT:          0  MISS:          0
cpu0_ITLB PREFETCH  ACCESS:          0  HIT:          0  MISS:          0
cpu0_ITLB WRITEBACK ACCESS:          0  HIT:          0  MISS:          0
cpu0_L1I TOTAL     ACCESS:      14003  HIT:      14003  MISS:          0
cpu0_L1I LOAD      ACCESS:      14003  HIT:      14003  MISS:          0
cpu0_L1I RFO       ACCESS:          0  HIT:          0  MISS:          0
cpu0_L1I PREFETCH  ACCESS:          0  HIT:          0  MISS:          0
cpu0_L1I WRITEBACK ACCESS:          0  HIT:          0  MISS:          0
cpu0_STLB TOTAL     ACCESS:        899  HIT:        686  MISS:        213
cpu0_STLB LOAD      ACCESS:        691  HIT:        535  MISS:        156
cpu0_STLB RFO       ACCESS:        208  HIT:        151  MISS:         57
cpu0_STLB PREFETCH  ACCESS:          0  HIT:          0  MISS:          0
cpu0_STLB WRITEBACK ACCESS:          0  HIT:          0  MISS:          0
cpu0_L1D TOTAL     ACCESS:    1094303  HIT:    1059766  MISS:      34537
cpu0_L1D LOAD      ACCESS:     955366  HIT:     927893  MISS:      27473
cpu0_L1D RFO       ACCESS:     138731  HIT:     131742  MISS:       6989
cpu0_L1D PREFETCH  ACCESS:          0  HIT:          0  MISS:          0
cpu0_L1D WRITEBACK ACCESS:          0  HIT:          0  MISS:          0
cpu0_L2C TOTAL     ACCESS:      43914  HIT:      11710  MISS:      32204
cpu0_L2C LOAD      ACCESS:      27473  HIT:       3023  MISS:      24450
cpu0_L2C RFO       ACCESS:       6989  HIT:       2488  MISS:       4501
cpu0_L2C PREFETCH  ACCESS:          0  HIT:          0  MISS:          0
cpu0_L2C WRITEBACK ACCESS:       9377  HIT:       6189  MISS:       3188
LLC TOTAL     ACCESS:      36525  HIT:      14073  MISS:      22452
LLC LOAD      ACCESS:      24447  HIT:       5638  MISS:      18809
LLC RFO       ACCESS:       4501  HIT:        881  MISS:       3620
LLC PREFETCH  ACCESS:          0  HIT:          0  MISS:          0
LLC WRITEBACK ACCESS:       7512  HIT:       7489  MISS:         23
Heartbeat CPU 0 instructions: 56000001 cycles: 24055279 heartbeat IPC: 1.17968 cumulative IPC: 1.17348 (Simulation time: 0 hr 33 min 50 sec) 

Region of Interest Statistics
cpu0_DTLB TOTAL     ACCESS:    1533739  HIT:    1532344  MISS:       1395
cpu0_DTLB LOAD      ACCESS:    1390906  HIT:    1389829  MISS:       1077
cpu0_DTLB RFO       ACCESS:     142833  HIT:     142515  MISS:        318
cpu0_DTLB PREFETCH  ACCESS:          0  HIT:          0  MISS:          0
cpu0_DTLB WRITEBACK ACCESS:          0  HIT:          0  MISS:          0
cpu0_ITLB TOTAL     ACCESS:      61302  HIT:      61302  MISS:          0
cpu0_ITLB LOAD      ACCESS:      61302  HIT:      61302  MISS:          0
cpu0_ITLB RFO       ACCESS:          0  HIT:          0  MISS:          0
cpu0_ITLB PREFETCH  ACCESS:          0  HIT:          0  MISS:          0
cpu0_ITLB WRITEBACK ACCESS:          0  HIT:          0  MISS:          0
cpu0_L1I TOTAL     ACCESS:      21135  HIT:      21135  MISS:          0
cpu0_L1I LOAD      ACCESS:      21135  HIT:      21135  MISS:          0
cpu0_L1I RFO       ACCESS:          0  HIT:          0  MISS:          0
cpu0_L1I PREFETCH  ACCESS:          0  HIT:          0  MISS:          0
cpu0_L1I WRITEBACK ACCESS:          0  HIT:          0  MISS:          0
cpu0_STLB TOTAL     ACCESS:       1395  HIT:       1072  MISS:        323
cpu0_STLB LOAD      ACCESS:       1077  HIT:        839  MISS:        238
cpu0_STLB RFO       ACCESS:        318  HIT:        233  MISS:         85
cpu0_STLB PREFETCH  ACCESS:          0  HIT:          0  MISS:          0
cpu0_STLB WRITEBACK ACCESS:          0  HIT:          0  MISS:          0
cpu0_L1D TOTAL     ACCESS:    1640946  HIT:    1589139  MISS:      51807
cpu0_L1D LOAD      ACCESS:    1432770  HIT:    1391664  MISS:      41106
cpu0_L1D RFO       ACCESS:     207862  HIT:     197271  MISS:      10591
cpu0_L1D PREFETCH  ACCESS:          0  HIT:          0  MISS:          0
cpu0_L1D WRITEBACK ACCESS:          0  HIT:          0  MISS:          0
cpu0_L2C TOTAL     ACCESS:      65902  HIT:      17693  MISS:      48209
cpu0_L2C LOAD      ACCESS:      41104  HIT:       4510  MISS:      36594
cpu0_L2C RFO       ACCESS:      10591  HIT:       3807  MISS:       6784
cpu0_L2C PREFETCH  ACCESS:          0  HIT:          0  MISS:          0
cpu0_L2C WRITEBACK ACCESS:      14097  HIT:       9361  MISS:       4736
LLC TOTAL     ACCESS:      54675  HIT:      21081  MISS:      33594
LLC LOAD      ACCESS:      36591  HIT:       8463  MISS:      28128
LLC RFO       ACCESS:       6784  HIT:       1354  MISS:       5430
LLC PREFETCH  ACCESS:          0  HIT:          0  MISS:          0
LLC WRITEBACK ACCESS:      11205  HIT:      11169  MISS:         36
Heartbeat CPU 0 instructions: 58000000 cycles: 25752760 heartbeat IPC: 1.17822 cumulative IPC: 1.17466 (Simulation time: 0 hr 35 min 59 sec) 

Region of Interest Statistics
cpu0_DTLB TOTAL     ACCESS:    2044852  HIT:    2043065  MISS:       1787
cpu0_DTLB LOAD      ACCESS:    1854455  HIT:    1853084  MISS:       1371
cpu0_DTLB RFO       ACCESS:     190397  HIT:     189981  MISS:        416
cpu0_DTLB PREFETCH  ACCESS:          0  HIT:          0  MISS:          0
cpu0_DTLB WRITEBACK ACCESS:          0  HIT:          0  MISS:          0
cpu0_ITLB TOTAL     ACCESS:      81876  HIT:      81876  MISS:          0
cpu0_ITLB LOAD      ACCESS:      81876  HIT:      81876  MISS:          0
cpu0_ITLB RFO       ACCESS:          0  HIT:          0  MISS:          0
cpu0_ITLB PREFETCH  ACCESS:          0  HIT:          0  MISS:          0
cpu0_ITLB WRITEBACK ACCESS:          0  HIT:          0  MISS:          0
cpu0_L1I TOTAL     ACCESS:      28273  HIT:      28273  MISS:          0
cpu0_L1I LOAD      ACCESS:      28273  HIT:      28273  MISS:          0
cpu0_L1I RFO       ACCESS:          0  HIT:          0  MISS:          0
cpu0_L1I PREFETCH  ACCESS:          0  HIT:          0  MISS:          0
cpu0_L1I WRITEBACK ACCESS:          0  HIT:          0  MISS:          0
cpu0_STLB TOTAL     ACCESS:       1787  HIT:       1355  MISS:        432
cpu0_STLB LOAD      ACCESS:       1371  HIT:       1053  MISS:        318
cpu0_STLB RFO       ACCESS:        416  HIT:        302  MISS:        114
cpu0_STLB PREFETCH  ACCESS:          0  HIT:          0  MISS:          0
cpu0_STLB WRITEBACK ACCESS:          0  HIT:          0  MISS:          0
cpu0_L1D TOTAL     ACCESS:    2187313  HIT:    2118243  MISS:      69070
cpu0_L1D LOAD      ACCESS:    1909783  HIT:    1854946  MISS:      54837
cpu0_L1D RFO       ACCESS:     277110  HIT:     263027  MISS:      14083
cpu0_L1D PREFETCH  ACCESS:          0  HIT:          0  MISS:          0
cpu0_L1D WRITEBACK ACCESS:          0  HIT:          0  MISS:          0
cpu0_L2C TOTAL     ACCESS:      87860  HIT:      23556  MISS:      64304
cpu0_L2C LOAD      ACCESS:      54834  HIT:       6062  MISS:      48772
cpu0_L2C RFO       ACCESS:      14083  HIT:       5015  MISS:       9068
cpu0_L2C PREFETCH  ACCESS:          0  HIT:          0  MISS:          0
cpu0_L2C WRITEBACK ACCESS:      18793  HIT:      12459  MISS:       6334
LLC TOTAL     ACCESS:      72911  HIT:      28138  MISS:      44773
LLC LOAD      ACCESS:      48767  HIT:      11295  MISS:      37472
LLC RFO       ACCESS:       9067  HIT:       1822  MISS:       7245
LLC PREFETCH  ACCESS:          0  HIT:          0  MISS:          0
LLC WRITEBACK ACCESS:      14947  HIT:      14891  MISS:         56
Heartbeat CPU 0 instructions: 60000002 cycles: 27469825 heartbeat IPC: 1.16478 cumulative IPC: 1.17267 (Simulation time: 0 hr 38 min 7 sec) 

Region of Interest Statistics
cpu0_DTLB TOTAL     ACCESS:    2556749  HIT:    2554406  MISS:       2343
cpu0_DTLB LOAD      ACCESS:    2318764  HIT:    2316952  MISS:       1812
cpu0_DTLB RFO       ACCESS:     237985  HIT:     237454  MISS:        531
cpu0_DTLB PREFETCH  ACCESS:          0  HIT:          0  MISS:          0
cpu0_DTLB WRITEBACK ACCESS:          0  HIT:          0  MISS:          0
cpu0_ITLB TOTAL     ACCESS:     102541  HIT:     102541  MISS:          0
cpu0_ITLB LOAD      ACCESS:     102541  HIT:     102541  MISS:          0
cpu0_ITLB RFO       ACCESS:          0  HIT:          0  MISS:          0
cpu0_ITLB PREFETCH  ACCESS:          0  HIT:          0  MISS:          0
cpu0_ITLB WRITEBACK ACCESS:          0  HIT:          0  MISS:          0
cpu0_L1I TOTAL     ACCESS:      35420  HIT:      35420  MISS:          0
cpu0_L1I LOAD      ACCESS:      35420  HIT:      35420  MISS:          0
cpu0_L1I RFO       ACCESS:          0  HIT:          0  MISS:          0
cpu0_L1I PREFETCH  ACCESS:          0  HIT:          0  MISS:          0
cpu0_L1I WRITEBACK ACCESS:          0  HIT:          0  MISS:          0
cpu0_STLB TOTAL     ACCESS:       2343  HIT:       1781  MISS:        562
cpu0_STLB LOAD      ACCESS:       1812  HIT:       1396  MISS:        416
cpu0_STLB RFO       ACCESS:        531  HIT:        385  MISS:        146
cpu0_STLB PREFETCH  ACCESS:          0  HIT:          0  MISS:          0
cpu0_STLB WRITEBACK ACCESS:          0  HIT:          0  MISS:          0
cpu0_L1D TOTAL     ACCESS:    2734017  HIT:    2647568  MISS:      86449
cpu0_L1D LOAD      ACCESS:    2386959  HIT:    2318319  MISS:      68640
cpu0_L1D RFO       ACCESS:     346512  HIT:     328888  MISS:      17624
cpu0_L1D PREFETCH  ACCESS:          0  HIT:          0  MISS:          0
cpu0_L1D WRITEBACK ACCESS:          0  HIT:          0  MISS:          0
cpu0_L2C TOTAL     ACCESS:     109915  HIT:      29434  MISS:      80481
cpu0_L2C LOAD      ACCESS:      68637  HIT:       7650  MISS:      60987
cpu0_L2C RFO       ACCESS:      17624  HIT:       6281  MISS:      11343
cpu0_L2C PREFETCH  ACCESS:          0  HIT:          0  MISS:          0
cpu0_L2C WRITEBACK ACCESS:      23469  HIT:      15481  MISS:       7988
LLC TOTAL     ACCESS:      91196  HIT:      34987  MISS:      56209
LLC LOAD      ACCESS:      60982  HIT:      13920  MISS:      47062
LLC RFO       ACCESS:      11342  HIT:       2287  MISS:       9055
LLC PREFETCH  ACCESS:          0  HIT:          0  MISS:          0
LLC WRITEBACK ACCESS:      18709  HIT:      18617  MISS:         92
Heartbeat CPU 0 instructions: 62000001 cycles: 29173517 heartbeat IPC: 1.17392 cumulative IPC: 1.17288 (Simulation time: 0 hr 40 min 16 sec) 

Region of Interest Statistics
cpu0_DTLB TOTAL     ACCESS:    3068751  HIT:    3065978  MISS:       2773
cpu0_DTLB LOAD      ACCESS:    2782861  HIT:    2780725  MISS:       2136
cpu0_DTLB RFO       ACCESS:     285890  HIT:     285253  MISS:        637
cpu0_DTLB PREFETCH  ACCESS:          0  HIT:          0  MISS:          0
cpu0_DTLB WRITEBACK ACCESS:          0  HIT:          0  MISS:          0
cpu0_ITLB TOTAL     ACCESS:     123422  HIT:     123422  MISS:          0
cpu0_ITLB LOAD      ACCESS:     123422  HIT:     123422  MISS:          0
cpu0_ITLB RFO       ACCESS:          0  HIT:          0  MISS:          0
cpu0_ITLB PREFETCH  ACCESS:          0  HIT:          0  MISS:          0
cpu0_ITLB WRITEBACK ACCESS:          0  HIT:          0  MISS:          0
cpu0_L1I TOTAL     ACCESS:      42549  HIT:      42549  MISS:          0
cpu0_L1I LOAD      ACCESS:      42549  HIT:      42549  MISS:          0
cpu0_L1I RFO       ACCESS:          0  HIT:          0  MISS:          0
cpu0_L1I PREFETCH  ACCESS:          0  HIT:          0  MISS:          0
cpu0_L1I WRITEBACK ACCESS:          0  HIT:          0  MISS:          0
cpu0_STLB TOTAL     ACCESS:       2773  HIT:       2109  MISS:        664
cpu0_STLB LOAD      ACCESS:       2136  HIT:       1646  MISS:        490
cpu0_STLB RFO       ACCESS:        637  HIT:        463  MISS:        174
cpu0_STLB PREFETCH  ACCESS:          0  HIT:          0  MISS:          0
cpu0_STLB WRITEBACK ACCESS:          0  HIT:          0  MISS:          0
cpu0_L1D TOTAL     ACCESS:    3281156  HIT:    3177365  MISS:     103791
cpu0_L1D LOAD      ACCESS:    2864785  HIT:    2782417  MISS:      82368
cpu0_L1D RFO       ACCESS:     415725  HIT:     394527  MISS:      21198
cpu0_L1D PREFETCH  ACCESS:          0  HIT:          0  MISS:          0
cpu0_L1D WRITEBACK ACCESS:          0  HIT:          0  MISS:          0
cpu0_L2C TOTAL     ACCESS:     132005  HIT:      35436  MISS:      96569
cpu0_L2C LOAD      ACCESS:      82365  HIT:       9144  MISS:      73221
cpu0_L2C RFO       ACCESS:      21198  HIT:       7588  MISS:      13610
cpu0_L2C PREFETCH  ACCESS:          0  HIT:          0  MISS:          0
cpu0_L2C WRITEBACK ACCESS:      28217  HIT:      18675  MISS:       9542
LLC TOTAL     ACCESS:     109409  HIT:      42004  MISS:      67405
LLC LOAD      ACCESS:      73216  HIT:      16779  MISS:      56437
LLC RFO       ACCESS:      13609  HIT:       2739  MISS:      10870
LLC PREFETCH  ACCESS:          0  HIT:          0  MISS:          0
LLC WRITEBACK ACCESS:      22388  HIT:      22290  MISS:         98
Heartbeat CPU 0 instructions: 64000004 cycles: 30863561 heartbeat IPC: 1.1834 cumulative IPC: 1.17437 (Simulation time: 0 hr 42 min 25 sec) 

Region of Interest Statistics
cpu0_DTLB TOTAL     ACCESS:    3581251  HIT:    3578045  MISS:       3206
cpu0_DTLB LOAD      ACCESS:    3247595  HIT:    3245128  MISS:       2467
cpu0_DTLB RFO       ACCESS:     333656  HIT:     332917  MISS:        739
cpu0_DTLB PREFETCH  ACCESS:          0  HIT:          0  MISS:          0
cpu0_DTLB WRITEBACK ACCESS:          0  HIT:          0  MISS:          0
cpu0_ITLB TOTAL     ACCESS:     144396  HIT:     144396  MISS:          0
cpu0_ITLB LOAD      ACCESS:     144396  HIT:     144396  MISS:          0
cpu0_ITLB RFO       ACCESS:          0  HIT:          0  MISS:          0
cpu0_ITLB PREFETCH  ACCESS:          0  HIT:          0  MISS:          0
cpu0_ITLB WRITEBACK ACCESS:          0  HIT:          0  MISS:          0
cpu0_L1I TOTAL     ACCESS:      49674  HIT:      49674  MISS:          0
cpu0_L1I LOAD      ACCESS:      49674  HIT:      49674  MISS:          0
cpu0_L1I RFO       ACCESS:          0  HIT:          0  MISS:          0
cpu0_L1I PREFETCH  ACCESS:          0  HIT:          0  MISS:          0
cpu0_L1I WRITEBACK ACCESS:          0  HIT:          0  MISS:          0
cpu0_STLB TOTAL     ACCESS:       3206  HIT:       2432  MISS:        774
cpu0_STLB LOAD      ACCESS:       2467  HIT:       1895  MISS:        572
cpu0_STLB RFO       ACCESS:        739  HIT:        537  MISS:        202
cpu0_STLB PREFETCH  ACCESS:          0  HIT:          0  MISS:          0
cpu0_STLB WRITEBACK ACCESS:          0  HIT:          0  MISS:          0
cpu0_L1D TOTAL     ACCESS:    3828843  HIT:    3707727  MISS:     121116
cpu0_L1D LOAD      ACCESS:    3342940  HIT:    3246781  MISS:      96159
cpu0_L1D RFO       ACCESS:     485151  HIT:     460454  MISS:      24697
cpu0_L1D PREFETCH  ACCESS:          0  HIT:          0  MISS:          0
cpu0_L1D WRITEBACK ACCESS:          0  HIT:          0  MISS:          0
cpu0_L2C TOTAL     ACCESS:     153988  HIT:      41402  MISS:     112586
cpu0_L2C LOAD      ACCESS:      96156  HIT:      10719  MISS:      85437
cpu0_L2C RFO       ACCESS:      24697  HIT:       8830  MISS:      15867
cpu0_L2C PREFETCH  ACCESS:          0  HIT:          0  MISS:          0
cpu0_L2C WRITEBACK ACCESS:      32875  HIT:      21818  MISS:      11057
LLC TOTAL     ACCESS:     127571  HIT:      49056  MISS:      78515
LLC LOAD      ACCESS:      85430  HIT:      19695  MISS:      65735
LLC RFO       ACCESS:      15866  HIT:       3186  MISS:      12680
LLC PREFETCH  ACCESS:          0  HIT:          0  MISS:          0
LLC WRITEBACK ACCESS:      26050  HIT:      25950  MISS:        100
Heartbeat CPU 0 instructions: 66000002 cycles: 32567693 heartbeat IPC: 1.17362 cumulative IPC: 1.17428 (Simulation time: 0 hr 44 min 25 sec) 

Region of Interest Statistics
cpu0_DTLB TOTAL     ACCESS:    4093078  HIT:    4089361  MISS:       3717
cpu0_DTLB LOAD      ACCESS:    3711772  HIT:    3708902  MISS:       2870
cpu0_DTLB RFO       ACCESS:     381306  HIT:     380459  MISS:        847
cpu0_DTLB PREFETCH  ACCESS:          0  HIT:          0  MISS:          0
cpu0_DTLB WRITEBACK ACCESS:          0  HIT:          0  MISS:          0
cpu0_ITLB TOTAL     ACCESS:     165030  HIT:     165030  MISS:          0
cpu0_ITLB LOAD      ACCESS:     165030  HIT:     165030  MISS:          0
cpu0_ITLB RFO       ACCESS:          0  HIT:          0  MISS:          0
cpu0_ITLB PREFETCH  ACCESS:          0  HIT:          0  MISS:          0
cpu0_ITLB WRITEBACK ACCESS:          0  HIT:          0  MISS:          0
cpu0_L1I TOTAL     ACCESS:      56805  HIT:      56805  MISS:          0
cpu0_L1I LOAD      ACCESS:      56805  HIT:      56805  MISS:          0
cpu0_L1I RFO       ACCESS:          0  HIT:          0  MISS:          0
cpu0_L1I PREFETCH  ACCESS:          0  HIT:          0  MISS:          0
cpu0_L1I WRITEBACK ACCESS:          0  HIT:          0  MISS:          0
cpu0_STLB TOTAL     ACCESS:       3717  HIT:       2839  MISS:        878
cpu0_STLB LOAD      ACCESS:       2870  HIT:       2223  MISS:        647
cpu0_STLB RFO       ACCESS:        847  HIT:        616  MISS:        231
cpu0_STLB PREFETCH  ACCESS:          0  HIT:          0  MISS:          0
cpu0_STLB WRITEBACK ACCESS:          0  HIT:          0  MISS:          0
cpu0_L1D TOTAL     ACCESS:    4375818  HIT:    4237357  MISS:     138461
cpu0_L1D LOAD      ACCESS:    3820513  HIT:    3710642  MISS:     109871
cpu0_L1D RFO       ACCESS:     554453  HIT:     526159  MISS:      28294
cpu0_L1D PREFETCH  ACCESS:          0  HIT:          0  MISS:          0
cpu0_L1D WRITEBACK ACCESS:          0  HIT:          0  MISS:          0
cpu0_L2C TOTAL     ACCESS:     176069  HIT:      47249  MISS:     128820
cpu0_L2C LOAD      ACCESS:     109868  HIT:      12120  MISS:      97748
cpu0_L2C RFO       ACCESS:      28294  HIT:      10125  MISS:      18169
cpu0_L2C PREFETCH  ACCESS:          0  HIT:          0  MISS:          0
cpu0_L2C WRITEBACK ACCESS:      37611  HIT:      24966  MISS:      12645
LLC TOTAL     ACCESS:     145909  HIT:      56168  MISS:      89741
LLC LOAD      ACCESS:      97741  HIT:      22609  MISS:      75132
LLC RFO       ACCESS:      18168  HIT:       3678  MISS:      14490
LLC PREFETCH  ACCESS:          0  HIT:          0  MISS:          0
LLC WRITEBACK ACCESS:      29742  HIT:      29623  MISS:        119
Heartbeat CPU 0 instructions: 68000002 cycles: 34275427 heartbeat IPC: 1.17114 cumulative IPC: 1.17393 (Simulation time: 0 hr 46 min 23 sec) 

Region of Interest Statistics
cpu0_DTLB TOTAL     ACCESS:    4604904  HIT:    4600748  MISS:       4156
cpu0_DTLB LOAD      ACCESS:    4175813  HIT:    4172608  MISS:       3205
cpu0_DTLB RFO       ACCESS:     429091  HIT:     428140  MISS:        951
cpu0_DTLB PREFETCH  ACCESS:          0  HIT:          0  MISS:          0
cpu0_DTLB WRITEBACK ACCESS:          0  HIT:          0  MISS:          0
cpu0_ITLB TOTAL     ACCESS:     185606  HIT:     185606  MISS:          0
cpu0_ITLB LOAD      ACCESS:     185606  HIT:     185606  MISS:          0
cpu0_ITLB RFO       ACCESS:          0  HIT:          0  MISS:          0
cpu0_ITLB PREFETCH  ACCESS:          0  HIT:          0  MISS:          0
cpu0_ITLB WRITEBACK ACCESS:          0  HIT:          0  MISS:          0
cpu0_L1I TOTAL     ACCESS:      63980  HIT:      63980  MISS:          0
cpu0_L1I LOAD      ACCESS:      63980  HIT:      63980  MISS:          0
cpu0_L1I RFO       ACCESS:          0  HIT:          0  MISS:          0
cpu0_L1I PREFETCH  ACCESS:          0  HIT:          0  MISS:          0
cpu0_L1I WRITEBACK ACCESS:          0  HIT:          0  MISS:          0
cpu0_STLB TOTAL     ACCESS:       4156  HIT:       3169  MISS:        987
cpu0_STLB LOAD      ACCESS:       3205  HIT:       2477  MISS:        728
cpu0_STLB RFO       ACCESS:        951  HIT:        692  MISS:        259
cpu0_STLB PREFETCH  ACCESS:          0  HIT:          0  MISS:          0
cpu0_STLB WRITEBACK ACCESS:          0  HIT:          0  MISS:          0
cpu0_L1D TOTAL     ACCESS:    4923922  HIT:    4768082  MISS:     155840
cpu0_L1D LOAD      ACCESS:    4299333  HIT:    4175686  MISS:     123647
cpu0_L1D RFO       ACCESS:     623630  HIT:     591773  MISS:      31857
cpu0_L1D PREFETCH  ACCESS:          0  HIT:          0  MISS:          0
cpu0_L1D WRITEBACK ACCESS:          0  HIT:          0  MISS:          0
cpu0_L2C TOTAL     ACCESS:     198184  HIT:      53270  MISS:     144914
cpu0_L2C LOAD      ACCESS:     123644  HIT:      13569  MISS:     110075
cpu0_L2C RFO       ACCESS:      31857  HIT:      11447  MISS:      20410
cpu0_L2C PREFETCH  ACCESS:          0  HIT:          0  MISS:          0
cpu0_L2C WRITEBACK ACCESS:      42347  HIT:      28206  MISS:      14141
LLC TOTAL     ACCESS:     164141  HIT:      63298  MISS:     100843
LLC LOAD      ACCESS:     110068  HIT:      25650  MISS:      84418
LLC RFO       ACCESS:      20409  HIT:       4109  MISS:      16300
LLC PREFETCH  ACCESS:          0  HIT:          0  MISS:          0
LLC WRITEBACK ACCESS:      33376  HIT:      33251  MISS:        125
Heartbeat CPU 0 instructions: 70000003 cycles: 35982494 heartbeat IPC: 1.1716 cumulative IPC: 1.17369 (Simulation time: 0 hr 48 min 27 sec) 

Region of Interest Statistics
cpu0_DTLB TOTAL     ACCESS:    5116860  HIT:    5112208  MISS:       4652
cpu0_DTLB LOAD      ACCESS:    4640003  HIT:    4636409  MISS:       3594
cpu0_DTLB RFO       ACCESS:     476857  HIT:     475799  MISS:       1058
cpu0_DTLB PREFETCH  ACCESS:          0  HIT:          0  MISS:          0
cpu0_DTLB WRITEBACK ACCESS:          0  HIT:          0  MISS:          0
cpu0_ITLB TOTAL     ACCESS:     206235  HIT:     206235  MISS:          0
cpu0_ITLB LOAD      ACCESS:     206235  HIT:     206235  MISS:          0
cpu0_ITLB RFO       ACCESS:          0  HIT:          0  MISS:          0
cpu0_ITLB PREFETCH  ACCESS:          0  HIT:          0  MISS:          0
cpu0_ITLB WRITEBACK ACCESS:          0  HIT:          0  MISS:          0
cpu0_L1I TOTAL     ACCESS:      71143  HIT:      71143  MISS:          0
cpu0_L1I LOAD      ACCESS:      71143  HIT:      71143  MISS:          0
cpu0_L1I RFO       ACCESS:          0  HIT:          0  MISS:          0
cpu0_L1I PREFETCH  ACCESS:          0  HIT:          0  MISS:          0
cpu0_L1I WRITEBACK ACCESS:          0  HIT:          0  MISS:          0
cpu0_STLB TOTAL     ACCESS:       4652  HIT:       3536  MISS:       1116
cpu0_STLB LOAD      ACCESS:       3594  HIT:       2770  MISS:        824
cpu0_STLB RFO       ACCESS:       1058  HIT:        766  MISS:        292
cpu0_STLB PREFETCH  ACCESS:          0  HIT:          0  MISS:          0
cpu0_STLB WRITEBACK ACCESS:          0  HIT:          0  MISS:          0
cpu0_L1D TOTAL     ACCESS:    5471217  HIT:    5297973  MISS:     173244
cpu0_L1D LOAD      ACCESS:    4777172  HIT:    4639668  MISS:     137504
cpu0_L1D RFO       ACCESS:     692963  HIT:     657596  MISS:      35367
cpu0_L1D PREFETCH  ACCESS:          0  HIT:          0  MISS:          0
cpu0_L1D WRITEBACK ACCESS:          0  HIT:          0  MISS:          0
cpu0_L2C TOTAL     ACCESS:     220242  HIT:      59221  MISS:     161021
cpu0_L2C LOAD      ACCESS:     137501  HIT:      15167  MISS:     122334
cpu0_L2C RFO       ACCESS:      35367  HIT:      12692  MISS:      22675
cpu0_L2C PREFETCH  ACCESS:          0  HIT:          0  MISS:          0
cpu0_L2C WRITEBACK ACCESS:      47001  HIT:      31309  MISS:      15692
LLC TOTAL     ACCESS:     182395  HIT:      70206  MISS:     112189
LLC LOAD      ACCESS:     122324  HIT:      28391  MISS:      93933
LLC RFO       ACCESS:      22674  HIT:       4559  MISS:      18115
LLC PREFETCH  ACCESS:          0  HIT:          0  MISS:          0
LLC WRITEBACK ACCESS:      37077  HIT:      36936  MISS:        141
Heartbeat CPU 0 instructions: 72000001 cycles: 37686447 heartbeat IPC: 1.17374 cumulative IPC: 1.1737 (Simulation time: 0 hr 50 min 36 sec) 

Region of Interest Statistics
cpu0_DTLB TOTAL     ACCESS:    5629061  HIT:    5623914  MISS:       5147
cpu0_DTLB LOAD      ACCESS:    5104373  HIT:    5100396  MISS:       3977
cpu0_DTLB RFO       ACCESS:     524688  HIT:     523518  MISS:       1170
cpu0_DTLB PREFETCH  ACCESS:          0  HIT:          0  MISS:          0
cpu0_DTLB WRITEBACK ACCESS:          0  HIT:          0  MISS:          0
cpu0_ITLB TOTAL     ACCESS:     226624  HIT:     226624  MISS:          0
cpu0_ITLB LOAD      ACCESS:     226624  HIT:     226624  MISS:          0
cpu0_ITLB RFO       ACCESS:          0  HIT:          0  MISS:          0
cpu0_ITLB PREFETCH  ACCESS:          0  HIT:          0  MISS:          0
cpu0_ITLB WRITEBACK ACCESS:          0  HIT:          0  MISS:          0
cpu0_L1I TOTAL     ACCESS:      78304  HIT:      78304  MISS:          0
cpu0_L1I LOAD      ACCESS:      78304  HIT:      78304  MISS:          0
cpu0_L1I RFO       ACCESS:          0  HIT:          0  MISS:          0
cpu0_L1I PREFETCH  ACCESS:          0  HIT:          0  MISS:          0
cpu0_L1I WRITEBACK ACCESS:          0  HIT:          0  MISS:          0
cpu0_STLB TOTAL     ACCESS:       5147  HIT:       3923  MISS:       1224
cpu0_STLB LOAD      ACCESS:       3977  HIT:       3073  MISS:        904
cpu0_STLB RFO       ACCESS:       1170  HIT:        850  MISS:        320
cpu0_STLB PREFETCH  ACCESS:          0  HIT:          0  MISS:          0
cpu0_STLB WRITEBACK ACCESS:          0  HIT:          0  MISS:          0
cpu0_L1D TOTAL     ACCESS:    6019154  HIT:    5828516  MISS:     190638
cpu0_L1D LOAD      ACCESS:    5256105  HIT:    5104856  MISS:     151249
cpu0_L1D RFO       ACCESS:     761862  HIT:     722882  MISS:      38980
cpu0_L1D PREFETCH  ACCESS:          0  HIT:          0  MISS:          0
cpu0_L1D WRITEBACK ACCESS:          0  HIT:          0  MISS:          0
cpu0_L2C TOTAL     ACCESS:     242392  HIT:      65407  MISS:     176985
cpu0_L2C LOAD      ACCESS:     151246  HIT:      16894  MISS:     134352
cpu0_L2C RFO       ACCESS:      38980  HIT:      14018  MISS:      24962
cpu0_L2C PREFETCH  ACCESS:          0  HIT:          0  MISS:          0
cpu0_L2C WRITEBACK ACCESS:      51757  HIT:      34437  MISS:      17320
LLC TOTAL     ACCESS:     200461  HIT:      77098  MISS:     123363
LLC LOAD      ACCESS:     134342  HIT:      31054  MISS:     103288
LLC RFO       ACCESS:      24961  HIT:       5040  MISS:      19921
LLC PREFETCH  ACCESS:          0  HIT:          0  MISS:          0
LLC WRITEBACK ACCESS:      40807  HIT:      40653  MISS:        154
Heartbeat CPU 0 instructions: 74000002 cycles: 39392089 heartbeat IPC: 1.17258 cumulative IPC: 1.1736 (Simulation time: 0 hr 52 min 39 sec) 

Region of Interest Statistics
cpu0_DTLB TOTAL     ACCESS:    6140680  HIT:    6135131  MISS:       5549
cpu0_DTLB LOAD      ACCESS:    5568195  HIT:    5563913  MISS:       4282
cpu0_DTLB RFO       ACCESS:     572485  HIT:     571218  MISS:       1267
cpu0_DTLB PREFETCH  ACCESS:          0  HIT:          0  MISS:          0
cpu0_DTLB WRITEBACK ACCESS:          0  HIT:          0  MISS:          0
cpu0_ITLB TOTAL     ACCESS:     247190  HIT:     247190  MISS:          0
cpu0_ITLB LOAD      ACCESS:     247190  HIT:     247190  MISS:          0
cpu0_ITLB RFO       ACCESS:          0  HIT:          0  MISS:          0
cpu0_ITLB PREFETCH  ACCESS:          0  HIT:          0  MISS:          0
cpu0_ITLB WRITEBACK ACCESS:          0  HIT:          0  MISS:          0
cpu0_L1I TOTAL     ACCESS:      85464  HIT:      85464  MISS:          0
cpu0_L1I LOAD      ACCESS:      85464  HIT:      85464  MISS:          0
cpu0_L1I RFO       ACCESS:          0  HIT:          0  MISS:          0
cpu0_L1I PREFETCH  ACCESS:          0  HIT:          0  MISS:          0
cpu0_L1I WRITEBACK ACCESS:          0  HIT:          0  MISS:          0
cpu0_STLB TOTAL     ACCESS:       5549  HIT:       4213  MISS:       1336
cpu0_STLB LOAD      ACCESS:       4282  HIT:       3295  MISS:        987
cpu0_STLB RFO       ACCESS:       1267  HIT:        918  MISS:        349
cpu0_STLB PREFETCH  ACCESS:          0  HIT:          0  MISS:          0
cpu0_STLB WRITEBACK ACCESS:          0  HIT:          0  MISS:          0
cpu0_L1D TOTAL     ACCESS:    6567163  HIT:    6359251  MISS:     207912
cpu0_L1D LOAD      ACCESS:    5734485  HIT:    5569457  MISS:     165028
cpu0_L1D RFO       ACCESS:     831382  HIT:     788945  MISS:      42437
cpu0_L1D PREFETCH  ACCESS:          0  HIT:          0  MISS:          0
cpu0_L1D WRITEBACK ACCESS:          0  HIT:          0  MISS:          0
cpu0_L2C TOTAL     ACCESS:     264355  HIT:      71202  MISS:     193153
cpu0_L2C LOAD      ACCESS:     165025  HIT:      18383  MISS:     146642
cpu0_L2C RFO       ACCESS:      42437  HIT:      15287  MISS:      27150
cpu0_L2C PREFETCH  ACCESS:          0  HIT:          0  MISS:          0
cpu0_L2C WRITEBACK ACCESS:      56446  HIT:      37467  MISS:      18979
LLC TOTAL     ACCESS:     218716  HIT:      84136  MISS:     134580
LLC LOAD      ACCESS:     146629  HIT:      33916  MISS:     112713
LLC RFO       ACCESS:      27149  HIT:       5447  MISS:      21702
LLC PREFETCH  ACCESS:          0  HIT:          0  MISS:          0
LLC WRITEBACK ACCESS:      44556  HIT:      44391  MISS:        165
Heartbeat CPU 0 instructions: 76000002 cycles: 41095719 heartbeat IPC: 1.17396 cumulative IPC: 1.17363 (Simulation time: 0 hr 54 min 41 sec) 

Region of Interest Statistics
cpu0_DTLB TOTAL     ACCESS:    6651994  HIT:    6645924  MISS:       6070
cpu0_DTLB LOAD      ACCESS:    6031860  HIT:    6027169  MISS:       4691
cpu0_DTLB RFO       ACCESS:     620134  HIT:     618755  MISS:       1379
cpu0_DTLB PREFETCH  ACCESS:          0  HIT:          0  MISS:          0
cpu0_DTLB WRITEBACK ACCESS:          0  HIT:          0  MISS:          0
cpu0_ITLB TOTAL     ACCESS:     267632  HIT:     267632  MISS:          0
cpu0_ITLB LOAD      ACCESS:     267632  HIT:     267632  MISS:          0
cpu0_ITLB RFO       ACCESS:          0  HIT:          0  MISS:          0
cpu0_ITLB PREFETCH  ACCESS:          0  HIT:          0  MISS:          0
cpu0_ITLB WRITEBACK ACCESS:          0  HIT:          0  MISS:          0
cpu0_L1I TOTAL     ACCESS:      92609  HIT:      92609  MISS:          0
cpu0_L1I LOAD      ACCESS:      92609  HIT:      92609  MISS:          0
cpu0_L1I RFO       ACCESS:          0  HIT:          0  MISS:          0
cpu0_L1I PREFETCH  ACCESS:          0  HIT:          0  MISS:          0
cpu0_L1I WRITEBACK ACCESS:          0  HIT:          0  MISS:          0
cpu0_STLB TOTAL     ACCESS:       6070  HIT:       4635  MISS:       1435
cpu0_STLB LOAD      ACCESS:       4691  HIT:       3631  MISS:       1060
cpu0_STLB RFO       ACCESS:       1379  HIT:       1004  MISS:        375
cpu0_STLB PREFETCH  ACCESS:          0  HIT:          0  MISS:          0
cpu0_STLB WRITEBACK ACCESS:          0  HIT:          0  MISS:          0
cpu0_L1D TOTAL     ACCESS:    7114678  HIT:    6889485  MISS:     225193
cpu0_L1D LOAD      ACCESS:    6212292  HIT:    6033524  MISS:     178768
cpu0_L1D RFO       ACCESS:     900994  HIT:     855049  MISS:      45945
cpu0_L1D PREFETCH  ACCESS:          0  HIT:          0  MISS:          0
cpu0_L1D WRITEBACK ACCESS:          0  HIT:          0  MISS:          0
cpu0_L2C TOTAL     ACCESS:     286341  HIT:      77201  MISS:     209140
cpu0_L2C LOAD      ACCESS:     178765  HIT:      20042  MISS:     158723
cpu0_L2C RFO       ACCESS:      45945  HIT:      16541  MISS:      29404
cpu0_L2C PREFETCH  ACCESS:          0  HIT:          0  MISS:          0
cpu0_L2C WRITEBACK ACCESS:      61151  HIT:      40553  MISS:      20598
LLC TOTAL     ACCESS:     236808  HIT:      91025  MISS:     145783
LLC LOAD      ACCESS:     158710  HIT:      36585  MISS:     122125
LLC RFO       ACCESS:      29403  HIT:       5927  MISS:      23476
LLC PREFETCH  ACCESS:          0  HIT:          0  MISS:          0
LLC WRITEBACK ACCESS:      48280  HIT:      48098  MISS:        182
Heartbeat CPU 0 instructions: 78000001 cycles: 42801387 heartbeat IPC: 1.17256 cumulative IPC: 1.17356 (Simulation time: 0 hr 56 min 45 sec) 

Region of Interest Statistics
cpu0_DTLB TOTAL     ACCESS:    7163789  HIT:    7157237  MISS:       6552
cpu0_DTLB LOAD      ACCESS:    6496168  HIT:    6491104  MISS:       5064
cpu0_DTLB RFO       ACCESS:     667621  HIT:     666133  MISS:       1488
cpu0_DTLB PREFETCH  ACCESS:          0  HIT:          0  MISS:          0
cpu0_DTLB WRITEBACK ACCESS:          0  HIT:          0  MISS:          0
cpu0_ITLB TOTAL     ACCESS:     288070  HIT:     288070  MISS:          0
cpu0_ITLB LOAD      ACCESS:     288070  HIT:     288070  MISS:          0
cpu0_ITLB RFO       ACCESS:          0  HIT:          0  MISS:          0
cpu0_ITLB PREFETCH  ACCESS:          0  HIT:          0  MISS:          0
cpu0_ITLB WRITEBACK ACCESS:          0  HIT:          0  MISS:          0
cpu0_L1I TOTAL     ACCESS:      99748  HIT:      99748  MISS:          0
cpu0_L1I LOAD      ACCESS:      99748  HIT:      99748  MISS:          0
cpu0_L1I RFO       ACCESS:          0  HIT:          0  MISS:          0
cpu0_L1I PREFETCH  ACCESS:          0  HIT:          0  MISS:          0
cpu0_L1I WRITEBACK ACCESS:          0  HIT:          0  MISS:          0
cpu0_STLB TOTAL     ACCESS:       6552  HIT:       5006  MISS:       1546
cpu0_STLB LOAD      ACCESS:       5064  HIT:       3922  MISS:       1142
cpu0_STLB RFO       ACCESS:       1488  HIT:       1084  MISS:        404
cpu0_STLB PREFETCH  ACCESS:          0  HIT:          0  MISS:          0
cpu0_STLB WRITEBACK ACCESS:          0  HIT:          0  MISS:          0
cpu0_L1D TOTAL     ACCESS:    7661484  HIT:    7418930  MISS:     242554
cpu0_L1D LOAD      ACCESS:    6689740  HIT:    6497226  MISS:     192514
cpu0_L1D RFO       ACCESS:     970244  HIT:     920722  MISS:      49522
cpu0_L1D PREFETCH  ACCESS:          0  HIT:          0  MISS:          0
cpu0_L1D WRITEBACK ACCESS:          0  HIT:          0  MISS:          0
cpu0_L2C TOTAL     ACCESS:     308453  HIT:      83262  MISS:     225191
cpu0_L2C LOAD      ACCESS:     192505  HIT:      21568  MISS:     170937
cpu0_L2C RFO       ACCESS:      49522  HIT:      17882  MISS:      31640
cpu0_L2C PREFETCH  ACCESS:          0  HIT:          0  MISS:          0
cpu0_L2C WRITEBACK ACCESS:      65908  HIT:      43739  MISS:      22169
LLC TOTAL     ACCESS:     254991  HIT:      97976  MISS:     157015
LLC LOAD      ACCESS:     170923  HIT:      39381  MISS:     131542
LLC RFO       ACCESS:      31639  HIT:       6359  MISS:      25280
LLC PREFETCH  ACCESS:          0  HIT:          0  MISS:          0
LLC WRITEBACK ACCESS:      51984  HIT:      51791  MISS:        193
Heartbeat CPU 0 instructions: 80000001 cycles: 44521555 heartbeat IPC: 1.16268 cumulative IPC: 1.17282 (Simulation time: 0 hr 58 min 52 sec) 

Region of Interest Statistics
cpu0_DTLB TOTAL     ACCESS:    7674861  HIT:    7667839  MISS:       7022
cpu0_DTLB LOAD      ACCESS:    6959787  HIT:    6954356  MISS:       5431
cpu0_DTLB RFO       ACCESS:     715074  HIT:     713483  MISS:       1591
cpu0_DTLB PREFETCH  ACCESS:          0  HIT:          0  MISS:          0
cpu0_DTLB WRITEBACK ACCESS:          0  HIT:          0  MISS:          0
cpu0_ITLB TOTAL     ACCESS:     308740  HIT:     308740  MISS:          0
cpu0_ITLB LOAD      ACCESS:     308740  HIT:     308740  MISS:          0
cpu0_ITLB RFO       ACCESS:          0  HIT:          0  MISS:          0
cpu0_ITLB PREFETCH  ACCESS:          0  HIT:          0  MISS:          0
cpu0_ITLB WRITEBACK ACCESS:          0  HIT:          0  MISS:          0
cpu0_L1I TOTAL     ACCESS:     106889  HIT:     106889  MISS:          0
cpu0_L1I LOAD      ACCESS:     106889  HIT:     106889  MISS:          0
cpu0_L1I RFO       ACCESS:          0  HIT:          0  MISS:          0
cpu0_L1I PREFETCH  ACCESS:          0  HIT:          0  MISS:          0
cpu0_L1I WRITEBACK ACCESS:          0  HIT:          0  MISS:          0
cpu0_STLB TOTAL     ACCESS:       7022  HIT:       5348  MISS:       1674
cpu0_STLB LOAD      ACCESS:       5431  HIT:       4193  MISS:       1238
cpu0_STLB RFO       ACCESS:       1591  HIT:       1155  MISS:        436
cpu0_STLB PREFETCH  ACCESS:          0  HIT:          0  MISS:          0
cpu0_STLB WRITEBACK ACCESS:          0  HIT:          0  MISS:          0
cpu0_L1D TOTAL     ACCESS:    8207115  HIT:    7947154  MISS:     259961
cpu0_L1D LOAD      ACCESS:    7165852  HIT:    6959462  MISS:     206390
cpu0_L1D RFO       ACCESS:    1039639  HIT:     986624  MISS:      53015
cpu0_L1D PREFETCH  ACCESS:          0  HIT:          0  MISS:          0
cpu0_L1D WRITEBACK ACCESS:          0  HIT:          0  MISS:          0
cpu0_L2C TOTAL     ACCESS:     330553  HIT:      89257  MISS:     241296
cpu0_L2C LOAD      ACCESS:     206381  HIT:      23202  MISS:     183179
cpu0_L2C RFO       ACCESS:      53015  HIT:      19101  MISS:      33914
cpu0_L2C PREFETCH  ACCESS:          0  HIT:          0  MISS:          0
cpu0_L2C WRITEBACK ACCESS:      70601  HIT:      46876  MISS:      23725
LLC TOTAL     ACCESS:     273255  HIT:     104802  MISS:     168453
LLC LOAD      ACCESS:     183165  HIT:      42010  MISS:     141155
LLC RFO       ACCESS:      33913  HIT:       6818  MISS:      27095
LLC PREFETCH  ACCESS:          0  HIT:          0  MISS:          0
LLC WRITEBACK ACCESS:      55699  HIT:      55496  MISS:        203
Heartbeat CPU 0 instructions: 82000001 cycles: 46233010 heartbeat IPC: 1.1686 cumulative IPC: 1.17256 (Simulation time: 1 hr 0 min 54 sec) 

Region of Interest Statistics
cpu0_DTLB TOTAL     ACCESS:    8186683  HIT:    8179133  MISS:       7550
cpu0_DTLB LOAD      ACCESS:    7423746  HIT:    7417900  MISS:       5846
cpu0_DTLB RFO       ACCESS:     762937  HIT:     761233  MISS:       1704
cpu0_DTLB PREFETCH  ACCESS:          0  HIT:          0  MISS:          0
cpu0_DTLB WRITEBACK ACCESS:          0  HIT:          0  MISS:          0
cpu0_ITLB TOTAL     ACCESS:     329436  HIT:     329436  MISS:          0
cpu0_ITLB LOAD      ACCESS:     329436  HIT:     329436  MISS:          0
cpu0_ITLB RFO       ACCESS:          0  HIT:          0  MISS:          0
cpu0_ITLB PREFETCH  ACCESS:          0  HIT:          0  MISS:          0
cpu0_ITLB WRITEBACK ACCESS:          0  HIT:          0  MISS:          0
cpu0_L1I TOTAL     ACCESS:     114013  HIT:     114013  MISS:          0
cpu0_L1I LOAD      ACCESS:     114013  HIT:     114013  MISS:          0
cpu0_L1I RFO       ACCESS:          0  HIT:          0  MISS:          0
cpu0_L1I PREFETCH  ACCESS:          0  HIT:          0  MISS:          0
cpu0_L1I WRITEBACK ACCESS:          0  HIT:          0  MISS:          0
cpu0_STLB TOTAL     ACCESS:       7550  HIT:       5765  MISS:       1785
cpu0_STLB LOAD      ACCESS:       5846  HIT:       4526  MISS:       1320
cpu0_STLB RFO       ACCESS:       1704  HIT:       1239  MISS:        465
cpu0_STLB PREFETCH  ACCESS:          0  HIT:          0  MISS:          0
cpu0_STLB WRITEBACK ACCESS:          0  HIT:          0  MISS:          0
cpu0_L1D TOTAL     ACCESS:    8754117  HIT:    8476849  MISS:     277268
cpu0_L1D LOAD      ACCESS:    7643696  HIT:    7423611  MISS:     220085
cpu0_L1D RFO       ACCESS:    1108690  HIT:    1052100  MISS:      56590
cpu0_L1D PREFETCH  ACCESS:          0  HIT:          0  MISS:          0
cpu0_L1D WRITEBACK ACCESS:          0  HIT:          0  MISS:          0
cpu0_L2C TOTAL     ACCESS:     352594  HIT:      95478  MISS:     257116
cpu0_L2C LOAD      ACCESS:     220076  HIT:      24887  MISS:     195189
cpu0_L2C RFO       ACCESS:      56590  HIT:      20380  MISS:      36210
cpu0_L2C PREFETCH  ACCESS:          0  HIT:          0  MISS:          0
cpu0_L2C WRITEBACK ACCESS:      75335  HIT:      50130  MISS:      25205
LLC TOTAL     ACCESS:     291314  HIT:     111597  MISS:     179717
LLC LOAD      ACCESS:     195175  HIT:      44618  MISS:     150557
LLC RFO       ACCESS:      36209  HIT:       7303  MISS:      28906
LLC PREFETCH  ACCESS:          0  HIT:          0  MISS:          0
LLC WRITEBACK ACCESS:      59418  HIT:      59164  MISS:        254
Heartbeat CPU 0 instructions: 84000002 cycles: 47938304 heartbeat IPC: 1.17282 cumulative IPC: 1.17257 (Simulation time: 1 hr 2 min 51 sec) 

Region of Interest Statistics
cpu0_DTLB TOTAL     ACCESS:    8699325  HIT:    8691359  MISS:       7966
cpu0_DTLB LOAD      ACCESS:    7888518  HIT:    7882359  MISS:       6159
cpu0_DTLB RFO       ACCESS:     810807  HIT:     809000  MISS:       1807
cpu0_DTLB PREFETCH  ACCESS:          0  HIT:          0  MISS:          0
cpu0_DTLB WRITEBACK ACCESS:          0  HIT:          0  MISS:          0
cpu0_ITLB TOTAL     ACCESS:     349953  HIT:     349953  MISS:          0
cpu0_ITLB LOAD      ACCESS:     349953  HIT:     349953  MISS:          0
cpu0_ITLB RFO       ACCESS:          0  HIT:          0  MISS:          0
cpu0_ITLB PREFETCH  ACCESS:          0  HIT:          0  MISS:          0
cpu0_ITLB WRITEBACK ACCESS:          0  HIT:          0  MISS:          0
cpu0_L1I TOTAL     ACCESS:     120828  HIT:     120828  MISS:          0
cpu0_L1I LOAD      ACCESS:     120828  HIT:     120828  MISS:          0
cpu0_L1I RFO       ACCESS:          0  HIT:          0  MISS:          0
cpu0_L1I PREFETCH  ACCESS:          0  HIT:          0  MISS:          0
cpu0_L1I WRITEBACK ACCESS:          0  HIT:          0  MISS:          0
cpu0_STLB TOTAL     ACCESS:       7966  HIT:       6079  MISS:       1887
cpu0_STLB LOAD      ACCESS:       6159  HIT:       4765  MISS:       1394
cpu0_STLB RFO       ACCESS:       1807  HIT:       1314  MISS:        493
cpu0_STLB PREFETCH  ACCESS:          0  HIT:          0  MISS:          0
cpu0_STLB WRITEBACK ACCESS:          0  HIT:          0  MISS:          0
cpu0_L1D TOTAL     ACCESS:    9301880  HIT:    9007292  MISS:     294588
cpu0_L1D LOAD      ACCESS:    8122122  HIT:    7888300  MISS:     233822
cpu0_L1D RFO       ACCESS:    1177927  HIT:    1117794  MISS:      60133
cpu0_L1D PREFETCH  ACCESS:          0  HIT:          0  MISS:          0
cpu0_L1D WRITEBACK ACCESS:          0  HIT:          0  MISS:          0
cpu0_L2C TOTAL     ACCESS:     374640  HIT:     101423  MISS:     273217
cpu0_L2C LOAD      ACCESS:     233813  HIT:      26496  MISS:     207317
cpu0_L2C RFO       ACCESS:      60133  HIT:      21657  MISS:      38476
cpu0_L2C PREFETCH  ACCESS:          0  HIT:          0  MISS:          0
cpu0_L2C WRITEBACK ACCESS:      80061  HIT:      53179  MISS:      26882
LLC TOTAL     ACCESS:     309487  HIT:     118683  MISS:     190804
LLC LOAD      ACCESS:     207301  HIT:      47497  MISS:     159804
LLC RFO       ACCESS:      38475  HIT:       7754  MISS:      30721
LLC PREFETCH  ACCESS:          0  HIT:          0  MISS:          0
LLC WRITEBACK ACCESS:      63169  HIT:      62890  MISS:        279
Heartbeat CPU 0 instructions: 86000002 cycles: 49629696 heartbeat IPC: 1.18246 cumulative IPC: 1.17312 (Simulation time: 1 hr 4 min 47 sec) 

Region of Interest Statistics
cpu0_DTLB TOTAL     ACCESS:    9211647  HIT:    9203210  MISS:       8437
cpu0_DTLB LOAD      ACCESS:    8353049  HIT:    8346524  MISS:       6525
cpu0_DTLB RFO       ACCESS:     858598  HIT:     856686  MISS:       1912
cpu0_DTLB PREFETCH  ACCESS:          0  HIT:          0  MISS:          0
cpu0_DTLB WRITEBACK ACCESS:          0  HIT:          0  MISS:          0
cpu0_ITLB TOTAL     ACCESS:     370881  HIT:     370881  MISS:          0
cpu0_ITLB LOAD      ACCESS:     370881  HIT:     370881  MISS:          0
cpu0_ITLB RFO       ACCESS:          0  HIT:          0  MISS:          0
cpu0_ITLB PREFETCH  ACCESS:          0  HIT:          0  MISS:          0
cpu0_ITLB WRITEBACK ACCESS:          0  HIT:          0  MISS:          0
cpu0_L1I TOTAL     ACCESS:     127961  HIT:     127961  MISS:          0
cpu0_L1I LOAD      ACCESS:     127961  HIT:     127961  MISS:          0
cpu0_L1I RFO       ACCESS:          0  HIT:          0  MISS:          0
cpu0_L1I PREFETCH  ACCESS:          0  HIT:          0  MISS:          0
cpu0_L1I WRITEBACK ACCESS:          0  HIT:          0  MISS:          0
cpu0_STLB TOTAL     ACCESS:       8437  HIT:       6440  MISS:       1997
cpu0_STLB LOAD      ACCESS:       6525  HIT:       5049  MISS:       1476
cpu0_STLB RFO       ACCESS:       1912  HIT:       1391  MISS:        521
cpu0_STLB PREFETCH  ACCESS:          0  HIT:          0  MISS:          0
cpu0_STLB WRITEBACK ACCESS:          0  HIT:          0  MISS:          0
cpu0_L1D TOTAL     ACCESS:    9849550  HIT:    9537741  MISS:     311809
cpu0_L1D LOAD      ACCESS:    8600156  HIT:    8352639  MISS:     247517
cpu0_L1D RFO       ACCESS:    1247457  HIT:    1183832  MISS:      63625
cpu0_L1D PREFETCH  ACCESS:          0  HIT:          0  MISS:          0
cpu0_L1D WRITEBACK ACCESS:          0  HIT:          0  MISS:          0
cpu0_L2C TOTAL     ACCESS:     396490  HIT:     107407  MISS:     289083
cpu0_L2C LOAD      ACCESS:     247508  HIT:      28186  MISS:     219322
cpu0_L2C RFO       ACCESS:      63625  HIT:      22883  MISS:      40742
cpu0_L2C PREFETCH  ACCESS:          0  HIT:          0  MISS:          0
cpu0_L2C WRITEBACK ACCESS:      84690  HIT:      56246  MISS:      28444
LLC TOTAL     ACCESS:     327461  HIT:     125674  MISS:     201787
LLC LOAD      ACCESS:     219302  HIT:      50328  MISS:     168974
LLC RFO       ACCESS:      40741  HIT:       8210  MISS:      32531
LLC PREFETCH  ACCESS:          0  HIT:          0  MISS:          0
LLC WRITEBACK ACCESS:      66843  HIT:      66561  MISS:        282
Heartbeat CPU 0 instructions: 88000003 cycles: 51310286 heartbeat IPC: 1.19006 cumulative IPC: 1.174 (Simulation time: 1 hr 6 min 44 sec) 

Region of Interest Statistics
cpu0_DTLB TOTAL     ACCESS:    9723233  HIT:    9714299  MISS:       8934
cpu0_DTLB LOAD      ACCESS:    8816949  HIT:    8810042  MISS:       6907
cpu0_DTLB RFO       ACCESS:     906284  HIT:     904257  MISS:       2027
cpu0_DTLB PREFETCH  ACCESS:          0  HIT:          0  MISS:          0
cpu0_DTLB WRITEBACK ACCESS:          0  HIT:          0  MISS:          0
cpu0_ITLB TOTAL     ACCESS:     391462  HIT:     391462  MISS:          0
cpu0_ITLB LOAD      ACCESS:     391462  HIT:     391462  MISS:          0
cpu0_ITLB RFO       ACCESS:          0  HIT:          0  MISS:          0
cpu0_ITLB PREFETCH  ACCESS:          0  HIT:          0  MISS:          0
cpu0_ITLB WRITEBACK ACCESS:          0  HIT:          0  MISS:          0
cpu0_L1I TOTAL     ACCESS:     135092  HIT:     135092  MISS:          0
cpu0_L1I LOAD      ACCESS:     135092  HIT:     135092  MISS:          0
cpu0_L1I RFO       ACCESS:          0  HIT:          0  MISS:          0
cpu0_L1I PREFETCH  ACCESS:          0  HIT:          0  MISS:          0
cpu0_L1I WRITEBACK ACCESS:          0  HIT:          0  MISS:          0
cpu0_STLB TOTAL     ACCESS:       8934  HIT:       6829  MISS:       2105
cpu0_STLB LOAD      ACCESS:       6907  HIT:       5352  MISS:       1555
cpu0_STLB RFO       ACCESS:       2027  HIT:       1477  MISS:        550
cpu0_STLB PREFETCH  ACCESS:          0  HIT:          0  MISS:          0
cpu0_STLB WRITEBACK ACCESS:          0  HIT:          0  MISS:          0
cpu0_L1D TOTAL     ACCESS:   10396894  HIT:   10067774  MISS:     329120
cpu0_L1D LOAD      ACCESS:    9078171  HIT:    8816979  MISS:     261192
cpu0_L1D RFO       ACCESS:    1316681  HIT:    1249463  MISS:      67218
cpu0_L1D PREFETCH  ACCESS:          0  HIT:          0  MISS:          0
cpu0_L1D WRITEBACK ACCESS:          0  HIT:          0  MISS:          0
cpu0_L2C TOTAL     ACCESS:     418517  HIT:     113459  MISS:     305058
cpu0_L2C LOAD      ACCESS:     261183  HIT:      29686  MISS:     231497
cpu0_L2C RFO       ACCESS:      67218  HIT:      24160  MISS:      43058
cpu0_L2C PREFETCH  ACCESS:          0  HIT:          0  MISS:          0
cpu0_L2C WRITEBACK ACCESS:      89406  HIT:      59515  MISS:      29891
LLC TOTAL     ACCESS:     345673  HIT:     132815  MISS:     212858
LLC LOAD      ACCESS:     231475  HIT:      53258  MISS:     178217
LLC RFO       ACCESS:      43056  HIT:       8715  MISS:      34341
LLC PREFETCH  ACCESS:          0  HIT:          0  MISS:          0
LLC WRITEBACK ACCESS:      70530  HIT:      70230  MISS:        300
Heartbeat CPU 0 instructions: 90000000 cycles: 53020302 heartbeat IPC: 1.16958 cumulative IPC: 1.17378 (Simulation time: 1 hr 8 min 45 sec) 

Region of Interest Statistics
cpu0_DTLB TOTAL     ACCESS:   10234922  HIT:   10225516  MISS:       9406
cpu0_DTLB LOAD      ACCESS:    9280861  HIT:    9273586  MISS:       7275
cpu0_DTLB RFO       ACCESS:     954061  HIT:     951930  MISS:       2131
cpu0_DTLB PREFETCH  ACCESS:          0  HIT:          0  MISS:          0
cpu0_DTLB WRITEBACK ACCESS:          0  HIT:          0  MISS:          0
cpu0_ITLB TOTAL     ACCESS:     412297  HIT:     412297  MISS:          0
cpu0_ITLB LOAD      ACCESS:     412297  HIT:     412297  MISS:          0
cpu0_ITLB RFO       ACCESS:          0  HIT:          0  MISS:          0
cpu0_ITLB PREFETCH  ACCESS:          0  HIT:          0  MISS:          0
cpu0_ITLB WRITEBACK ACCESS:          0  HIT:          0  MISS:          0
cpu0_L1I TOTAL     ACCESS:     142257  HIT:     142257  MISS:          0
cpu0_L1I LOAD      ACCESS:     142257  HIT:     142257  MISS:          0
cpu0_L1I RFO       ACCESS:          0  HIT:          0  MISS:          0
cpu0_L1I PREFETCH  ACCESS:          0  HIT:          0  MISS:          0
cpu0_L1I WRITEBACK ACCESS:          0  HIT:          0  MISS:          0
cpu0_STLB TOTAL     ACCESS:       9406  HIT:       7173  MISS:       2233
cpu0_STLB LOAD      ACCESS:       7275  HIT:       5624  MISS:       1651
cpu0_STLB RFO       ACCESS:       2131  HIT:       1549  MISS:        582
cpu0_STLB PREFETCH  ACCESS:          0  HIT:          0  MISS:          0
cpu0_STLB WRITEBACK ACCESS:          0  HIT:          0  MISS:          0
cpu0_L1D TOTAL     ACCESS:   10943521  HIT:   10596979  MISS:     346542
cpu0_L1D LOAD      ACCESS:    9555352  HIT:    9280314  MISS:     275038
cpu0_L1D RFO       ACCESS:    1386003  HIT:    1315254  MISS:      70749
cpu0_L1D PREFETCH  ACCESS:          0  HIT:          0  MISS:          0
cpu0_L1D WRITEBACK ACCESS:          0  HIT:          0  MISS:          0
cpu0_L2C TOTAL     ACCESS:     440613  HIT:     119346  MISS:     321267
cpu0_L2C LOAD      ACCESS:     275029  HIT:      31327  MISS:     243702
cpu0_L2C RFO       ACCESS:      70749  HIT:      25432  MISS:      45317
cpu0_L2C PREFETCH  ACCESS:          0  HIT:          0  MISS:          0
cpu0_L2C WRITEBACK ACCESS:      94080  HIT:      62475  MISS:      31605
LLC TOTAL     ACCESS:     363939  HIT:     139748  MISS:     224191
LLC LOAD      ACCESS:     243679  HIT:      55956  MISS:     187723
LLC RFO       ACCESS:      45315  HIT:       9159  MISS:      36156
LLC PREFETCH  ACCESS:          0  HIT:          0  MISS:          0
LLC WRITEBACK ACCESS:      74302  HIT:      73990  MISS:        312
Heartbeat CPU 0 instructions: 92000001 cycles: 54717120 heartbeat IPC: 1.17868 cumulative IPC: 1.17401 (Simulation time: 1 hr 10 min 45 sec) 

Region of Interest Statistics
cpu0_DTLB TOTAL     ACCESS:   10746750  HIT:   10736840  MISS:       9910
cpu0_DTLB LOAD      ACCESS:    9744935  HIT:    9737267  MISS:       7668
cpu0_DTLB RFO       ACCESS:    1001815  HIT:     999573  MISS:       2242
cpu0_DTLB PREFETCH  ACCESS:          0  HIT:          0  MISS:          0
cpu0_DTLB WRITEBACK ACCESS:          0  HIT:          0  MISS:          0
cpu0_ITLB TOTAL     ACCESS:     432897  HIT:     432897  MISS:          0
cpu0_ITLB LOAD      ACCESS:     432897  HIT:     432897  MISS:          0
cpu0_ITLB RFO       ACCESS:          0  HIT:          0  MISS:          0
cpu0_ITLB PREFETCH  ACCESS:          0  HIT:          0  MISS:          0
cpu0_ITLB WRITEBACK ACCESS:          0  HIT:          0  MISS:          0
cpu0_L1I TOTAL     ACCESS:     149423  HIT:     149423  MISS:          0
cpu0_L1I LOAD      ACCESS:     149423  HIT:     149423  MISS:          0
cpu0_L1I RFO       ACCESS:          0  HIT:          0  MISS:          0
cpu0_L1I PREFETCH  ACCESS:          0  HIT:          0  MISS:          0
cpu0_L1I WRITEBACK ACCESS:          0  HIT:          0  MISS:          0
cpu0_STLB TOTAL     ACCESS:       9910  HIT:       7575  MISS:       2335
cpu0_STLB LOAD      ACCESS:       7668  HIT:       5943  MISS:       1725
cpu0_STLB RFO       ACCESS:       2242  HIT:       1632  MISS:        610
cpu0_STLB PREFETCH  ACCESS:          0  HIT:          0  MISS:          0
cpu0_STLB WRITEBACK ACCESS:          0  HIT:          0  MISS:          0
cpu0_L1D TOTAL     ACCESS:   11490967  HIT:   11127098  MISS:     363869
cpu0_L1D LOAD      ACCESS:   10033437  HIT:    9744685  MISS:     288752
cpu0_L1D RFO       ACCESS:    1455265  HIT:    1380940  MISS:      74325
cpu0_L1D PREFETCH  ACCESS:          0  HIT:          0  MISS:          0
cpu0_L1D WRITEBACK ACCESS:          0  HIT:          0  MISS:          0
cpu0_L2C TOTAL     ACCESS:     462660  HIT:     125383  MISS:     337277
cpu0_L2C LOAD      ACCESS:     288743  HIT:      32874  MISS:     255869
cpu0_L2C RFO       ACCESS:      74325  HIT:      26798  MISS:      47527
cpu0_L2C PREFETCH  ACCESS:          0  HIT:          0  MISS:          0
cpu0_L2C WRITEBACK ACCESS:      98800  HIT:      65597  MISS:      33203
LLC TOTAL     ACCESS:     381988  HIT:     146520  MISS:     235468
LLC LOAD      ACCESS:     255846  HIT:      58706  MISS:     197140
LLC RFO       ACCESS:      47525  HIT:       9559  MISS:      37966
LLC PREFETCH  ACCESS:          0  HIT:          0  MISS:          0
LLC WRITEBACK ACCESS:      77939  HIT:      77577  MISS:        362
Heartbeat CPU 0 instructions: 94000000 cycles: 56419508 heartbeat IPC: 1.17482 cumulative IPC: 1.17405 (Simulation time: 1 hr 12 min 48 sec) 

Region of Interest Statistics
cpu0_DTLB TOTAL     ACCESS:   11259008  HIT:   11248627  MISS:      10381
cpu0_DTLB LOAD      ACCESS:   10209479  HIT:   10201448  MISS:       8031
cpu0_DTLB RFO       ACCESS:    1049529  HIT:    1047179  MISS:       2350
cpu0_DTLB PREFETCH  ACCESS:          0  HIT:          0  MISS:          0
cpu0_DTLB WRITEBACK ACCESS:          0  HIT:          0  MISS:          0
cpu0_ITLB TOTAL     ACCESS:     453529  HIT:     453529  MISS:          0
cpu0_ITLB LOAD      ACCESS:     453529  HIT:     453529  MISS:          0
cpu0_ITLB RFO       ACCESS:          0  HIT:          0  MISS:          0
cpu0_ITLB PREFETCH  ACCESS:          0  HIT:          0  MISS:          0
cpu0_ITLB WRITEBACK ACCESS:          0  HIT:          0  MISS:          0
cpu0_L1I TOTAL     ACCESS:     156590  HIT:     156590  MISS:          0
cpu0_L1I LOAD      ACCESS:     156590  HIT:     156590  MISS:          0
cpu0_L1I RFO       ACCESS:          0  HIT:          0  MISS:          0
cpu0_L1I PREFETCH  ACCESS:          0  HIT:          0  MISS:          0
cpu0_L1I WRITEBACK ACCESS:          0  HIT:          0  MISS:          0
cpu0_STLB TOTAL     ACCESS:      10381  HIT:       7936  MISS:       2445
cpu0_STLB LOAD      ACCESS:       8031  HIT:       6224  MISS:       1807
cpu0_STLB RFO       ACCESS:       2350  HIT:       1712  MISS:        638
cpu0_STLB PREFETCH  ACCESS:          0  HIT:          0  MISS:          0
cpu0_STLB WRITEBACK ACCESS:          0  HIT:          0  MISS:          0
cpu0_L1D TOTAL     ACCESS:   12038820  HIT:   11657566  MISS:     381254
cpu0_L1D LOAD      ACCESS:   10512021  HIT:   10209502  MISS:     302519
cpu0_L1D RFO       ACCESS:    1524426  HIT:    1446528  MISS:      77898
cpu0_L1D PREFETCH  ACCESS:          0  HIT:          0  MISS:          0
cpu0_L1D WRITEBACK ACCESS:          0  HIT:          0  MISS:          0
cpu0_L2C TOTAL     ACCESS:     484754  HIT:     131456  MISS:     353298
cpu0_L2C LOAD      ACCESS:     302510  HIT:      34434  MISS:     268076
cpu0_L2C RFO       ACCESS:      77898  HIT:      28124  MISS:      49774
cpu0_L2C PREFETCH  ACCESS:          0  HIT:          0  MISS:          0
cpu0_L2C WRITEBACK ACCESS:     103509  HIT:      68775  MISS:      34734
LLC TOTAL     ACCESS:     400151  HIT:     153473  MISS:     246678
LLC LOAD      ACCESS:     268053  HIT:      61524  MISS:     206529
LLC RFO       ACCESS:      49772  HIT:       9996  MISS:      39776
LLC PREFETCH  ACCESS:          0  HIT:          0  MISS:          0
LLC WRITEBACK ACCESS:      81612  HIT:      81239  MISS:        373
Heartbeat CPU 0 instructions: 96000002 cycles: 58117850 heartbeat IPC: 1.17762 cumulative IPC: 1.1742 (Simulation time: 1 hr 14 min 46 sec) 

Region of Interest Statistics
cpu0_DTLB TOTAL     ACCESS:   11770729  HIT:   11759922  MISS:      10807
cpu0_DTLB LOAD      ACCESS:   10673583  HIT:   10665233  MISS:       8350
cpu0_DTLB RFO       ACCESS:    1097146  HIT:    1094689  MISS:       2457
cpu0_DTLB PREFETCH  ACCESS:          0  HIT:          0  MISS:          0
cpu0_DTLB WRITEBACK ACCESS:          0  HIT:          0  MISS:          0
cpu0_ITLB TOTAL     ACCESS:     474098  HIT:     474098  MISS:          0
cpu0_ITLB LOAD      ACCESS:     474098  HIT:     474098  MISS:          0
cpu0_ITLB RFO       ACCESS:          0  HIT:          0  MISS:          0
cpu0_ITLB PREFETCH  ACCESS:          0  HIT:          0  MISS:          0
cpu0_ITLB WRITEBACK ACCESS:          0  HIT:          0  MISS:          0
cpu0_L1I TOTAL     ACCESS:     163746  HIT:     163746  MISS:          0
cpu0_L1I LOAD      ACCESS:     163746  HIT:     163746  MISS:          0
cpu0_L1I RFO       ACCESS:          0  HIT:          0  MISS:          0
cpu0_L1I PREFETCH  ACCESS:          0  HIT:          0  MISS:          0
cpu0_L1I WRITEBACK ACCESS:          0  HIT:          0  MISS:          0
cpu0_STLB TOTAL     ACCESS:      10807  HIT:       8251  MISS:       2556
cpu0_STLB LOAD      ACCESS:       8350  HIT:       6461  MISS:       1889
cpu0_STLB RFO       ACCESS:       2457  HIT:       1790  MISS:        667
cpu0_STLB PREFETCH  ACCESS:          0  HIT:          0  MISS:          0
cpu0_STLB WRITEBACK ACCESS:          0  HIT:          0  MISS:          0
cpu0_L1D TOTAL     ACCESS:   12586548  HIT:   12188017  MISS:     398531
cpu0_L1D LOAD      ACCESS:   10990257  HIT:   10673976  MISS:     316281
cpu0_L1D RFO       ACCESS:    1593810  HIT:    1512434  MISS:      81376
cpu0_L1D PREFETCH  ACCESS:          0  HIT:          0  MISS:          0
cpu0_L1D WRITEBACK ACCESS:          0  HIT:          0  MISS:          0
cpu0_L2C TOTAL     ACCESS:     506710  HIT:     137149  MISS:     369561
cpu0_L2C LOAD      ACCESS:     316272  HIT:      35891  MISS:     280381
cpu0_L2C RFO       ACCESS:      81376  HIT:      29334  MISS:      52042
cpu0_L2C PREFETCH  ACCESS:          0  HIT:          0  MISS:          0
cpu0_L2C WRITEBACK ACCESS:     108188  HIT:      71798  MISS:      36390
LLC TOTAL     ACCESS:     418509  HIT:     160615  MISS:     257894
LLC LOAD      ACCESS:     280357  HIT:      64430  MISS:     215927
LLC RFO       ACCESS:      52040  HIT:      10449  MISS:      41591
LLC PREFETCH  ACCESS:          0  HIT:          0  MISS:          0
LLC WRITEBACK ACCESS:      85364  HIT:      84988  MISS:        376
Heartbeat CPU 0 instructions: 98000003 cycles: 59812915 heartbeat IPC: 1.1799 cumulative IPC: 1.17444 (Simulation time: 1 hr 16 min 51 sec) 

Region of Interest Statistics
cpu0_DTLB TOTAL     ACCESS:   12282730  HIT:   12271418  MISS:      11312
cpu0_DTLB LOAD      ACCESS:   11138009  HIT:   11129261  MISS:       8748
cpu0_DTLB RFO       ACCESS:    1144721  HIT:    1142157  MISS:       2564
cpu0_DTLB PREFETCH  ACCESS:          0  HIT:          0  MISS:          0
cpu0_DTLB WRITEBACK ACCESS:          0  HIT:          0  MISS:          0
cpu0_ITLB TOTAL     ACCESS:     494521  HIT:     494521  MISS:          0
cpu0_ITLB LOAD      ACCESS:     494521  HIT:     494521  MISS:          0
cpu0_ITLB RFO       ACCESS:          0  HIT:          0  MISS:          0
cpu0_ITLB PREFETCH  ACCESS:          0  HIT:          0  MISS:          0
cpu0_ITLB WRITEBACK ACCESS:          0  HIT:          0  MISS:          0
cpu0_L1I TOTAL     ACCESS:     170883  HIT:     170883  MISS:          0
cpu0_L1I LOAD      ACCESS:     170883  HIT:     170883  MISS:          0
cpu0_L1I RFO       ACCESS:          0  HIT:          0  MISS:          0
cpu0_L1I PREFETCH  ACCESS:          0  HIT:          0  MISS:          0
cpu0_L1I WRITEBACK ACCESS:          0  HIT:          0  MISS:          0
cpu0_STLB TOTAL     ACCESS:      11312  HIT:       8654  MISS:       2658
cpu0_STLB LOAD      ACCESS:       8748  HIT:       6785  MISS:       1963
cpu0_STLB RFO       ACCESS:       2564  HIT:       1869  MISS:        695
cpu0_STLB PREFETCH  ACCESS:          0  HIT:          0  MISS:          0
cpu0_STLB WRITEBACK ACCESS:          0  HIT:          0  MISS:          0
cpu0_L1D TOTAL     ACCESS:   13134082  HIT:   12718257  MISS:     415825
cpu0_L1D LOAD      ACCESS:   11468642  HIT:   11138694  MISS:     329948
cpu0_L1D RFO       ACCESS:    1662859  HIT:    1577895  MISS:      84964
cpu0_L1D PREFETCH  ACCESS:          0  HIT:          0  MISS:          0
cpu0_L1D WRITEBACK ACCESS:          0  HIT:          0  MISS:          0
cpu0_L2C TOTAL     ACCESS:     528740  HIT:     143044  MISS:     385696
cpu0_L2C LOAD      ACCESS:     329933  HIT:      37347  MISS:     292586
cpu0_L2C RFO       ACCESS:      84964  HIT:      30604  MISS:      54360
cpu0_L2C PREFETCH  ACCESS:          0  HIT:          0  MISS:          0
cpu0_L2C WRITEBACK ACCESS:     112930  HIT:      74961  MISS:      37969
LLC TOTAL     ACCESS:     436766  HIT:     167706  MISS:     269060
LLC LOAD      ACCESS:     292562  HIT:      67317  MISS:     225245
LLC RFO       ACCESS:      54358  HIT:      10957  MISS:      43401
LLC PREFETCH  ACCESS:          0  HIT:          0  MISS:          0
LLC WRITEBACK ACCESS:      89065  HIT:      88651  MISS:        414
Heartbeat CPU 0 instructions: 100000002 cycles: 61505472 heartbeat IPC: 1.18164 cumulative IPC: 1.17472 (Simulation time: 1 hr 18 min 55 sec) 

Region of Interest Statistics
cpu0_DTLB TOTAL     ACCESS:   12794810  HIT:   12783028  MISS:      11782
cpu0_DTLB LOAD      ACCESS:   11602651  HIT:   11593543  MISS:       9108
cpu0_DTLB RFO       ACCESS:    1192159  HIT:    1189485  MISS:       2674
cpu0_DTLB PREFETCH  ACCESS:          0  HIT:          0  MISS:          0
cpu0_DTLB WRITEBACK ACCESS:          0  HIT:          0  MISS:          0
cpu0_ITLB TOTAL     ACCESS:     514948  HIT:     514948  MISS:          0
cpu0_ITLB LOAD      ACCESS:     514948  HIT:     514948  MISS:          0
cpu0_ITLB RFO       ACCESS:          0  HIT:          0  MISS:          0
cpu0_ITLB PREFETCH  ACCESS:          0  HIT:          0  MISS:          0
cpu0_ITLB WRITEBACK ACCESS:          0  HIT:          0  MISS:          0
cpu0_L1I TOTAL     ACCESS:     178028  HIT:     178028  MISS:          0
cpu0_L1I LOAD      ACCESS:     178028  HIT:     178028  MISS:          0
cpu0_L1I RFO       ACCESS:          0  HIT:          0  MISS:          0
cpu0_L1I PREFETCH  ACCESS:          0  HIT:          0  MISS:          0
cpu0_L1I WRITEBACK ACCESS:          0  HIT:          0  MISS:          0
cpu0_STLB TOTAL     ACCESS:      11782  HIT:       9015  MISS:       2767
cpu0_STLB LOAD      ACCESS:       9108  HIT:       7064  MISS:       2044
cpu0_STLB RFO       ACCESS:       2674  HIT:       1951  MISS:        723
cpu0_STLB PREFETCH  ACCESS:          0  HIT:          0  MISS:          0
cpu0_STLB WRITEBACK ACCESS:          0  HIT:          0  MISS:          0
cpu0_L1D TOTAL     ACCESS:   13681428  HIT:   13248226  MISS:     433202
cpu0_L1D LOAD      ACCESS:   11946754  HIT:   11603024  MISS:     343730
cpu0_L1D RFO       ACCESS:    1731987  HIT:    1643472  MISS:      88515
cpu0_L1D PREFETCH  ACCESS:          0  HIT:          0  MISS:          0
cpu0_L1D WRITEBACK ACCESS:          0  HIT:          0  MISS:          0
cpu0_L2C TOTAL     ACCESS:     550859  HIT:     149173  MISS:     401686
cpu0_L2C LOAD      ACCESS:     343709  HIT:      38982  MISS:     304727
cpu0_L2C RFO       ACCESS:      88515  HIT:      31879  MISS:      56636
cpu0_L2C PREFETCH  ACCESS:          0  HIT:          0  MISS:          0
cpu0_L2C WRITEBACK ACCESS:     117678  HIT:      78173  MISS:      39505
LLC TOTAL     ACCESS:     454955  HIT:     174787  MISS:     280168
LLC LOAD      ACCESS:     304697  HIT:      70158  MISS:     234539
LLC RFO       ACCESS:      56634  HIT:      11423  MISS:      45211
LLC PREFETCH  ACCESS:          0  HIT:          0  MISS:          0
LLC WRITEBACK ACCESS:      92806  HIT:      92388  MISS:        418
Heartbeat CPU 0 instructions: 102000000 cycles: 63227049 heartbeat IPC: 1.16172 cumulative IPC: 1.17422 (Simulation time: 1 hr 21 min 0 sec) 

Region of Interest Statistics
cpu0_DTLB TOTAL     ACCESS:   13306887  HIT:   13294605  MISS:      12282
cpu0_DTLB LOAD      ACCESS:   12067125  HIT:   12057623  MISS:       9502
cpu0_DTLB RFO       ACCESS:    1239762  HIT:    1236982  MISS:       2780
cpu0_DTLB PREFETCH  ACCESS:          0  HIT:          0  MISS:          0
cpu0_DTLB WRITEBACK ACCESS:          0  HIT:          0  MISS:          0
cpu0_ITLB TOTAL     ACCESS:     535573  HIT:     535573  MISS:          0
cpu0_ITLB LOAD      ACCESS:     535573  HIT:     535573  MISS:          0
cpu0_ITLB RFO       ACCESS:          0  HIT:          0  MISS:          0
cpu0_ITLB PREFETCH  ACCESS:          0  HIT:          0  MISS:          0
cpu0_ITLB WRITEBACK ACCESS:          0  HIT:          0  MISS:          0
cpu0_L1I TOTAL     ACCESS:     185163  HIT:     185163  MISS:          0
cpu0_L1I LOAD      ACCESS:     185163  HIT:     185163  MISS:          0
cpu0_L1I RFO       ACCESS:          0  HIT:          0  MISS:          0
cpu0_L1I PREFETCH  ACCESS:          0  HIT:          0  MISS:          0
cpu0_L1I WRITEBACK ACCESS:          0  HIT:          0  MISS:          0
cpu0_STLB TOTAL     ACCESS:      12282  HIT:       9391  MISS:       2891
cpu0_STLB LOAD      ACCESS:       9502  HIT:       7365  MISS:       2137
cpu0_STLB RFO       ACCESS:       2780  HIT:       2026  MISS:        754
cpu0_STLB PREFETCH  ACCESS:          0  HIT:          0  MISS:          0
cpu0_STLB WRITEBACK ACCESS:          0  HIT:          0  MISS:          0
cpu0_L1D TOTAL     ACCESS:   14228355  HIT:   13777743  MISS:     450612
cpu0_L1D LOAD      ACCESS:   12424144  HIT:   12066556  MISS:     357588
cpu0_L1D RFO       ACCESS:    1801402  HIT:    1709372  MISS:      92030
cpu0_L1D PREFETCH  ACCESS:          0  HIT:          0  MISS:          0
cpu0_L1D WRITEBACK ACCESS:          0  HIT:          0  MISS:          0
cpu0_L2C TOTAL     ACCESS:     572969  HIT:     155269  MISS:     417700
cpu0_L2C LOAD      ACCESS:     357567  HIT:      40667  MISS:     316900
cpu0_L2C RFO       ACCESS:      92030  HIT:      33143  MISS:      58887
cpu0_L2C PREFETCH  ACCESS:          0  HIT:          0  MISS:          0
cpu0_L2C WRITEBACK ACCESS:     122378  HIT:      81315  MISS:      41063
LLC TOTAL     ACCESS:     473088  HIT:     181527  MISS:     291561
LLC LOAD      ACCESS:     316870  HIT:      72773  MISS:     244097
LLC RFO       ACCESS:      58885  HIT:      11865  MISS:      47020
LLC PREFETCH  ACCESS:          0  HIT:          0  MISS:          0
LLC WRITEBACK ACCESS:      96483  HIT:      96039  MISS:        444
Heartbeat CPU 0 instructions: 104000001 cycles: 64940753 heartbeat IPC: 1.16706 cumulative IPC: 1.17395 (Simulation time: 1 hr 23 min 2 sec) 

Region of Interest Statistics
cpu0_DTLB TOTAL     ACCESS:   13819066  HIT:   13806276  MISS:      12790
cpu0_DTLB LOAD      ACCESS:   12531447  HIT:   12521547  MISS:       9900
cpu0_DTLB RFO       ACCESS:    1287619  HIT:    1284729  MISS:       2890
cpu0_DTLB PREFETCH  ACCESS:          0  HIT:          0  MISS:          0
cpu0_DTLB WRITEBACK ACCESS:          0  HIT:          0  MISS:          0
cpu0_ITLB TOTAL     ACCESS:     556148  HIT:     556148  MISS:          0
cpu0_ITLB LOAD      ACCESS:     556148  HIT:     556148  MISS:          0
cpu0_ITLB RFO       ACCESS:          0  HIT:          0  MISS:          0
cpu0_ITLB PREFETCH  ACCESS:          0  HIT:          0  MISS:          0
cpu0_ITLB WRITEBACK ACCESS:          0  HIT:          0  MISS:          0
cpu0_L1I TOTAL     ACCESS:     192284  HIT:     192284  MISS:          0
cpu0_L1I LOAD      ACCESS:     192284  HIT:     192284  MISS:          0
cpu0_L1I RFO       ACCESS:          0  HIT:          0  MISS:          0
cpu0_L1I PREFETCH  ACCESS:          0  HIT:          0  MISS:          0
cpu0_L1I WRITEBACK ACCESS:          0  HIT:          0  MISS:          0
cpu0_STLB TOTAL     ACCESS:      12790  HIT:       9787  MISS:       3003
cpu0_STLB LOAD      ACCESS:       9900  HIT:       7680  MISS:       2220
cpu0_STLB RFO       ACCESS:       2890  HIT:       2107  MISS:        783
cpu0_STLB PREFETCH  ACCESS:          0  HIT:          0  MISS:          0
cpu0_STLB WRITEBACK ACCESS:          0  HIT:          0  MISS:          0
cpu0_L1D TOTAL     ACCESS:   14775850  HIT:   14307899  MISS:     467951
cpu0_L1D LOAD      ACCESS:   12902292  HIT:   12530953  MISS:     371339
cpu0_L1D RFO       ACCESS:    1870640  HIT:    1775066  MISS:      95574
cpu0_L1D PREFETCH  ACCESS:          0  HIT:          0  MISS:          0
cpu0_L1D WRITEBACK ACCESS:          0  HIT:          0  MISS:          0
cpu0_L2C TOTAL     ACCESS:     595027  HIT:     161125  MISS:     433902
cpu0_L2C LOAD      ACCESS:     371318  HIT:      42161  MISS:     329157
cpu0_L2C RFO       ACCESS:      95574  HIT:      34456  MISS:      61118
cpu0_L2C PREFETCH  ACCESS:          0  HIT:          0  MISS:          0
cpu0_L2C WRITEBACK ACCESS:     127097  HIT:      84358  MISS:      42739
LLC TOTAL     ACCESS:     491410  HIT:     188618  MISS:     302792
LLC LOAD      ACCESS:     329125  HIT:      75607  MISS:     253518
LLC RFO       ACCESS:      61116  HIT:      12321  MISS:      48795
LLC PREFETCH  ACCESS:          0  HIT:          0  MISS:          0
LLC WRITEBACK ACCESS:     100281  HIT:      99802  MISS:        479
Heartbeat CPU 0 instructions: 106000002 cycles: 66631982 heartbeat IPC: 1.18257 cumulative IPC: 1.17426 (Simulation time: 1 hr 25 min 4 sec) 

Region of Interest Statistics
cpu0_DTLB TOTAL     ACCESS:   14331221  HIT:   14318028  MISS:      13193
cpu0_DTLB LOAD      ACCESS:   12995796  HIT:   12985592  MISS:      10204
cpu0_DTLB RFO       ACCESS:    1335425  HIT:    1332436  MISS:       2989
cpu0_DTLB PREFETCH  ACCESS:          0  HIT:          0  MISS:          0
cpu0_DTLB WRITEBACK ACCESS:          0  HIT:          0  MISS:          0
cpu0_ITLB TOTAL     ACCESS:     576759  HIT:     576759  MISS:          0
cpu0_ITLB LOAD      ACCESS:     576759  HIT:     576759  MISS:          0
cpu0_ITLB RFO       ACCESS:          0  HIT:          0  MISS:          0
cpu0_ITLB PREFETCH  ACCESS:          0  HIT:          0  MISS:          0
cpu0_ITLB WRITEBACK ACCESS:          0  HIT:          0  MISS:          0
cpu0_L1I TOTAL     ACCESS:     199415  HIT:     199415  MISS:          0
cpu0_L1I LOAD      ACCESS:     199415  HIT:     199415  MISS:          0
cpu0_L1I RFO       ACCESS:          0  HIT:          0  MISS:          0
cpu0_L1I PREFETCH  ACCESS:          0  HIT:          0  MISS:          0
cpu0_L1I WRITEBACK ACCESS:          0  HIT:          0  MISS:          0
cpu0_STLB TOTAL     ACCESS:      13193  HIT:      10090  MISS:       3103
cpu0_STLB LOAD      ACCESS:      10204  HIT:       7911  MISS:       2293
cpu0_STLB RFO       ACCESS:       2989  HIT:       2179  MISS:        810
cpu0_STLB PREFETCH  ACCESS:          0  HIT:          0  MISS:          0
cpu0_STLB WRITEBACK ACCESS:          0  HIT:          0  MISS:          0
cpu0_L1D TOTAL     ACCESS:   15323657  HIT:   14838368  MISS:     485289
cpu0_L1D LOAD      ACCESS:   13380539  HIT:   12995390  MISS:     385149
cpu0_L1D RFO       ACCESS:    1940102  HIT:    1841041  MISS:      99061
cpu0_L1D PREFETCH  ACCESS:          0  HIT:          0  MISS:          0
cpu0_L1D WRITEBACK ACCESS:          0  HIT:          0  MISS:          0
cpu0_L2C TOTAL     ACCESS:     617073  HIT:     166952  MISS:     450121
cpu0_L2C LOAD      ACCESS:     385129  HIT:      43670  MISS:     341459
cpu0_L2C RFO       ACCESS:      99061  HIT:      35705  MISS:      63356
cpu0_L2C PREFETCH  ACCESS:          0  HIT:          0  MISS:          0
cpu0_L2C WRITEBACK ACCESS:     131804  HIT:      87417  MISS:      44387
[...]
cpu0_DTLB WRITEBACK ACCESS:          0  HIT:          0  MISS:          0
cpu0_DTLB TRANSLATION ACCESS:          0  HIT:          0  MISS:          0
cpu0_DTLB PREFETCH  REQUESTED:          0  ISSUED:          0  USEFUL:          0  USELESS:          0
cpu0_DTLB AVERAGE MISS LATENCY: 23.9139 cycles
cpu0_ITLB TOTAL     ACCESS:   16968056  HIT:   16967983  MISS:         73
cpu0_ITLB LOAD      ACCESS:   16968056  HIT:   16967983  MISS:         73
cpu0_ITLB RFO       ACCESS:          0  HIT:          0  MISS:          0
cpu0_ITLB PREFETCH  ACCESS:          0  HIT:          0  MISS:          0
cpu0_ITLB WRITEBACK ACCESS:          0  HIT:          0  MISS:          0
cpu0_ITLB TRANSLATION ACCESS:          0  HIT:          0  MISS:          0
cpu0_ITLB PREFETCH  REQUESTED:          0  ISSUED:          0  USEFUL:          0  USELESS:          0
cpu0_ITLB AVERAGE MISS LATENCY: 194.329 cycles
cpu0_L1I TOTAL     ACCESS:   32361021  HIT:   32359665  MISS:       1356
cpu0_L1I LOAD      ACCESS:   32361021  HIT:   32359665  MISS:       1356
cpu0_L1I RFO       ACCESS:          0  HIT:          0  MISS:          0
cpu0_L1I PREFETCH  ACCESS:          0  HIT:          0  MISS:          0
cpu0_L1I WRITEBACK ACCESS:          0  HIT:          0  MISS:          0
cpu0_L1I TRANSLATION ACCESS:          0  HIT:          0  MISS:          0
cpu0_L1I PREFETCH  REQUESTED:          0  ISSUED:          0  USEFUL:          0  USELESS:          0
cpu0_L1I AVERAGE MISS LATENCY: 259.028 cycles
cpu0_STLB TOTAL     ACCESS:     351161  HIT:     203651  MISS:     147510
cpu0_STLB LOAD      ACCESS:     286653  HIT:     177732  MISS:     108921
cpu0_STLB RFO       ACCESS:      64508  HIT:      25919  MISS:      38589
cpu0_STLB PREFETCH  ACCESS:          0  HIT:          0  MISS:          0
cpu0_STLB WRITEBACK ACCESS:          0  HIT:          0  MISS:          0
cpu0_STLB TRANSLATION ACCESS:          0  HIT:          0  MISS:          0
cpu0_STLB PREFETCH  REQUESTED:          0  ISSUED:          0  USEFUL:          0  USELESS:          0
cpu0_STLB AVERAGE MISS LATENCY: 35.5405 cycles
cpu0_L1D TOTAL     ACCESS:  396664804  HIT:  381959301  MISS:   14705503
cpu0_L1D LOAD      ACCESS:  360828481  HIT:  349494329  MISS:   11334152
cpu0_L1D RFO       ACCESS:   35697710  HIT:   32344271  MISS:    3353439
cpu0_L1D PREFETCH  ACCESS:          0  HIT:          0  MISS:          0
cpu0_L1D WRITEBACK ACCESS:          0  HIT:          0  MISS:          0
cpu0_L1D TRANSLATION ACCESS:     138613  HIT:     120701  MISS:      17912
cpu0_L1D PREFETCH  REQUESTED:          0  ISSUED:          0  USEFUL:          0  USELESS:          0
cpu0_L1D AVERAGE MISS LATENCY: 229.183 cycles
cpu0_L2C TOTAL     ACCESS:   19136435  HIT:    3952826  MISS:   15183609
cpu0_L2C LOAD      ACCESS:   11335354  HIT:     718193  MISS:   10617161
cpu0_L2C RFO       ACCESS:    3353365  HIT:     454525  MISS:    2898840
cpu0_L2C PREFETCH  ACCESS:          0  HIT:          0  MISS:          0
cpu0_L2C WRITEBACK ACCESS:    4429804  HIT:    2775840  MISS:    1653964
cpu0_L2C TRANSLATION ACCESS:      17912  HIT:       4268  MISS:      13644
cpu0_L2C PREFETCH  REQUESTED:          0  ISSUED:          0  USEFUL:          0  USELESS:          0
cpu0_L2C AVERAGE MISS LATENCY: 211.323 cycles
LLC TOTAL     ACCESS:   17575457  HIT:    7491644  MISS:   10083813
LLC LOAD      ACCESS:   10616744  HIT:    2816245  MISS:    7800499
LLC RFO       ACCESS:    2898720  HIT:     618060  MISS:    2280660
LLC PREFETCH  ACCESS:          0  HIT:          0  MISS:          0
LLC WRITEBACK ACCESS:    4046349  HIT:    4043831  MISS:       2518
LLC TRANSLATION ACCESS:      13644  HIT:      13508  MISS:        136
LLC PREFETCH  REQUESTED:          0  ISSUED:          0  USEFUL:          0  USELESS:          0
LLC AVERAGE MISS LATENCY: 290.022 cycles
~~~~~~~~~~Reuse Distance Profiler output~~~~~~~~~~
0	11438416	7704016
1	14533200	11091664
2	22521712	18546064
3	26199056	24460944
4	26545376	25756432
5	25303408	24639072
6	25231856	24538864
7	22653392	21944432
8	16705408	16071856
9	13644336	13073600
10	13724048	13160608
11	11184048	10665264
12	9136144	8250096
13	7840768	6735312
14	7396944	6454576
15	8023392	7060784
16	6100576	5273936
17	6429312	5726016
18	5718112	5061648
19	5911120	5379376
20	5562416	5140048
21	4592128	4169728
22	4856064	4445120
23	3918816	3645280
24	4761536	4474016
25	3715984	3466944
26	4053280	3811552
27	3038384	2855856
28	2747072	2594752
29	3538128	3214832
30	2978176	2746976
31	2959856	2731792
32	2297024	2073520
33	2946944	2768304
34	2956480	2725056
35	2575632	2399376
36	2934304	2793040
37	3254560	2993280
38	2393520	2293024
39	1698624	1545008
40	1729792	1607392
41	1610064	1529328
42	1553344	1442928
43	1634224	1532832
44	1330112	1217760
45	1667136	1584480
46	1669600	1603936
47	1591824	1493344
48	1138304	1089344
49	1428112	1334592
50	1109152	1039136
51	1051872	961152
52	1020144	891264
53	1129328	1072064
54	697600	616480
55	956736	910336
56	730224	608144
57	671984	588608
58	474960	368608
59	615392	440064
60	643920	537696
61	578784	513120
62	623504	576032
63	398224	328368
64	786944	727872
66	1007648	846032
68	821360	685168
70	648400	581120
72	739584	711808
74	721776	615360
76	632720	476048
78	300848	280192
80	305520	287232
82	431936	402288
84	344336	302816
86	442560	436640
88	263280	258208
90	319392	313680
92	296736	292992
94	162288	158144
96	119360	116992
98	173056	105184
100	217184	214336
102	108000	106688
104	92592	91360
106	84416	83392
108	85440	84272
110	254768	253696
112	81472	80512
114	79408	78544
116	110528	109344
118	46384	45296
120	32768	31696
122	25312	24384
124	31888	30864
126	54160	53408
128	48000	47136
132	29712	29088
136	34848	32000
140	17280	16752
144	14864	14528
148	12528	12416
152	13632	13552
156	28096	28048
160	28496	28496
164	21104	21104
168	25120	25120
172	12704	12704
176	7600	7600
180	2800	2736
184	3936	2800
188	6400	1792
192	10240	4832
196	9600	5920
200	5328	2368
204	6720	3968
208	2880	1888
212	2688	2560
216	1568	1568
220	1040	1040
224	496	480
228	800	800
232	784	784
236	672	672
240	1056	1056
244	560	560
248	960	960
252	912	912
256	1568	1568
264	3552	3552
272	3616	3616
280	4592	4592
288	5456	5456
296	8768	8768
304	11968	11968
312	14928	14880
320	17440	17424
328	20400	20368
336	20448	20336
344	20800	19568
352	21888	19056
360	20784	18864
368	18768	18400
376	19488	18800
384	19616	17920
392	20512	18560
400	20912	19952
408	24624	24560
416	29024	29024
424	31664	31664
432	39536	39536
440	45408	45408
448	41184	41184
456	48816	48816
464	48976	48976
472	53600	53600
480	51952	51952
488	52720	52720
496	53584	53584
504	57232	57232
512	114080	114064
528	119488	119360
544	124432	121136
560	88992	87936
576	79536	79328
592	83568	82240
608	102480	100624
624	97808	96992
640	74560	74544
656	50320	50320
672	32000	32000
688	16736	16704
704	14848	14800
720	22656	22592
736	37056	36336
752	46224	45312
768	49040	48560
784	68448	67952
800	47184	46176
816	47664	47120
832	44736	44736
848	37040	37024
864	30368	30304
880	20736	20608
896	16544	16288
912	13968	13600
928	12592	12160
944	11056	10272
960	9024	8384
976	9360	8528
992	9216	8544
1008	8432	7600
1024	20704	19232
1056	13008	11792
1088	8096	7360
1120	7536	7536
1152	5200	5200
1184	6720	6704
1216	4432	4432
1248	149856	149664
1280	526800	525440
1312	24128	23344
1344	61952	60336
1376	25568	24800
1408	13040	11024
1440	13488	11616
1472	11664	10800
1504	7792	6528
1536	6848	5936
1568	5952	5008
1600	7376	6816
1632	9472	7888
1664	6720	6656
1696	6176	5264
1728	4768	3536
1760	4912	4912
1792	3888	3872
1824	2784	2448
1856	3424	2832
1888	7200	5136
1920	11216	9872
1952	14304	13584
1984	14448	13200
2016	17024	15008
2048	22288	20576
2112	7568	6160
2176	7792	6288
2240	10672	10064
2304	12592	10080
2368	19872	18576
2432	11056	8032
2496	9440	8368
2560	14304	10928
2624	19040	17472
2688	27376	25216
2752	15696	15696
2816	9872	9136
2880	12992	8816
2944	12480	10016
3008	21168	18336
3072	26848	16928
3136	31664	7616
3200	45200	16080
3264	43776	16688
3328	67136	39920
3392	50272	21952
3456	44288	12224
3520	39424	14608
3584	16704	10096
3648	22848	22672
3712	36416	35072
3776	29392	26720
3840	14528	14528
3904	14640	14640
3968	25600	25472
4032	31904	27744
4096	49344	49200
4224	47856	46752
4352	94752	92128
4480	93952	89968
4608	77632	74048
4736	80320	80320
4864	78640	73408
4992	93584	88816
5120	98592	91408
5248	105920	100064
5376	102384	97664
5504	74064	68032
5632	79536	74656
5760	62368	56944
5888	47104	43360
6016	36784	36768
6144	31760	31280
6272	26272	20240
6400	37184	25120
6528	47376	31424
6656	42800	30592
6784	40448	27632
6912	42576	29280
7040	34256	20784
7168	17744	6400
7296	15232	4560
7424	14576	5168
7552	30576	20368
7680	79648	69088
7808	82512	72288
7936	68704	59584
8064	65360	55488
8192	127120	106208
8448	125600	107088
8704	127824	111520
8960	111872	103248
9216	55824	53456
9472	25936	25600
9728	36240	28288
9984	95200	43344
10240	115328	38688
10496	116960	53904
10752	126368	64144
11008	168400	103968
11264	154128	92752
11520	130704	86800
11776	101680	74160
12032	89600	68432
12288	81552	72336
12544	91920	89264
12800	76816	76368
13056	53168	52480
13312	61024	45744
13568	98496	60352
13824	137568	83328
14080	128288	70816
14336	136368	75648
14592	140048	74976
14848	129296	66576
15104	110144	56352
15360	70976	44656
15616	60784	40912
15872	54672	36160
16128	61280	40512
16384	194000	69888
16896	115152	68624
17408	92832	45072
17920	87632	36960
18432	64928	17776
18944	197408	137728
19456	515360	362112
19968	238976	150560
20480	30864	14368
20992	18528	9072
21504	9744	880
22016	7168	336
22528	9840	4736
23040	53120	38224
23552	288096	216560
24064	7232	1536
24576	21040	8208
25088	4208	1088
25600	1312	32
26112	5312	3840
26624	4448	2592
27136	2800	1424
27648	4480	2768
28160	5072	1904
28672	4256	368
29184	2208	448
29696	3376	2624
30208	70624	51232
30720	4944	4944
31232	8320	8320
31744	7184	7184
32256	6848	6848
32768	14240	14240
33792	1024	1024
34816	16	0
35840	1616	576
36864	3904	1168
37888	3440	1840
38912	3600	1488
39936	2144	2144
40960	3984	3984
41984	3728	3728
43008	2208	2208
44032	624	512
45056	2976	768
46080	3184	1312
47104	88896	85232
48128	1664	1632
49152	4688	1296
50176	976	960
51200	1280	320
52224	2480	0
53248	2928	64
54272	2688	608
55296	6016	1104
56320	5456	1056
57344	4576	1616
58368	9392	2416
59392	9392	1904
60416	22048	17760
61440	5552	2512
62464	3408	320
63488	3648	608
64512	6896	1344
65536	13392	6544
67584	6048	2768
69632	1376	1216
71680	368	0
73728	2656	464
75776	4944	2480
77824	5840	2864
79872	1008	1008
81920	2048	240
83968	3584	1840
86016	10112	6720
88064	5904	2096
90112	1184	784
92160	96	96
94208	5360	1648
96256	6704	2944
98304	2384	2384
100352	464	432
102400	4256	608
104448	9728	5888
106496	5712	3040
108544	2416	1296
110592	352	256
112640	3120	544
114688	4128	2320
116736	5344	2816
118784	1312	1296
120832	1744	304
122880	4592	2288
124928	9728	6096
126976	6496	2576
129024	1072	688
131072	5312	1728
135168	8496	5152
139264	4848	864
143360	15216	9216
147456	3568	2048
151552	7232	2704
155648	9424	7248
159744	21824	17776
163840	30816	23712
167936	508752	508384
172032	12064	4576
176128	3424	3184
180224	13232	6096
184320	9744	5920
188416	3168	848
192512	9760	5248
196608	2368	1696
200704	14960	8320
204800	6944	3264
208896	4816	1472
212992	9344	5568
217088	5488	1584
221184	15072	9776
225280	3648	1648
229376	8528	3040
233472	6848	4784
237568	8144	3360
241664	14768	7872
245760	832	608
249856	12256	4608
253952	13936	7072
258048	23104	9520
262144	31376	13312
270336	13504	7056
278528	23312	11760
286720	15200	7120
294912	22896	14736
303104	9264	4176
311296	8080	3664
319488	6000	4704
327680	5184	4032
335872	165536	164144
344064	514848	513728
352256	2976	1664
360448	3248	1088
368640	5632	1488
376832	2960	976
385024	1520	832
393216	2656	1232
401408	1280	880
409600	2304	1440
417792	1968	816
425984	1760	1216
434176	1808	656
442368	1424	800
450560	2560	1136
458752	1312	672
466944	2272	1520
475136	2000	880
483328	1904	1168
491520	1936	752
499712	1408	944
507904	2512	1248
516096	1648	992
524288	4272	2160
540672	3904	2224
557056	4400	2528
573440	3952	2368
589824	4240	2336
606208	3552	1984
622592	4240	2256
638976	4256	2384
655360	4192	2416
671744	3552	2096
688128	4592	2560
704512	4608	2736
720896	3856	1968
737280	3504	1872
753664	3920	2384
770048	4240	2464
786432	3984	2480
802816	3872	2352
819200	3408	1904
835584	3632	1808
851968	3632	2000
868352	4384	2512
884736	4320	2416
901120	4192	2496
917504	4112	2208
933888	4016	2064
950272	4160	2352
966656	4096	2224
983040	3808	2224
999424	3664	2160
1015808	3760	2224
1032192	4352	2624
1048576	8064	4816
1081344	7584	3872
1114112	7344	4160
1146880	7888	4320
1179648	7808	4080
1212416	8544	5104
1245184	8304	5008
1277952	8400	4976
1310720	7312	3824
1343488	7040	4448
1376256	8064	4176
1409024	17568	13552
1441792	44064	40576
1474560	33280	29776
1507328	14784	11136
1540096	14736	11024
1572864	14496	10976
1605632	14784	10800
1638400	13232	9792
1671168	13952	10928
1703936	112816	109808
1736704	38960	35104
1769472	19792	16480
1802240	7952	5280
1835008	76752	73424
1867776	8192	5008
1900544	8768	5264
1933312	9264	6240
1966080	9888	6032
1998848	9104	5360
2031616	9072	5488
2064384	8544	5504
2097152	18480	11024
2162688	16400	9824
2228224	18496	11360
2293760	19696	11696
2359296	16224	10064
2424832	13152	8416
2490368	9632	6544
2555904	7680	5328
2621440	6352	5088
2686976	565856	565504
2752512	248368	247936
2818048	257904	257360
2883584	6128	5632
2949120	5616	5216
3014656	6064	5680
3080192	5984	5424
3145728	6096	5200
3211264	5968	5408
3276800	5360	4896
3342336	5872	5216
3407872	5632	4928
3473408	5568	4800
3538944	6720	6240
3604480	47632	47264
3670016	47296	46736
3735552	4944	4752
3801088	4512	4080
3866624	4432	4000
3932160	3888	3600
3997696	4912	4464
4063232	4384	3904
4128768	3776	3568
4194304	40272	39616
4325376	9472	8784
4456448	7776	7040
4587520	8976	8288
4718592	8784	8096
4849664	8832	8080
4980736	10368	9504
5111808	8864	8176
5242880	8768	8480
5373952	10400	9856
5505024	10032	8928
5636096	12208	11120
5767168	10848	10048
5898240	10720	9312
6029312	13088	11824
6160384	11104	9920
6291456	12688	11392
6422528	11632	10640
6553600	10896	9488
6684672	13088	12128
6815744	11104	10032
6946816	12048	10912
7077888	13712	12656
7208960	19824	18400
7340032	20320	19184
7471104	18976	17808
7602176	18880	18032
7733248	20064	19136
7864320	18816	18032
7995392	21264	19680
8126464	27216	25776
8257536	28256	26944
8388608	61152	57872
8650752	66224	62976
8912896	69920	66400
9175040	68384	64720
9437184	72112	68464
9699328	74624	71312
9961472	68784	65824
10223616	50432	48000
10485760	55232	51904
10747904	54832	50544
11010048	55728	51872
11272192	55936	51408
11534336	56592	52608
11796480	64224	59872
12058624	61456	57200
12320768	58000	53728
12582912	40272	36736
12845056	64208	62048
13107200	35376	30912
13369344	37040	32976
13631488	41008	36288
13893632	45920	41616
14155776	51216	46608
14417920	48768	43216
14680064	37712	31664
14942208	33552	27008
15204352	26480	21616
15466496	22736	18384
15728640	22368	16320
15990784	22832	15424
16252928	25488	17200
16515072	24960	14656
16777216	44304	27232
17301504	49456	31328
17825792	45856	27232
18350080	49920	28384
18874368	43632	23088
19398656	39296	20800
19922944	45024	24592
20447232	39696	22272
20971520	43088	25328
21495808	39136	20720
22020096	41728	24176
22544384	38272	23264
23068672	35712	22544
23592960	36464	21200
24117248	39552	24544
24641536	37216	22064
25165824	35680	20800
25690112	35248	21248
26214400	37216	21824
26738688	39952	23712
27262976	35632	19216
27787264	39136	21216
28311552	35872	20784
28835840	39232	23120
29360128	36224	19440
29884416	36736	20720
30408704	35632	19600
30932992	39200	23056
31457280	37824	20016
31981568	38592	20656
32505856	44960	23376
33030144	39888	19792
33554432	85296	41808
34603008	88880	47168
35651584	77952	44464
36700160	84944	45968
37748736	81904	47456
38797312	79744	43152
39845888	71728	35440
40894464	65440	33696
41943040	60112	27568
42991616	58032	25376
44040192	54992	26448
45088768	53792	25776
46137344	49328	24880
47185920	48944	25264
48234496	44288	22864
49283072	44720	21680
50331648	41216	22048
51380224	39952	18144
52428800	40448	17824
53477376	37328	17248
54525952	35936	15200
55574528	33760	15328
56623104	28816	14288
57671680	32176	14544
58720256	36144	18256
59768832	40512	19824
60817408	31120	20224
61865984	38176	23408
62914560	41056	23424
63963136	48800	27520
65011712	43024	28208
66060288	37600	28016
67108864	376544	295392
69206016	430368	413376
71303168	482816	432896
73400320	356592	333520
75497472	73424	59856
77594624	35328	26944
79691776	21344	19616
81788928	19008	18096
83886080	17488	16688
85983232	15808	15248
88080384	13696	13280
90177536	128304	96912
92274688	11648	11504
94371840	9392	9168
96468992	7744	7632
98566144	6592	6528
100663296	5280	4976
102760448	5504	2992
104857600	5952	1440
106954752	4688	688
109051904	1488	768
111149056	1024	784
113246208	800	672
115343360	736	560
117440512	672	560
119537664	640	304
121634816	496	448
123731968	400	304
125829120	1504	256
127926272	2944	160
130023424	96	80
132120576	736	80
134217728	3024	208
138412032	9664	912
142606336	10208	1680
146800640	10928	16
150994944	112	32
155189248	27760	16224
159383552	8080	0
163577856	32	0
167772160	0	0
171966464	384	384
176160768	2272	2272
180355072	2160	2160
184549376	2400	2400
188743680	2176	2176
192937984	2288	2288
197132288	2368	2368
201326592	1888	1888
205520896	2528	2512
209715200	2416	2416
213909504	1520	1504
218103808	4080	16
222298112	16	0
226492416	0	0
230686720	49296	43008
234881024	96	96
239075328	0	0
243269632	0	0
247463936	0	0
251658240	0	0
255852544	0	0
260046848	0	0
264241152	0	0
268435456	0	0
276824064	0	0
285212672	0	0
293601280	0	0
301989888	0	0
310378496	0	0
318767104	0	0
327155712	0	0
335544320	0	0
343932928	0	0
352321536	0	0
360710144	0	0
369098752	0	0
377487360	0	0
385875968	0	0
394264576	0	0
402653184	0	0
411041792	0	0
419430400	0	0
427819008	0	0
436207616	0	0
444596224	0	0
452984832	0	0
461373440	0	0
469762048	0	0
478150656	0	0
486539264	0	0
494927872	0	0
503316480	0	0
511705088	0	0
520093696	0	0
528482304	0	0
536870912	0	0
553648128	0	0
570425344	0	0
587202560	0	0
603979776	0	0
620756992	0	0
637534208	0	0
654311424	0	0
671088640	0	0
687865856	0	0
704643072	0	0
721420288	0	0
738197504	0	0
754974720	0	0
771751936	0	0
788529152	0	0
805306368	0	0
822083584	0	0
838860800	0	0
855638016	0	0
872415232	0	0
889192448	0	0
905969664	0	0
922746880	0	0
939524096	0	0
956301312	0	0
973078528	0	0
989855744	0	0
1006632960	0	0
1023410176	0	0
1040187392	0	0
1056964608	0	0
1073741824	0	0
1107296256	0	0
1140850688	0	0
1174405120	0	0
1207959552	0	0
1241513984	0	0
1275068416	0	0
1308622848	0	0
1342177280	0	0
1375731712	0	0
1409286144	0	0
1442840576	0	0
1476395008	0	0
1509949440	0	0
1543503872	0	0
1577058304	0	0
1610612736	0	0
1644167168	0	0
1677721600	0	0
1711276032	0	0
1744830464	0	0
1778384896	0	0
1811939328	0	0
1845493760	0	0
1879048192	0	0
1912602624	0	0
1946157056	0	0
1979711488	0	0
2013265920	0	0
2046820352	0	0
2080374784	0	0
2113929216	0	0
2147483648	0	0
2214592512	0	0
2281701376	0	0
2348810240	0	0
2415919104	0	0
2483027968	0	0
2550136832	0	0
2617245696	0	0
2684354560	0	0
2751463424	0	0
2818572288	0	0
2885681152	0	0
2952790016	0	0
3019898880	0	0
3087007744	0	0
3154116608	0	0
3221225472	0	0
3288334336	0	0
3355443200	0	0
3422552064	0	0
3489660928	0	0
3556769792	0	0
3623878656	0	0
3690987520	0	0
3758096384	0	0
3825205248	0	0
3892314112	0	0
3959422976	0	0
4026531840	0	0
4093640704	0	0
4160749568	0	0
4227858432	0	0
~~~~~~~~~~Reuse Distance Profiler output end~~~~~~~~~~

Sampler size:76682

DRAM Statistics
 CHANNEL 0
 RQ ROW_BUFFER_HIT:     416438  ROW_BUFFER_MISS:    9661813
 DBUS AVG_CONGESTED_CYCLE:    3.95411
 WQ ROW_BUFFER_HIT:     443708  ROW_BUFFER_MISS:    2607521  FULL:          0


CPU 0 Branch Prediction Accuracy: 98.2818% MPKI: 0.430807 Average ROB Occupancy at Mispredict: 313.307
Branch type MPKI
BRANCH_DIRECT_JUMP: 8.8e-05
BRANCH_INDIRECT: 1.66667e-05
BRANCH_CONDITIONAL: 0.430431
BRANCH_DIRECT_CALL: 0.000136667
BRANCH_INDIRECT_CALL: 5.33333e-06
BRANCH_RETURN: 0.000128667

