
*** ChampSim Multicore Out-of-Order Simulator ***

Warmup Instructions: 50000000
Simulation Instructions: 1500000000
Number of CPUs: 1
Off-chip DRAM Size: 4 GiB Channels: 1 Width: 64-bit Data Rate: 3200 MT/s

VirtualMemory physical capacity: 8588881920 num_ppages: 2096895
VirtualMemory page size: 4096 log2_page_size: 12

CPU 0 runs /s/traces/champsim_traces/447.dealII-3B.champsimtrace.xz
CPU 0 Bimodal branch predictor
Basic BTB sets: 1024 ways: 8 indirect buffer size: 4096 RAS size: 64
Initializing LRU.
Initializing LRU.
Initializing LRU.
Initializing LRU.
Initializing rdLRU.
Initializing LRU.
Initializing LRU.
Heartbeat CPU 0 instructions: 2000000 cycles: 596082 heartbeat IPC: 3.35524 cumulative IPC: 3.35524 (Simulation time: 0 hr 1 min 0 sec) 
Heartbeat CPU 0 instructions: 4000001 cycles: 1188214 heartbeat IPC: 3.37763 cumulative IPC: 3.3664 (Simulation time: 0 hr 2 min 29 sec) 
Heartbeat CPU 0 instructions: 6000002 cycles: 1757263 heartbeat IPC: 3.51464 cumulative IPC: 3.4144 (Simulation time: 0 hr 3 min 52 sec) 
Heartbeat CPU 0 instructions: 8000000 cycles: 2372400 heartbeat IPC: 3.25131 cumulative IPC: 3.37211 (Simulation time: 0 hr 5 min 19 sec) 
Heartbeat CPU 0 instructions: 10000004 cycles: 2956960 heartbeat IPC: 3.42138 cumulative IPC: 3.38185 (Simulation time: 0 hr 6 min 44 sec) 
Heartbeat CPU 0 instructions: 12000002 cycles: 3559436 heartbeat IPC: 3.31963 cumulative IPC: 3.37132 (Simulation time: 0 hr 8 min 15 sec) 
Heartbeat CPU 0 instructions: 14000004 cycles: 4140978 heartbeat IPC: 3.43914 cumulative IPC: 3.38084 (Simulation time: 0 hr 9 min 47 sec) 
Heartbeat CPU 0 instructions: 16000001 cycles: 4732961 heartbeat IPC: 3.37847 cumulative IPC: 3.38055 (Simulation time: 0 hr 11 min 20 sec) 
Heartbeat CPU 0 instructions: 18000002 cycles: 5314248 heartbeat IPC: 3.44064 cumulative IPC: 3.38712 (Simulation time: 0 hr 12 min 50 sec) 
Heartbeat CPU 0 instructions: 20000002 cycles: 5909422 heartbeat IPC: 3.36036 cumulative IPC: 3.38443 (Simulation time: 0 hr 14 min 22 sec) 
Heartbeat CPU 0 instructions: 22000000 cycles: 6501428 heartbeat IPC: 3.37834 cumulative IPC: 3.38387 (Simulation time: 0 hr 15 min 54 sec) 
Heartbeat CPU 0 instructions: 24000001 cycles: 7070351 heartbeat IPC: 3.51542 cumulative IPC: 3.39446 (Simulation time: 0 hr 17 min 22 sec) 
Heartbeat CPU 0 instructions: 26000004 cycles: 7674011 heartbeat IPC: 3.31313 cumulative IPC: 3.38806 (Simulation time: 0 hr 18 min 55 sec) 
Heartbeat CPU 0 instructions: 28000002 cycles: 8330780 heartbeat IPC: 3.04521 cumulative IPC: 3.36103 (Simulation time: 0 hr 20 min 28 sec) 
Heartbeat CPU 0 instructions: 30000002 cycles: 8982989 heartbeat IPC: 3.0665 cumulative IPC: 3.33965 (Simulation time: 0 hr 22 min 8 sec) 
Heartbeat CPU 0 instructions: 32000003 cycles: 9635723 heartbeat IPC: 3.06404 cumulative IPC: 3.32098 (Simulation time: 0 hr 23 min 46 sec) 
Heartbeat CPU 0 instructions: 34000001 cycles: 10293459 heartbeat IPC: 3.04073 cumulative IPC: 3.30307 (Simulation time: 0 hr 25 min 27 sec) 
Heartbeat CPU 0 instructions: 36000002 cycles: 10950366 heartbeat IPC: 3.04457 cumulative IPC: 3.28756 (Simulation time: 0 hr 27 min 4 sec) 
Heartbeat CPU 0 instructions: 38000000 cycles: 11602641 heartbeat IPC: 3.06619 cumulative IPC: 3.27512 (Simulation time: 0 hr 28 min 37 sec) 
Heartbeat CPU 0 instructions: 40000001 cycles: 12254968 heartbeat IPC: 3.06595 cumulative IPC: 3.26398 (Simulation time: 0 hr 30 min 8 sec) 
Heartbeat CPU 0 instructions: 42000004 cycles: 12857584 heartbeat IPC: 3.31887 cumulative IPC: 3.26655 (Simulation time: 0 hr 31 min 40 sec) 
Heartbeat CPU 0 instructions: 44000000 cycles: 13454495 heartbeat IPC: 3.35058 cumulative IPC: 3.27028 (Simulation time: 0 hr 33 min 12 sec) 
Heartbeat CPU 0 instructions: 46000003 cycles: 14023477 heartbeat IPC: 3.51505 cumulative IPC: 3.28021 (Simulation time: 0 hr 34 min 42 sec) 
Heartbeat CPU 0 instructions: 48000004 cycles: 14615608 heartbeat IPC: 3.37763 cumulative IPC: 3.28416 (Simulation time: 0 hr 36 min 10 sec) 
Heartbeat CPU 0 instructions: 50000004 cycles: 15200112 heartbeat IPC: 3.4217 cumulative IPC: 3.28945 (Simulation time: 0 hr 37 min 42 sec) 

Warmup complete CPU 0 instructions: 50000004 cycles: 15200112 (Simulation time: 0 hr 37 min 42 sec) 

Heartbeat CPU 0 instructions: 52000000 cycles: 17606766 heartbeat IPC: 0.831028 cumulative IPC: 0.831028 (Simulation time: 0 hr 39 min 2 sec) 

Region of Interest Statistics
cpu0_DTLB TOTAL     ACCESS:     658141  HIT:     658033  MISS:        108
cpu0_DTLB LOAD      ACCESS:     499634  HIT:     499532  MISS:        102
cpu0_DTLB RFO       ACCESS:     158507  HIT:     158501  MISS:          6
cpu0_DTLB PREFETCH  ACCESS:          0  HIT:          0  MISS:          0
cpu0_DTLB WRITEBACK ACCESS:          0  HIT:          0  MISS:          0
cpu0_ITLB TOTAL     ACCESS:     257673  HIT:     257661  MISS:         12
cpu0_ITLB LOAD      ACCESS:     257673  HIT:     257661  MISS:         12
cpu0_ITLB RFO       ACCESS:          0  HIT:          0  MISS:          0
cpu0_ITLB PREFETCH  ACCESS:          0  HIT:          0  MISS:          0
cpu0_ITLB WRITEBACK ACCESS:          0  HIT:          0  MISS:          0
cpu0_L1I TOTAL     ACCESS:      26568  HIT:      26537  MISS:         31
cpu0_L1I LOAD      ACCESS:      26568  HIT:      26537  MISS:         31
cpu0_L1I RFO       ACCESS:          0  HIT:          0  MISS:          0
cpu0_L1I PREFETCH  ACCESS:          0  HIT:          0  MISS:          0
cpu0_L1I WRITEBACK ACCESS:          0  HIT:          0  MISS:          0
cpu0_STLB TOTAL     ACCESS:        120  HIT:        120  MISS:          0
cpu0_STLB LOAD      ACCESS:        114  HIT:        114  MISS:          0
cpu0_STLB RFO       ACCESS:          6  HIT:          6  MISS:          0
cpu0_STLB PREFETCH  ACCESS:          0  HIT:          0  MISS:          0
cpu0_STLB WRITEBACK ACCESS:          0  HIT:          0  MISS:          0
cpu0_L1D TOTAL     ACCESS:     880187  HIT:     876685  MISS:       3502
cpu0_L1D LOAD      ACCESS:     602707  HIT:     599404  MISS:       3303
cpu0_L1D RFO       ACCESS:     277480  HIT:     277281  MISS:        199
cpu0_L1D PREFETCH  ACCESS:          0  HIT:          0  MISS:          0
cpu0_L1D WRITEBACK ACCESS:          0  HIT:          0  MISS:          0
cpu0_L2C TOTAL     ACCESS:       3866  HIT:        321  MISS:       3545
cpu0_L2C LOAD      ACCESS:       3334  HIT:         62  MISS:       3272
cpu0_L2C RFO       ACCESS:        199  HIT:         16  MISS:        183
cpu0_L2C PREFETCH  ACCESS:          0  HIT:          0  MISS:          0
cpu0_L2C WRITEBACK ACCESS:        333  HIT:        243  MISS:         90
LLC TOTAL     ACCESS:       3799  HIT:       3787  MISS:         12
LLC LOAD      ACCESS:       3272  HIT:       3260  MISS:         12
LLC RFO       ACCESS:        183  HIT:        183  MISS:          0
LLC PREFETCH  ACCESS:          0  HIT:          0  MISS:          0
LLC WRITEBACK ACCESS:        344  HIT:        344  MISS:          0
Heartbeat CPU 0 instructions: 54000002 cycles: 19544887 heartbeat IPC: 1.03193 cumulative IPC: 0.920646 (Simulation time: 0 hr 40 min 24 sec) 

Region of Interest Statistics
cpu0_DTLB TOTAL     ACCESS:    1243671  HIT:    1243368  MISS:        303
cpu0_DTLB LOAD      ACCESS:     947639  HIT:     947356  MISS:        283
cpu0_DTLB RFO       ACCESS:     296032  HIT:     296012  MISS:         20
cpu0_DTLB PREFETCH  ACCESS:          0  HIT:          0  MISS:          0
cpu0_DTLB WRITEBACK ACCESS:          0  HIT:          0  MISS:          0
cpu0_ITLB TOTAL     ACCESS:     470605  HIT:     470549  MISS:         56
cpu0_ITLB LOAD      ACCESS:     470605  HIT:     470549  MISS:         56
cpu0_ITLB RFO       ACCESS:          0  HIT:          0  MISS:          0
cpu0_ITLB PREFETCH  ACCESS:          0  HIT:          0  MISS:          0
cpu0_ITLB WRITEBACK ACCESS:          0  HIT:          0  MISS:          0
cpu0_L1I TOTAL     ACCESS:     106200  HIT:     106135  MISS:         65
cpu0_L1I LOAD      ACCESS:     106200  HIT:     106135  MISS:         65
cpu0_L1I RFO       ACCESS:          0  HIT:          0  MISS:          0
cpu0_L1I PREFETCH  ACCESS:          0  HIT:          0  MISS:          0
cpu0_L1I WRITEBACK ACCESS:          0  HIT:          0  MISS:          0
cpu0_STLB TOTAL     ACCESS:        359  HIT:        359  MISS:          0
cpu0_STLB LOAD      ACCESS:        339  HIT:        339  MISS:          0
cpu0_STLB RFO       ACCESS:         20  HIT:         20  MISS:          0
cpu0_STLB PREFETCH  ACCESS:          0  HIT:          0  MISS:          0
cpu0_STLB WRITEBACK ACCESS:          0  HIT:          0  MISS:          0
cpu0_L1D TOTAL     ACCESS:    1666542  HIT:    1660195  MISS:       6347
cpu0_L1D LOAD      ACCESS:    1156779  HIT:    1150937  MISS:       5842
cpu0_L1D RFO       ACCESS:     509763  HIT:     509258  MISS:        505
cpu0_L1D PREFETCH  ACCESS:          0  HIT:          0  MISS:          0
cpu0_L1D WRITEBACK ACCESS:          0  HIT:          0  MISS:          0
cpu0_L2C TOTAL     ACCESS:       7209  HIT:        879  MISS:       6330
cpu0_L2C LOAD      ACCESS:       5907  HIT:        290  MISS:       5617
cpu0_L2C RFO       ACCESS:        505  HIT:         74  MISS:        431
cpu0_L2C PREFETCH  ACCESS:          0  HIT:          0  MISS:          0
cpu0_L2C WRITEBACK ACCESS:        797  HIT:        515  MISS:        282
LLC TOTAL     ACCESS:       6791  HIT:       6736  MISS:         55
LLC LOAD      ACCESS:       5617  HIT:       5562  MISS:         55
LLC RFO       ACCESS:        431  HIT:        431  MISS:          0
LLC PREFETCH  ACCESS:          0  HIT:          0  MISS:          0
LLC WRITEBACK ACCESS:        743  HIT:        743  MISS:          0
Heartbeat CPU 0 instructions: 56000002 cycles: 21802250 heartbeat IPC: 0.88599 cumulative IPC: 0.908796 (Simulation time: 0 hr 41 min 51 sec) 

Region of Interest Statistics
cpu0_DTLB TOTAL     ACCESS:    1863158  HIT:    1862666  MISS:        492
cpu0_DTLB LOAD      ACCESS:    1417977  HIT:    1417518  MISS:        459
cpu0_DTLB RFO       ACCESS:     445181  HIT:     445148  MISS:         33
cpu0_DTLB PREFETCH  ACCESS:          0  HIT:          0  MISS:          0
cpu0_DTLB WRITEBACK ACCESS:          0  HIT:          0  MISS:          0
cpu0_ITLB TOTAL     ACCESS:     703024  HIT:     702942  MISS:         82
cpu0_ITLB LOAD      ACCESS:     703024  HIT:     702942  MISS:         82
cpu0_ITLB RFO       ACCESS:          0  HIT:          0  MISS:          0
cpu0_ITLB PREFETCH  ACCESS:          0  HIT:          0  MISS:          0
cpu0_ITLB WRITEBACK ACCESS:          0  HIT:          0  MISS:          0
cpu0_L1I TOTAL     ACCESS:     158262  HIT:     157990  MISS:        272
cpu0_L1I LOAD      ACCESS:     158262  HIT:     157990  MISS:        272
cpu0_L1I RFO       ACCESS:          0  HIT:          0  MISS:          0
cpu0_L1I PREFETCH  ACCESS:          0  HIT:          0  MISS:          0
cpu0_L1I WRITEBACK ACCESS:          0  HIT:          0  MISS:          0
cpu0_STLB TOTAL     ACCESS:        574  HIT:        572  MISS:          2
cpu0_STLB LOAD      ACCESS:        541  HIT:        539  MISS:          2
cpu0_STLB RFO       ACCESS:         33  HIT:         33  MISS:          0
cpu0_STLB PREFETCH  ACCESS:          0  HIT:          0  MISS:          0
cpu0_STLB WRITEBACK ACCESS:          0  HIT:          0  MISS:          0
cpu0_L1D TOTAL     ACCESS:    2499539  HIT:    2488789  MISS:      10750
cpu0_L1D LOAD      ACCESS:    1725778  HIT:    1715925  MISS:       9853
cpu0_L1D RFO       ACCESS:     773759  HIT:     772864  MISS:        895
cpu0_L1D PREFETCH  ACCESS:          0  HIT:          0  MISS:          0
cpu0_L1D WRITEBACK ACCESS:          0  HIT:          0  MISS:          0
cpu0_L2C TOTAL     ACCESS:      12417  HIT:       1362  MISS:      11055
cpu0_L2C LOAD      ACCESS:      10125  HIT:        364  MISS:       9761
cpu0_L2C RFO       ACCESS:        895  HIT:        102  MISS:        793
cpu0_L2C PREFETCH  ACCESS:          0  HIT:          0  MISS:          0
cpu0_L2C WRITEBACK ACCESS:       1395  HIT:        896  MISS:        499
LLC TOTAL     ACCESS:      11731  HIT:      11599  MISS:        132
LLC LOAD      ACCESS:       9761  HIT:       9629  MISS:        132
LLC RFO       ACCESS:        793  HIT:        793  MISS:          0
LLC PREFETCH  ACCESS:          0  HIT:          0  MISS:          0
LLC WRITEBACK ACCESS:       1175  HIT:       1175  MISS:          0
Heartbeat CPU 0 instructions: 58000001 cycles: 24211220 heartbeat IPC: 0.83023 cumulative IPC: 0.887793 (Simulation time: 0 hr 43 min 12 sec) 

Region of Interest Statistics
cpu0_DTLB TOTAL     ACCESS:    2520347  HIT:    2519748  MISS:        599
cpu0_DTLB LOAD      ACCESS:    1916844  HIT:    1916284  MISS:        560
cpu0_DTLB RFO       ACCESS:     603503  HIT:     603464  MISS:         39
cpu0_DTLB PREFETCH  ACCESS:          0  HIT:          0  MISS:          0
cpu0_DTLB WRITEBACK ACCESS:          0  HIT:          0  MISS:          0
cpu0_ITLB TOTAL     ACCESS:     959919  HIT:     959825  MISS:         94
cpu0_ITLB LOAD      ACCESS:     959919  HIT:     959825  MISS:         94
cpu0_ITLB RFO       ACCESS:          0  HIT:          0  MISS:          0
cpu0_ITLB PREFETCH  ACCESS:          0  HIT:          0  MISS:          0
cpu0_ITLB WRITEBACK ACCESS:          0  HIT:          0  MISS:          0
cpu0_L1I TOTAL     ACCESS:     186130  HIT:     185825  MISS:        305
cpu0_L1I LOAD      ACCESS:     186130  HIT:     185825  MISS:        305
cpu0_L1I RFO       ACCESS:          0  HIT:          0  MISS:          0
cpu0_L1I PREFETCH  ACCESS:          0  HIT:          0  MISS:          0
cpu0_L1I WRITEBACK ACCESS:          0  HIT:          0  MISS:          0
cpu0_STLB TOTAL     ACCESS:        693  HIT:        691  MISS:          2
cpu0_STLB LOAD      ACCESS:        654  HIT:        652  MISS:          2
cpu0_STLB RFO       ACCESS:         39  HIT:         39  MISS:          0
cpu0_STLB PREFETCH  ACCESS:          0  HIT:          0  MISS:          0
cpu0_STLB WRITEBACK ACCESS:          0  HIT:          0  MISS:          0
cpu0_L1D TOTAL     ACCESS:    3379362  HIT:    3365068  MISS:      14294
cpu0_L1D LOAD      ACCESS:    2327913  HIT:    2314711  MISS:      13202
cpu0_L1D RFO       ACCESS:    1051447  HIT:    1050357  MISS:       1090
cpu0_L1D PREFETCH  ACCESS:          0  HIT:          0  MISS:          0
cpu0_L1D WRITEBACK ACCESS:          0  HIT:          0  MISS:          0
cpu0_L2C TOTAL     ACCESS:      16323  HIT:       1664  MISS:      14659
cpu0_L2C LOAD      ACCESS:      13507  HIT:        426  MISS:      13081
cpu0_L2C RFO       ACCESS:       1090  HIT:        116  MISS:        974
cpu0_L2C PREFETCH  ACCESS:          0  HIT:          0  MISS:          0
cpu0_L2C WRITEBACK ACCESS:       1724  HIT:       1122  MISS:        602
LLC TOTAL     ACCESS:      15669  HIT:      15528  MISS:        141
LLC LOAD      ACCESS:      13081  HIT:      12940  MISS:        141
LLC RFO       ACCESS:        974  HIT:        974  MISS:          0
LLC PREFETCH  ACCESS:          0  HIT:          0  MISS:          0
LLC WRITEBACK ACCESS:       1612  HIT:       1612  MISS:          0
Heartbeat CPU 0 instructions: 60000004 cycles: 26142058 heartbeat IPC: 1.03582 cumulative IPC: 0.913914 (Simulation time: 0 hr 44 min 39 sec) 

Region of Interest Statistics
cpu0_DTLB TOTAL     ACCESS:    3105822  HIT:    3105010  MISS:        812
cpu0_DTLB LOAD      ACCESS:    2364844  HIT:    2364085  MISS:        759
cpu0_DTLB RFO       ACCESS:     740978  HIT:     740925  MISS:         53
cpu0_DTLB PREFETCH  ACCESS:          0  HIT:          0  MISS:          0
cpu0_DTLB WRITEBACK ACCESS:          0  HIT:          0  MISS:          0
cpu0_ITLB TOTAL     ACCESS:    1172608  HIT:    1172469  MISS:        139
cpu0_ITLB LOAD      ACCESS:    1172608  HIT:    1172469  MISS:        139
cpu0_ITLB RFO       ACCESS:          0  HIT:          0  MISS:          0
cpu0_ITLB PREFETCH  ACCESS:          0  HIT:          0  MISS:          0
cpu0_ITLB WRITEBACK ACCESS:          0  HIT:          0  MISS:          0
cpu0_L1I TOTAL     ACCESS:     266074  HIT:     265692  MISS:        382
cpu0_L1I LOAD      ACCESS:     266074  HIT:     265692  MISS:        382
cpu0_L1I RFO       ACCESS:          0  HIT:          0  MISS:          0
cpu0_L1I PREFETCH  ACCESS:          0  HIT:          0  MISS:          0
cpu0_L1I WRITEBACK ACCESS:          0  HIT:          0  MISS:          0
cpu0_STLB TOTAL     ACCESS:        951  HIT:        949  MISS:          2
cpu0_STLB LOAD      ACCESS:        898  HIT:        896  MISS:          2
cpu0_STLB RFO       ACCESS:         53  HIT:         53  MISS:          0
cpu0_STLB PREFETCH  ACCESS:          0  HIT:          0  MISS:          0
cpu0_STLB WRITEBACK ACCESS:          0  HIT:          0  MISS:          0
cpu0_L1D TOTAL     ACCESS:    4165723  HIT:    4148583  MISS:      17140
cpu0_L1D LOAD      ACCESS:    2881971  HIT:    2866224  MISS:      15747
cpu0_L1D RFO       ACCESS:    1283750  HIT:    1282359  MISS:       1391
cpu0_L1D PREFETCH  ACCESS:          0  HIT:          0  MISS:          0
cpu0_L1D WRITEBACK ACCESS:          0  HIT:          0  MISS:          0
cpu0_L2C TOTAL     ACCESS:      19703  HIT:       2187  MISS:      17516
cpu0_L2C LOAD      ACCESS:      16129  HIT:        653  MISS:      15476
cpu0_L2C RFO       ACCESS:       1391  HIT:        171  MISS:       1220
cpu0_L2C PREFETCH  ACCESS:          0  HIT:          0  MISS:          0
cpu0_L2C WRITEBACK ACCESS:       2181  HIT:       1363  MISS:        818
LLC TOTAL     ACCESS:      18640  HIT:      18476  MISS:        164
LLC LOAD      ACCESS:      15476  HIT:      15312  MISS:        164
LLC RFO       ACCESS:       1220  HIT:       1220  MISS:          0
LLC PREFETCH  ACCESS:          0  HIT:          0  MISS:          0
LLC WRITEBACK ACCESS:       1942  HIT:       1942  MISS:          0
Heartbeat CPU 0 instructions: 62000003 cycles: 28521424 heartbeat IPC: 0.84056 cumulative IPC: 0.900812 (Simulation time: 0 hr 45 min 55 sec) 

Region of Interest Statistics
cpu0_DTLB TOTAL     ACCESS:    3757525  HIT:    3756591  MISS:        934
cpu0_DTLB LOAD      ACCESS:    2859420  HIT:    2858549  MISS:        871
cpu0_DTLB RFO       ACCESS:     898105  HIT:     898042  MISS:         63
cpu0_DTLB PREFETCH  ACCESS:          0  HIT:          0  MISS:          0
cpu0_DTLB WRITEBACK ACCESS:          0  HIT:          0  MISS:          0
cpu0_ITLB TOTAL     ACCESS:    1427316  HIT:    1427160  MISS:        156
cpu0_ITLB LOAD      ACCESS:    1427316  HIT:    1427160  MISS:        156
cpu0_ITLB RFO       ACCESS:          0  HIT:          0  MISS:          0
cpu0_ITLB PREFETCH  ACCESS:          0  HIT:          0  MISS:          0
cpu0_ITLB WRITEBACK ACCESS:          0  HIT:          0  MISS:          0
cpu0_L1I TOTAL     ACCESS:     295954  HIT:     295499  MISS:        455
cpu0_L1I LOAD      ACCESS:     295954  HIT:     295499  MISS:        455
cpu0_L1I RFO       ACCESS:          0  HIT:          0  MISS:          0
cpu0_L1I PREFETCH  ACCESS:          0  HIT:          0  MISS:          0
cpu0_L1I WRITEBACK ACCESS:          0  HIT:          0  MISS:          0
cpu0_STLB TOTAL     ACCESS:       1090  HIT:       1087  MISS:          3
cpu0_STLB LOAD      ACCESS:       1027  HIT:       1024  MISS:          3
cpu0_STLB RFO       ACCESS:         63  HIT:         63  MISS:          0
cpu0_STLB PREFETCH  ACCESS:          0  HIT:          0  MISS:          0
cpu0_STLB WRITEBACK ACCESS:          0  HIT:          0  MISS:          0
cpu0_L1D TOTAL     ACCESS:    5035930  HIT:    5014996  MISS:      20934
cpu0_L1D LOAD      ACCESS:    3478064  HIT:    3458853  MISS:      19211
cpu0_L1D RFO       ACCESS:    1557863  HIT:    1556143  MISS:       1720
cpu0_L1D PREFETCH  ACCESS:          0  HIT:          0  MISS:          0
cpu0_L1D WRITEBACK ACCESS:          0  HIT:          0  MISS:          0
cpu0_L2C TOTAL     ACCESS:      23905  HIT:       2508  MISS:      21397
cpu0_L2C LOAD      ACCESS:      19666  HIT:        731  MISS:      18935
cpu0_L2C RFO       ACCESS:       1720  HIT:        193  MISS:       1527
cpu0_L2C PREFETCH  ACCESS:          0  HIT:          0  MISS:          0
cpu0_L2C WRITEBACK ACCESS:       2516  HIT:       1584  MISS:        932
LLC TOTAL     ACCESS:      22801  HIT:      22600  MISS:        201
LLC LOAD      ACCESS:      18935  HIT:      18734  MISS:        201
LLC RFO       ACCESS:       1527  HIT:       1527  MISS:          0
LLC PREFETCH  ACCESS:          0  HIT:          0  MISS:          0
LLC WRITEBACK ACCESS:       2336  HIT:       2336  MISS:          0
Heartbeat CPU 0 instructions: 64000004 cycles: 30807811 heartbeat IPC: 0.874743 cumulative IPC: 0.896993 (Simulation time: 0 hr 47 min 21 sec) 

Region of Interest Statistics
cpu0_DTLB TOTAL     ACCESS:    4382904  HIT:    4381807  MISS:       1097
cpu0_DTLB LOAD      ACCESS:    3334393  HIT:    3333370  MISS:       1023
cpu0_DTLB RFO       ACCESS:    1048511  HIT:    1048437  MISS:         74
cpu0_DTLB PREFETCH  ACCESS:          0  HIT:          0  MISS:          0
cpu0_DTLB WRITEBACK ACCESS:          0  HIT:          0  MISS:          0
cpu0_ITLB TOTAL     ACCESS:    1662047  HIT:    1661872  MISS:        175
cpu0_ITLB LOAD      ACCESS:    1662047  HIT:    1661872  MISS:        175
cpu0_ITLB RFO       ACCESS:          0  HIT:          0  MISS:          0
cpu0_ITLB PREFETCH  ACCESS:          0  HIT:          0  MISS:          0
cpu0_ITLB WRITEBACK ACCESS:          0  HIT:          0  MISS:          0
cpu0_L1I TOTAL     ACCESS:     345872  HIT:     345351  MISS:        521
cpu0_L1I LOAD      ACCESS:     345872  HIT:     345351  MISS:        521
cpu0_L1I RFO       ACCESS:          0  HIT:          0  MISS:          0
cpu0_L1I PREFETCH  ACCESS:          0  HIT:          0  MISS:          0
cpu0_L1I WRITEBACK ACCESS:          0  HIT:          0  MISS:          0
cpu0_STLB TOTAL     ACCESS:       1272  HIT:       1269  MISS:          3
cpu0_STLB LOAD      ACCESS:       1198  HIT:       1195  MISS:          3
cpu0_STLB RFO       ACCESS:         74  HIT:         74  MISS:          0
cpu0_STLB PREFETCH  ACCESS:          0  HIT:          0  MISS:          0
cpu0_STLB WRITEBACK ACCESS:          0  HIT:          0  MISS:          0
cpu0_L1D TOTAL     ACCESS:    5879141  HIT:    5854067  MISS:      25074
cpu0_L1D LOAD      ACCESS:    4053538  HIT:    4030453  MISS:      23085
cpu0_L1D RFO       ACCESS:    1825600  HIT:    1823614  MISS:       1986
cpu0_L1D PREFETCH  ACCESS:          0  HIT:          0  MISS:          0
cpu0_L1D WRITEBACK ACCESS:          0  HIT:          0  MISS:          0
cpu0_L2C TOTAL     ACCESS:      28712  HIT:       2970  MISS:      25742
cpu0_L2C LOAD      ACCESS:      23606  HIT:        784  MISS:      22822
cpu0_L2C RFO       ACCESS:       1986  HIT:        222  MISS:       1764
cpu0_L2C PREFETCH  ACCESS:          0  HIT:          0  MISS:          0
cpu0_L2C WRITEBACK ACCESS:       3117  HIT:       1964  MISS:       1153
LLC TOTAL     ACCESS:      27439  HIT:      27210  MISS:        229
LLC LOAD      ACCESS:      22822  HIT:      22593  MISS:        229
LLC RFO       ACCESS:       1764  HIT:       1764  MISS:          0
LLC PREFETCH  ACCESS:          0  HIT:          0  MISS:          0
LLC WRITEBACK ACCESS:       2850  HIT:       2850  MISS:          0
Heartbeat CPU 0 instructions: 66000000 cycles: 32664240 heartbeat IPC: 1.07734 cumulative IPC: 0.916163 (Simulation time: 0 hr 48 min 44 sec) 

Region of Interest Statistics
cpu0_DTLB TOTAL     ACCESS:    4970872  HIT:    4969594  MISS:       1278
cpu0_DTLB LOAD      ACCESS:    3786108  HIT:    3784916  MISS:       1192
cpu0_DTLB RFO       ACCESS:    1184764  HIT:    1184678  MISS:         86
cpu0_DTLB PREFETCH  ACCESS:          0  HIT:          0  MISS:          0
cpu0_DTLB WRITEBACK ACCESS:          0  HIT:          0  MISS:          0
cpu0_ITLB TOTAL     ACCESS:    1878333  HIT:    1878108  MISS:        225
cpu0_ITLB LOAD      ACCESS:    1878333  HIT:    1878108  MISS:        225
cpu0_ITLB RFO       ACCESS:          0  HIT:          0  MISS:          0
cpu0_ITLB PREFETCH  ACCESS:          0  HIT:          0  MISS:          0
cpu0_ITLB WRITEBACK ACCESS:          0  HIT:          0  MISS:          0
cpu0_L1I TOTAL     ACCESS:     425806  HIT:     425271  MISS:        535
cpu0_L1I LOAD      ACCESS:     425806  HIT:     425271  MISS:        535
cpu0_L1I RFO       ACCESS:          0  HIT:          0  MISS:          0
cpu0_L1I PREFETCH  ACCESS:          0  HIT:          0  MISS:          0
cpu0_L1I WRITEBACK ACCESS:          0  HIT:          0  MISS:          0
cpu0_STLB TOTAL     ACCESS:       1503  HIT:       1499  MISS:          4
cpu0_STLB LOAD      ACCESS:       1417  HIT:       1413  MISS:          4
cpu0_STLB RFO       ACCESS:         86  HIT:         86  MISS:          0
cpu0_STLB PREFETCH  ACCESS:          0  HIT:          0  MISS:          0
cpu0_STLB WRITEBACK ACCESS:          0  HIT:          0  MISS:          0
cpu0_L1D TOTAL     ACCESS:    6664573  HIT:    6637771  MISS:      26802
cpu0_L1D LOAD      ACCESS:    4616494  HIT:    4591886  MISS:      24608
cpu0_L1D RFO       ACCESS:    2048075  HIT:    2045885  MISS:       2190
cpu0_L1D PREFETCH  ACCESS:          0  HIT:          0  MISS:          0
cpu0_L1D WRITEBACK ACCESS:          0  HIT:          0  MISS:          0
cpu0_L2C TOTAL     ACCESS:      30562  HIT:       3208  MISS:      27354
cpu0_L2C LOAD      ACCESS:      25143  HIT:        952  MISS:      24191
cpu0_L2C RFO       ACCESS:       2190  HIT:        229  MISS:       1961
cpu0_L2C PREFETCH  ACCESS:          0  HIT:          0  MISS:          0
cpu0_L2C WRITEBACK ACCESS:       3225  HIT:       2027  MISS:       1198
LLC TOTAL     ACCESS:      29075  HIT:      28778  MISS:        297
LLC LOAD      ACCESS:      24191  HIT:      23894  MISS:        297
LLC RFO       ACCESS:       1961  HIT:       1961  MISS:          0
LLC PREFETCH  ACCESS:          0  HIT:          0  MISS:          0
LLC WRITEBACK ACCESS:       2919  HIT:       2919  MISS:          0
Heartbeat CPU 0 instructions: 68000001 cycles: 34150272 heartbeat IPC: 1.34587 cumulative IPC: 0.94986 (Simulation time: 0 hr 50 min 7 sec) 

Region of Interest Statistics
cpu0_DTLB TOTAL     ACCESS:    5506918  HIT:    5505423  MISS:       1495
cpu0_DTLB LOAD      ACCESS:    4200924  HIT:    4199528  MISS:       1396
cpu0_DTLB RFO       ACCESS:    1305994  HIT:    1305895  MISS:         99
cpu0_DTLB PREFETCH  ACCESS:          0  HIT:          0  MISS:          0
cpu0_DTLB WRITEBACK ACCESS:          0  HIT:          0  MISS:          0
cpu0_ITLB TOTAL     ACCESS:    2061466  HIT:    2061173  MISS:        293
cpu0_ITLB LOAD      ACCESS:    2061466  HIT:    2061173  MISS:        293
cpu0_ITLB RFO       ACCESS:          0  HIT:          0  MISS:          0
cpu0_ITLB PREFETCH  ACCESS:          0  HIT:          0  MISS:          0
cpu0_ITLB WRITEBACK ACCESS:          0  HIT:          0  MISS:          0
cpu0_L1I TOTAL     ACCESS:     544041  HIT:     543506  MISS:        535
cpu0_L1I LOAD      ACCESS:     544041  HIT:     543506  MISS:        535
cpu0_L1I RFO       ACCESS:          0  HIT:          0  MISS:          0
cpu0_L1I PREFETCH  ACCESS:          0  HIT:          0  MISS:          0
cpu0_L1I WRITEBACK ACCESS:          0  HIT:          0  MISS:          0
cpu0_STLB TOTAL     ACCESS:       1788  HIT:       1784  MISS:          4
cpu0_STLB LOAD      ACCESS:       1689  HIT:       1685  MISS:          4
cpu0_STLB RFO       ACCESS:         99  HIT:         99  MISS:          0
cpu0_STLB PREFETCH  ACCESS:          0  HIT:          0  MISS:          0
cpu0_STLB WRITEBACK ACCESS:          0  HIT:          0  MISS:          0
cpu0_L1D TOTAL     ACCESS:    7384609  HIT:    7357422  MISS:      27187
cpu0_L1D LOAD      ACCESS:    5146028  HIT:    5121039  MISS:      24989
cpu0_L1D RFO       ACCESS:    2238577  HIT:    2236383  MISS:       2194
cpu0_L1D PREFETCH  ACCESS:          0  HIT:          0  MISS:          0
cpu0_L1D WRITEBACK ACCESS:          0  HIT:          0  MISS:          0
cpu0_L2C TOTAL     ACCESS:      31045  HIT:       3487  MISS:      27558
cpu0_L2C LOAD      ACCESS:      25524  HIT:       1145  MISS:      24379
cpu0_L2C RFO       ACCESS:       2194  HIT:        233  MISS:       1961
cpu0_L2C PREFETCH  ACCESS:          0  HIT:          0  MISS:          0
cpu0_L2C WRITEBACK ACCESS:       3323  HIT:       2109  MISS:       1214
LLC TOTAL     ACCESS:      29280  HIT:      28911  MISS:        369
LLC LOAD      ACCESS:      24379  HIT:      24010  MISS:        369
LLC RFO       ACCESS:       1961  HIT:       1961  MISS:          0
LLC PREFETCH  ACCESS:          0  HIT:          0  MISS:          0
LLC WRITEBACK ACCESS:       2936  HIT:       2936  MISS:          0
Heartbeat CPU 0 instructions: 70000002 cycles: 35952455 heartbeat IPC: 1.10977 cumulative IPC: 0.963746 (Simulation time: 0 hr 51 min 34 sec) 

Region of Interest Statistics
cpu0_DTLB TOTAL     ACCESS:    6073120  HIT:    6071425  MISS:       1695
cpu0_DTLB LOAD      ACCESS:    4635122  HIT:    4633538  MISS:       1584
cpu0_DTLB RFO       ACCESS:    1437998  HIT:    1437887  MISS:        111
cpu0_DTLB PREFETCH  ACCESS:          0  HIT:          0  MISS:          0
cpu0_DTLB WRITEBACK ACCESS:          0  HIT:          0  MISS:          0
cpu0_ITLB TOTAL     ACCESS:    2262764  HIT:    2262417  MISS:        347
cpu0_ITLB LOAD      ACCESS:    2262764  HIT:    2262417  MISS:        347
cpu0_ITLB RFO       ACCESS:          0  HIT:          0  MISS:          0
cpu0_ITLB PREFETCH  ACCESS:          0  HIT:          0  MISS:          0
cpu0_ITLB WRITEBACK ACCESS:          0  HIT:          0  MISS:          0
cpu0_L1I TOTAL     ACCESS:     637510  HIT:     636958  MISS:        552
cpu0_L1I LOAD      ACCESS:     637510  HIT:     636958  MISS:        552
cpu0_L1I RFO       ACCESS:          0  HIT:          0  MISS:          0
cpu0_L1I PREFETCH  ACCESS:          0  HIT:          0  MISS:          0
cpu0_L1I WRITEBACK ACCESS:          0  HIT:          0  MISS:          0
cpu0_STLB TOTAL     ACCESS:       2042  HIT:       2038  MISS:          4
cpu0_STLB LOAD      ACCESS:       1931  HIT:       1927  MISS:          4
cpu0_STLB RFO       ACCESS:        111  HIT:        111  MISS:          0
cpu0_STLB PREFETCH  ACCESS:          0  HIT:          0  MISS:          0
cpu0_STLB WRITEBACK ACCESS:          0  HIT:          0  MISS:          0
cpu0_L1D TOTAL     ACCESS:    8148055  HIT:    8118891  MISS:      29164
cpu0_L1D LOAD      ACCESS:    5687509  HIT:    5660676  MISS:      26833
cpu0_L1D RFO       ACCESS:    2460542  HIT:    2458215  MISS:       2327
cpu0_L1D PREFETCH  ACCESS:          0  HIT:          0  MISS:          0
cpu0_L1D WRITEBACK ACCESS:          0  HIT:          0  MISS:          0
cpu0_L2C TOTAL     ACCESS:      33505  HIT:       4202  MISS:      29303
cpu0_L2C LOAD      ACCESS:      27385  HIT:       1510  MISS:      25875
cpu0_L2C RFO       ACCESS:       2327  HIT:        307  MISS:       2020
cpu0_L2C PREFETCH  ACCESS:          0  HIT:          0  MISS:          0
cpu0_L2C WRITEBACK ACCESS:       3789  HIT:       2385  MISS:       1404
LLC TOTAL     ACCESS:      31289  HIT:      30886  MISS:        403
LLC LOAD      ACCESS:      25875  HIT:      25472  MISS:        403
LLC RFO       ACCESS:       2020  HIT:       2020  MISS:          0
LLC PREFETCH  ACCESS:          0  HIT:          0  MISS:          0
LLC WRITEBACK ACCESS:       3390  HIT:       3390  MISS:          0
Heartbeat CPU 0 instructions: 72000000 cycles: 38128081 heartbeat IPC: 0.919275 cumulative IPC: 0.959527 (Simulation time: 0 hr 52 min 55 sec) 

Region of Interest Statistics
cpu0_DTLB TOTAL     ACCESS:    6694691  HIT:    6692837  MISS:       1854
cpu0_DTLB LOAD      ACCESS:    5108887  HIT:    5107156  MISS:       1731
cpu0_DTLB RFO       ACCESS:    1585804  HIT:    1585681  MISS:        123
cpu0_DTLB PREFETCH  ACCESS:          0  HIT:          0  MISS:          0
cpu0_DTLB WRITEBACK ACCESS:          0  HIT:          0  MISS:          0
cpu0_ITLB TOTAL     ACCESS:    2497870  HIT:    2497493  MISS:        377
cpu0_ITLB LOAD      ACCESS:    2497870  HIT:    2497493  MISS:        377
cpu0_ITLB RFO       ACCESS:          0  HIT:          0  MISS:          0
cpu0_ITLB PREFETCH  ACCESS:          0  HIT:          0  MISS:          0
cpu0_ITLB WRITEBACK ACCESS:          0  HIT:          0  MISS:          0
cpu0_L1I TOTAL     ACCESS:     691238  HIT:     690634  MISS:        604
cpu0_L1I LOAD      ACCESS:     691238  HIT:     690634  MISS:        604
cpu0_L1I RFO       ACCESS:          0  HIT:          0  MISS:          0
cpu0_L1I PREFETCH  ACCESS:          0  HIT:          0  MISS:          0
cpu0_L1I WRITEBACK ACCESS:          0  HIT:          0  MISS:          0
cpu0_STLB TOTAL     ACCESS:       2231  HIT:       2226  MISS:          5
cpu0_STLB LOAD      ACCESS:       2108  HIT:       2103  MISS:          5
cpu0_STLB RFO       ACCESS:        123  HIT:        123  MISS:          0
cpu0_STLB PREFETCH  ACCESS:          0  HIT:          0  MISS:          0
cpu0_STLB WRITEBACK ACCESS:          0  HIT:          0  MISS:          0
cpu0_L1D TOTAL     ACCESS:    8980588  HIT:    8948112  MISS:      32476
cpu0_L1D LOAD      ACCESS:    6265595  HIT:    6235746  MISS:      29849
cpu0_L1D RFO       ACCESS:    2714988  HIT:    2712366  MISS:       2622
cpu0_L1D PREFETCH  ACCESS:          0  HIT:          0  MISS:          0
cpu0_L1D WRITEBACK ACCESS:          0  HIT:          0  MISS:          0
cpu0_L2C TOTAL     ACCESS:      37320  HIT:       4621  MISS:      32699
cpu0_L2C LOAD      ACCESS:      30453  HIT:       1641  MISS:      28812
cpu0_L2C RFO       ACCESS:       2622  HIT:        358  MISS:       2264
cpu0_L2C PREFETCH  ACCESS:          0  HIT:          0  MISS:          0
cpu0_L2C WRITEBACK ACCESS:       4240  HIT:       2622  MISS:       1618
LLC TOTAL     ACCESS:      34936  HIT:      34501  MISS:        435
LLC LOAD      ACCESS:      28812  HIT:      28377  MISS:        435
LLC RFO       ACCESS:       2264  HIT:       2264  MISS:          0
LLC PREFETCH  ACCESS:          0  HIT:          0  MISS:          0
LLC WRITEBACK ACCESS:       3855  HIT:       3855  MISS:          0
Heartbeat CPU 0 instructions: 74000001 cycles: 40378767 heartbeat IPC: 0.888618 cumulative IPC: 0.953188 (Simulation time: 0 hr 54 min 57 sec) 

Region of Interest Statistics
cpu0_DTLB TOTAL     ACCESS:    7327109  HIT:    7325096  MISS:       2013
cpu0_DTLB LOAD      ACCESS:    5589881  HIT:    5588003  MISS:       1878
cpu0_DTLB RFO       ACCESS:    1737228  HIT:    1737093  MISS:        135
cpu0_DTLB PREFETCH  ACCESS:          0  HIT:          0  MISS:          0
cpu0_DTLB WRITEBACK ACCESS:          0  HIT:          0  MISS:          0
cpu0_ITLB TOTAL     ACCESS:    2740513  HIT:    2740109  MISS:        404
cpu0_ITLB LOAD      ACCESS:    2740513  HIT:    2740109  MISS:        404
cpu0_ITLB RFO       ACCESS:          0  HIT:          0  MISS:          0
cpu0_ITLB PREFETCH  ACCESS:          0  HIT:          0  MISS:          0
cpu0_ITLB WRITEBACK ACCESS:          0  HIT:          0  MISS:          0
cpu0_L1I TOTAL     ACCESS:     735714  HIT:     735025  MISS:        689
cpu0_L1I LOAD      ACCESS:     735714  HIT:     735025  MISS:        689
cpu0_L1I RFO       ACCESS:          0  HIT:          0  MISS:          0
cpu0_L1I PREFETCH  ACCESS:          0  HIT:          0  MISS:          0
cpu0_L1I WRITEBACK ACCESS:          0  HIT:          0  MISS:          0
cpu0_STLB TOTAL     ACCESS:       2417  HIT:       2412  MISS:          5
cpu0_STLB LOAD      ACCESS:       2282  HIT:       2277  MISS:          5
cpu0_STLB RFO       ACCESS:        135  HIT:        135  MISS:          0
cpu0_STLB PREFETCH  ACCESS:          0  HIT:          0  MISS:          0
cpu0_STLB WRITEBACK ACCESS:          0  HIT:          0  MISS:          0
cpu0_L1D TOTAL     ACCESS:    9825765  HIT:    9789512  MISS:      36253
cpu0_L1D LOAD      ACCESS:    6849085  HIT:    6815857  MISS:      33228
cpu0_L1D RFO       ACCESS:    2976675  HIT:    2973655  MISS:       3020
cpu0_L1D PREFETCH  ACCESS:          0  HIT:          0  MISS:          0
cpu0_L1D WRITEBACK ACCESS:          0  HIT:          0  MISS:          0
cpu0_L2C TOTAL     ACCESS:      41536  HIT:       4948  MISS:      36588
cpu0_L2C LOAD      ACCESS:      33917  HIT:       1726  MISS:      32191
cpu0_L2C RFO       ACCESS:       3020  HIT:        379  MISS:       2641
cpu0_L2C PREFETCH  ACCESS:          0  HIT:          0  MISS:          0
cpu0_L2C WRITEBACK ACCESS:       4594  HIT:       2843  MISS:       1751
LLC TOTAL     ACCESS:      39016  HIT:      38571  MISS:        445
LLC LOAD      ACCESS:      32191  HIT:      31746  MISS:        445
LLC RFO       ACCESS:       2641  HIT:       2641  MISS:          0
LLC PREFETCH  ACCESS:          0  HIT:          0  MISS:          0
LLC WRITEBACK ACCESS:       4179  HIT:       4179  MISS:          0
Heartbeat CPU 0 instructions: 76000000 cycles: 42553084 heartbeat IPC: 0.919829 cumulative IPC: 0.950536 (Simulation time: 0 hr 56 min 28 sec) 

Region of Interest Statistics
cpu0_DTLB TOTAL     ACCESS:    7935385  HIT:    7933191  MISS:       2194
cpu0_DTLB LOAD      ACCESS:    6052660  HIT:    6050613  MISS:       2047
cpu0_DTLB RFO       ACCESS:    1882725  HIT:    1882578  MISS:        147
cpu0_DTLB PREFETCH  ACCESS:          0  HIT:          0  MISS:          0
cpu0_DTLB WRITEBACK ACCESS:          0  HIT:          0  MISS:          0
cpu0_ITLB TOTAL     ACCESS:    2965014  HIT:    2964582  MISS:        432
cpu0_ITLB LOAD      ACCESS:    2965014  HIT:    2964582  MISS:        432
cpu0_ITLB RFO       ACCESS:          0  HIT:          0  MISS:          0
cpu0_ITLB PREFETCH  ACCESS:          0  HIT:          0  MISS:          0
cpu0_ITLB WRITEBACK ACCESS:          0  HIT:          0  MISS:          0
cpu0_L1I TOTAL     ACCESS:     797933  HIT:     797195  MISS:        738
cpu0_L1I LOAD      ACCESS:     797933  HIT:     797195  MISS:        738
cpu0_L1I RFO       ACCESS:          0  HIT:          0  MISS:          0
cpu0_L1I PREFETCH  ACCESS:          0  HIT:          0  MISS:          0
cpu0_L1I WRITEBACK ACCESS:          0  HIT:          0  MISS:          0
cpu0_STLB TOTAL     ACCESS:       2626  HIT:       2621  MISS:          5
cpu0_STLB LOAD      ACCESS:       2479  HIT:       2474  MISS:          5
cpu0_STLB RFO       ACCESS:        147  HIT:        147  MISS:          0
cpu0_STLB PREFETCH  ACCESS:          0  HIT:          0  MISS:          0
cpu0_STLB WRITEBACK ACCESS:          0  HIT:          0  MISS:          0
cpu0_L1D TOTAL     ACCESS:   10646785  HIT:   10606586  MISS:      40199
cpu0_L1D LOAD      ACCESS:    7412718  HIT:    7375836  MISS:      36882
cpu0_L1D RFO       ACCESS:    3234062  HIT:    3230750  MISS:       3312
cpu0_L1D PREFETCH  ACCESS:          0  HIT:          0  MISS:          0
cpu0_L1D WRITEBACK ACCESS:          0  HIT:          0  MISS:          0
cpu0_L2C TOTAL     ACCESS:      46232  HIT:       5537  MISS:      40695
cpu0_L2C LOAD      ACCESS:      37620  HIT:       1830  MISS:      35790
cpu0_L2C RFO       ACCESS:       3312  HIT:        442  MISS:       2870
cpu0_L2C PREFETCH  ACCESS:          0  HIT:          0  MISS:          0
cpu0_L2C WRITEBACK ACCESS:       5295  HIT:       3265  MISS:       2030
LLC TOTAL     ACCESS:      43469  HIT:      43012  MISS:        457
LLC LOAD      ACCESS:      35790  HIT:      35333  MISS:        457
LLC RFO       ACCESS:       2870  HIT:       2870  MISS:          0
LLC PREFETCH  ACCESS:          0  HIT:          0  MISS:          0
LLC WRITEBACK ACCESS:       4804  HIT:       4804  MISS:          0
Heartbeat CPU 0 instructions: 78000000 cycles: 44961488 heartbeat IPC: 0.830425 cumulative IPC: 0.940817 (Simulation time: 0 hr 57 min 49 sec) 

Region of Interest Statistics
cpu0_DTLB TOTAL     ACCESS:    8593349  HIT:    8591033  MISS:       2316
cpu0_DTLB LOAD      ACCESS:    6552150  HIT:    6549989  MISS:       2161
cpu0_DTLB RFO       ACCESS:    2041199  HIT:    2041044  MISS:        155
cpu0_DTLB PREFETCH  ACCESS:          0  HIT:          0  MISS:          0
cpu0_DTLB WRITEBACK ACCESS:          0  HIT:          0  MISS:          0
cpu0_ITLB TOTAL     ACCESS:    3222680  HIT:    3222235  MISS:        445
cpu0_ITLB LOAD      ACCESS:    3222680  HIT:    3222235  MISS:        445
cpu0_ITLB RFO       ACCESS:          0  HIT:          0  MISS:          0
cpu0_ITLB PREFETCH  ACCESS:          0  HIT:          0  MISS:          0
cpu0_ITLB WRITEBACK ACCESS:          0  HIT:          0  MISS:          0
cpu0_L1I TOTAL     ACCESS:     824768  HIT:     823963  MISS:        805
cpu0_L1I LOAD      ACCESS:     824768  HIT:     823963  MISS:        805
cpu0_L1I RFO       ACCESS:          0  HIT:          0  MISS:          0
cpu0_L1I PREFETCH  ACCESS:          0  HIT:          0  MISS:          0
cpu0_L1I WRITEBACK ACCESS:          0  HIT:          0  MISS:          0
cpu0_STLB TOTAL     ACCESS:       2761  HIT:       2756  MISS:          5
cpu0_STLB LOAD      ACCESS:       2606  HIT:       2601  MISS:          5
cpu0_STLB RFO       ACCESS:        155  HIT:        155  MISS:          0
cpu0_STLB PREFETCH  ACCESS:          0  HIT:          0  MISS:          0
cpu0_STLB WRITEBACK ACCESS:          0  HIT:          0  MISS:          0
cpu0_L1D TOTAL     ACCESS:   11526595  HIT:   11482872  MISS:      43723
cpu0_L1D LOAD      ACCESS:    8015202  HIT:    7974996  MISS:      40206
cpu0_L1D RFO       ACCESS:    3511388  HIT:    3507876  MISS:       3512
cpu0_L1D PREFETCH  ACCESS:          0  HIT:          0  MISS:          0
cpu0_L1D WRITEBACK ACCESS:          0  HIT:          0  MISS:          0
cpu0_L2C TOTAL     ACCESS:      50161  HIT:       5827  MISS:      44334
cpu0_L2C LOAD      ACCESS:      41011  HIT:       1887  MISS:      39124
cpu0_L2C RFO       ACCESS:       3512  HIT:        460  MISS:       3052
cpu0_L2C PREFETCH  ACCESS:          0  HIT:          0  MISS:          0
cpu0_L2C WRITEBACK ACCESS:       5633  HIT:       3480  MISS:       2153
LLC TOTAL     ACCESS:      47341  HIT:      46869  MISS:        472
LLC LOAD      ACCESS:      39124  HIT:      38652  MISS:        472
LLC RFO       ACCESS:       3052  HIT:       3052  MISS:          0
LLC PREFETCH  ACCESS:          0  HIT:          0  MISS:          0
LLC WRITEBACK ACCESS:       5160  HIT:       5160  MISS:          0
Heartbeat CPU 0 instructions: 80000001 cycles: 47216385 heartbeat IPC: 0.886959 cumulative IPC: 0.937023 (Simulation time: 0 hr 59 min 17 sec) 

Region of Interest Statistics
cpu0_DTLB TOTAL     ACCESS:    9212094  HIT:    9209599  MISS:       2495
cpu0_DTLB LOAD      ACCESS:    7021910  HIT:    7019582  MISS:       2328
cpu0_DTLB RFO       ACCESS:    2190184  HIT:    2190017  MISS:        167
cpu0_DTLB PREFETCH  ACCESS:          0  HIT:          0  MISS:          0
cpu0_DTLB WRITEBACK ACCESS:          0  HIT:          0  MISS:          0
cpu0_ITLB TOTAL     ACCESS:    3454412  HIT:    3453943  MISS:        469
cpu0_ITLB LOAD      ACCESS:    3454412  HIT:    3453943  MISS:        469
cpu0_ITLB RFO       ACCESS:          0  HIT:          0  MISS:          0
cpu0_ITLB PREFETCH  ACCESS:          0  HIT:          0  MISS:          0
cpu0_ITLB WRITEBACK ACCESS:          0  HIT:          0  MISS:          0
cpu0_L1I TOTAL     ACCESS:     878139  HIT:     877188  MISS:        951
cpu0_L1I LOAD      ACCESS:     878139  HIT:     877188  MISS:        951
cpu0_L1I RFO       ACCESS:          0  HIT:          0  MISS:          0
cpu0_L1I PREFETCH  ACCESS:          0  HIT:          0  MISS:          0
cpu0_L1I WRITEBACK ACCESS:          0  HIT:          0  MISS:          0
cpu0_STLB TOTAL     ACCESS:       2964  HIT:       2959  MISS:          5
cpu0_STLB LOAD      ACCESS:       2797  HIT:       2792  MISS:          5
cpu0_STLB RFO       ACCESS:        167  HIT:        167  MISS:          0
cpu0_STLB PREFETCH  ACCESS:          0  HIT:          0  MISS:          0
cpu0_STLB WRITEBACK ACCESS:          0  HIT:          0  MISS:          0
cpu0_L1D TOTAL     ACCESS:   12359488  HIT:   12311313  MISS:      48175
cpu0_L1D LOAD      ACCESS:    8583825  HIT:    8539564  MISS:      44261
cpu0_L1D RFO       ACCESS:    3775658  HIT:    3771749  MISS:       3909
cpu0_L1D PREFETCH  ACCESS:          0  HIT:          0  MISS:          0
cpu0_L1D WRITEBACK ACCESS:          0  HIT:          0  MISS:          0
cpu0_L2C TOTAL     ACCESS:      55373  HIT:       6336  MISS:      49037
cpu0_L2C LOAD      ACCESS:      45212  HIT:       1971  MISS:      43241
cpu0_L2C RFO       ACCESS:       3909  HIT:        493  MISS:       3416
cpu0_L2C PREFETCH  ACCESS:          0  HIT:          0  MISS:          0
cpu0_L2C WRITEBACK ACCESS:       6247  HIT:       3872  MISS:       2375
LLC TOTAL     ACCESS:      52331  HIT:      51844  MISS:        487
LLC LOAD      ACCESS:      43241  HIT:      42754  MISS:        487
LLC RFO       ACCESS:       3416  HIT:       3416  MISS:          0
LLC PREFETCH  ACCESS:          0  HIT:          0  MISS:          0
LLC WRITEBACK ACCESS:       5669  HIT:       5669  MISS:          0
Heartbeat CPU 0 instructions: 82000000 cycles: 49154124 heartbeat IPC: 1.03213 cumulative IPC: 0.942451 (Simulation time: 1 hr 0 min 35 sec) 

Region of Interest Statistics
cpu0_DTLB TOTAL     ACCESS:    9811286  HIT:    9808581  MISS:       2705
cpu0_DTLB LOAD      ACCESS:    7480731  HIT:    7478210  MISS:       2521
cpu0_DTLB RFO       ACCESS:    2330555  HIT:    2330371  MISS:        184
cpu0_DTLB PREFETCH  ACCESS:          0  HIT:          0  MISS:          0
cpu0_DTLB WRITEBACK ACCESS:          0  HIT:          0  MISS:          0
cpu0_ITLB TOTAL     ACCESS:    3677508  HIT:    3676995  MISS:        513
cpu0_ITLB LOAD      ACCESS:    3677508  HIT:    3676995  MISS:        513
cpu0_ITLB RFO       ACCESS:          0  HIT:          0  MISS:          0
cpu0_ITLB PREFETCH  ACCESS:          0  HIT:          0  MISS:          0
cpu0_ITLB WRITEBACK ACCESS:          0  HIT:          0  MISS:          0
cpu0_L1I TOTAL     ACCESS:     946543  HIT:     945549  MISS:        994
cpu0_L1I LOAD      ACCESS:     946543  HIT:     945549  MISS:        994
cpu0_L1I RFO       ACCESS:          0  HIT:          0  MISS:          0
cpu0_L1I PREFETCH  ACCESS:          0  HIT:          0  MISS:          0
cpu0_L1I WRITEBACK ACCESS:          0  HIT:          0  MISS:          0
cpu0_STLB TOTAL     ACCESS:       3218  HIT:       3213  MISS:          5
cpu0_STLB LOAD      ACCESS:       3034  HIT:       3029  MISS:          5
cpu0_STLB RFO       ACCESS:        184  HIT:        184  MISS:          0
cpu0_STLB PREFETCH  ACCESS:          0  HIT:          0  MISS:          0
cpu0_STLB WRITEBACK ACCESS:          0  HIT:          0  MISS:          0
cpu0_L1D TOTAL     ACCESS:   13156367  HIT:   13105769  MISS:      50598
cpu0_L1D LOAD      ACCESS:    9148776  HIT:    9102393  MISS:      46383
cpu0_L1D RFO       ACCESS:    4007586  HIT:    4003376  MISS:       4210
cpu0_L1D PREFETCH  ACCESS:          0  HIT:          0  MISS:          0
cpu0_L1D WRITEBACK ACCESS:          0  HIT:          0  MISS:          0
cpu0_L2C TOTAL     ACCESS:      58063  HIT:       6749  MISS:      51314
cpu0_L2C LOAD      ACCESS:      47377  HIT:       2185  MISS:      45192
cpu0_L2C RFO       ACCESS:       4210  HIT:        544  MISS:       3666
cpu0_L2C PREFETCH  ACCESS:          0  HIT:          0  MISS:          0
cpu0_L2C WRITEBACK ACCESS:       6471  HIT:       4020  MISS:       2451
LLC TOTAL     ACCESS:      54677  HIT:      54155  MISS:        522
LLC LOAD      ACCESS:      45192  HIT:      44670  MISS:        522
LLC RFO       ACCESS:       3666  HIT:       3666  MISS:          0
LLC PREFETCH  ACCESS:          0  HIT:          0  MISS:          0
LLC WRITEBACK ACCESS:       5814  HIT:       5814  MISS:          0
Heartbeat CPU 0 instructions: 84000004 cycles: 51562544 heartbeat IPC: 0.830422 cumulative IPC: 0.935031 (Simulation time: 1 hr 2 min 2 sec) 

Region of Interest Statistics
cpu0_DTLB TOTAL     ACCESS:   10455935  HIT:   10453112  MISS:       2823
cpu0_DTLB LOAD      ACCESS:    7969729  HIT:    7967097  MISS:       2632
cpu0_DTLB RFO       ACCESS:    2486206  HIT:    2486015  MISS:        191
cpu0_DTLB PREFETCH  ACCESS:          0  HIT:          0  MISS:          0
cpu0_DTLB WRITEBACK ACCESS:          0  HIT:          0  MISS:          0
cpu0_ITLB TOTAL     ACCESS:    3924991  HIT:    3924466  MISS:        525
cpu0_ITLB LOAD      ACCESS:    3924991  HIT:    3924466  MISS:        525
cpu0_ITLB RFO       ACCESS:          0  HIT:          0  MISS:          0
cpu0_ITLB PREFETCH  ACCESS:          0  HIT:          0  MISS:          0
cpu0_ITLB WRITEBACK ACCESS:          0  HIT:          0  MISS:          0
cpu0_L1I TOTAL     ACCESS:     984968  HIT:     983938  MISS:       1030
cpu0_L1I LOAD      ACCESS:     984968  HIT:     983938  MISS:       1030
cpu0_L1I RFO       ACCESS:          0  HIT:          0  MISS:          0
cpu0_L1I PREFETCH  ACCESS:          0  HIT:          0  MISS:          0
cpu0_L1I WRITEBACK ACCESS:          0  HIT:          0  MISS:          0
cpu0_STLB TOTAL     ACCESS:       3348  HIT:       3343  MISS:          5
cpu0_STLB LOAD      ACCESS:       3157  HIT:       3152  MISS:          5
cpu0_STLB RFO       ACCESS:        191  HIT:        191  MISS:          0
cpu0_STLB PREFETCH  ACCESS:          0  HIT:          0  MISS:          0
cpu0_STLB WRITEBACK ACCESS:          0  HIT:          0  MISS:          0
cpu0_L1D TOTAL     ACCESS:   14026063  HIT:   13971519  MISS:      54544
cpu0_L1D LOAD      ACCESS:    9740656  HIT:    9690526  MISS:      50130
cpu0_L1D RFO       ACCESS:    4285402  HIT:    4280993  MISS:       4409
cpu0_L1D PREFETCH  ACCESS:          0  HIT:          0  MISS:          0
cpu0_L1D WRITEBACK ACCESS:          0  HIT:          0  MISS:          0
cpu0_L2C TOTAL     ACCESS:      62633  HIT:       7171  MISS:      55462
cpu0_L2C LOAD      ACCESS:      51160  HIT:       2248  MISS:      48912
cpu0_L2C RFO       ACCESS:       4409  HIT:        562  MISS:       3847
cpu0_L2C PREFETCH  ACCESS:          0  HIT:          0  MISS:          0
cpu0_L2C WRITEBACK ACCESS:       7059  HIT:       4361  MISS:       2698
LLC TOTAL     ACCESS:      59218  HIT:      58678  MISS:        540
LLC LOAD      ACCESS:      48912  HIT:      48372  MISS:        540
LLC RFO       ACCESS:       3847  HIT:       3847  MISS:          0
LLC PREFETCH  ACCESS:          0  HIT:          0  MISS:          0
LLC WRITEBACK ACCESS:       6454  HIT:       6454  MISS:          0
Heartbeat CPU 0 instructions: 86000002 cycles: 53833221 heartbeat IPC: 0.880794 cumulative IPC: 0.931843 (Simulation time: 1 hr 3 min 20 sec) 

Region of Interest Statistics
cpu0_DTLB TOTAL     ACCESS:   11091264  HIT:   11088260  MISS:       3004
cpu0_DTLB LOAD      ACCESS:    8452622  HIT:    8449824  MISS:       2798
cpu0_DTLB RFO       ACCESS:    2638642  HIT:    2638436  MISS:        206
cpu0_DTLB PREFETCH  ACCESS:          0  HIT:          0  MISS:          0
cpu0_DTLB WRITEBACK ACCESS:          0  HIT:          0  MISS:          0
cpu0_ITLB TOTAL     ACCESS:    4169229  HIT:    4168679  MISS:        550
cpu0_ITLB LOAD      ACCESS:    4169229  HIT:    4168679  MISS:        550
cpu0_ITLB RFO       ACCESS:          0  HIT:          0  MISS:          0
cpu0_ITLB PREFETCH  ACCESS:          0  HIT:          0  MISS:          0
cpu0_ITLB WRITEBACK ACCESS:          0  HIT:          0  MISS:          0
cpu0_L1I TOTAL     ACCESS:    1026631  HIT:    1025483  MISS:       1148
cpu0_L1I LOAD      ACCESS:    1026631  HIT:    1025483  MISS:       1148
cpu0_L1I RFO       ACCESS:          0  HIT:          0  MISS:          0
cpu0_L1I PREFETCH  ACCESS:          0  HIT:          0  MISS:          0
cpu0_L1I WRITEBACK ACCESS:          0  HIT:          0  MISS:          0
cpu0_STLB TOTAL     ACCESS:       3554  HIT:       3549  MISS:          5
cpu0_STLB LOAD      ACCESS:       3348  HIT:       3343  MISS:          5
cpu0_STLB RFO       ACCESS:        206  HIT:        206  MISS:          0
cpu0_STLB PREFETCH  ACCESS:          0  HIT:          0  MISS:          0
cpu0_STLB WRITEBACK ACCESS:          0  HIT:          0  MISS:          0
cpu0_L1D TOTAL     ACCESS:   14875125  HIT:   14816684  MISS:      58441
cpu0_L1D LOAD      ACCESS:   10324707  HIT:   10271070  MISS:      53637
cpu0_L1D RFO       ACCESS:    4550413  HIT:    4545614  MISS:       4799
cpu0_L1D PREFETCH  ACCESS:          0  HIT:          0  MISS:          0
cpu0_L1D WRITEBACK ACCESS:          0  HIT:          0  MISS:          0
cpu0_L2C TOTAL     ACCESS:      66992  HIT:       7510  MISS:      59482
cpu0_L2C LOAD      ACCESS:      54785  HIT:       2318  MISS:      52467
cpu0_L2C RFO       ACCESS:       4799  HIT:        588  MISS:       4211
cpu0_L2C PREFETCH  ACCESS:          0  HIT:          0  MISS:          0
cpu0_L2C WRITEBACK ACCESS:       7403  HIT:       4604  MISS:       2799
LLC TOTAL     ACCESS:      63459  HIT:      62911  MISS:        548
LLC LOAD      ACCESS:      52467  HIT:      51919  MISS:        548
LLC RFO       ACCESS:       4211  HIT:       4211  MISS:          0
LLC PREFETCH  ACCESS:          0  HIT:          0  MISS:          0
LLC WRITEBACK ACCESS:       6776  HIT:       6776  MISS:          0
Heartbeat CPU 0 instructions: 88000001 cycles: 55907449 heartbeat IPC: 0.964214 cumulative IPC: 0.933493 (Simulation time: 1 hr 4 min 42 sec) 

Region of Interest Statistics
cpu0_DTLB TOTAL     ACCESS:   11699736  HIT:   11696569  MISS:       3167
cpu0_DTLB LOAD      ACCESS:    8917757  HIT:    8914804  MISS:       2953
cpu0_DTLB RFO       ACCESS:    2781979  HIT:    2781765  MISS:        214
cpu0_DTLB PREFETCH  ACCESS:          0  HIT:          0  MISS:          0
cpu0_DTLB WRITEBACK ACCESS:          0  HIT:          0  MISS:          0
cpu0_ITLB TOTAL     ACCESS:    4395462  HIT:    4394878  MISS:        584
cpu0_ITLB LOAD      ACCESS:    4395462  HIT:    4394878  MISS:        584
cpu0_ITLB RFO       ACCESS:          0  HIT:          0  MISS:          0
cpu0_ITLB PREFETCH  ACCESS:          0  HIT:          0  MISS:          0
cpu0_ITLB WRITEBACK ACCESS:          0  HIT:          0  MISS:          0
cpu0_L1I TOTAL     ACCESS:    1092081  HIT:    1090888  MISS:       1193
cpu0_L1I LOAD      ACCESS:    1092081  HIT:    1090888  MISS:       1193
cpu0_L1I RFO       ACCESS:          0  HIT:          0  MISS:          0
cpu0_L1I PREFETCH  ACCESS:          0  HIT:          0  MISS:          0
cpu0_L1I WRITEBACK ACCESS:          0  HIT:          0  MISS:          0
cpu0_STLB TOTAL     ACCESS:       3751  HIT:       3746  MISS:          5
cpu0_STLB LOAD      ACCESS:       3537  HIT:       3532  MISS:          5
cpu0_STLB RFO       ACCESS:        214  HIT:        214  MISS:          0
cpu0_STLB PREFETCH  ACCESS:          0  HIT:          0  MISS:          0
cpu0_STLB WRITEBACK ACCESS:          0  HIT:          0  MISS:          0
cpu0_L1D TOTAL     ACCESS:   15691724  HIT:   15630392  MISS:      61332
cpu0_L1D LOAD      ACCESS:   10897175  HIT:   10840860  MISS:      56315
cpu0_L1D RFO       ACCESS:    4794544  HIT:    4789532  MISS:       5012
cpu0_L1D PREFETCH  ACCESS:          0  HIT:          0  MISS:          0
cpu0_L1D WRITEBACK ACCESS:          0  HIT:          0  MISS:          0
cpu0_L2C TOTAL     ACCESS:      70302  HIT:       7880  MISS:      62422
cpu0_L2C LOAD      ACCESS:      57508  HIT:       2448  MISS:      55060
cpu0_L2C RFO       ACCESS:       5012  HIT:        604  MISS:       4408
cpu0_L2C PREFETCH  ACCESS:          0  HIT:          0  MISS:          0
cpu0_L2C WRITEBACK ACCESS:       7777  HIT:       4828  MISS:       2949
LLC TOTAL     ACCESS:      66539  HIT:      65974  MISS:        565
LLC LOAD      ACCESS:      55060  HIT:      54495  MISS:        565
LLC RFO       ACCESS:       4408  HIT:       4408  MISS:          0
LLC PREFETCH  ACCESS:          0  HIT:          0  MISS:          0
LLC WRITEBACK ACCESS:       7066  HIT:       7066  MISS:          0
Heartbeat CPU 0 instructions: 90000003 cycles: 57441863 heartbeat IPC: 1.30343 cumulative IPC: 0.94693 (Simulation time: 1 hr 6 min 7 sec) 

Region of Interest Statistics
cpu0_DTLB TOTAL     ACCESS:   12241274  HIT:   12237875  MISS:       3399
cpu0_DTLB LOAD      ACCESS:    9336009  HIT:    9332839  MISS:       3170
cpu0_DTLB RFO       ACCESS:    2905265  HIT:    2905036  MISS:        229
cpu0_DTLB PREFETCH  ACCESS:          0  HIT:          0  MISS:          0
cpu0_DTLB WRITEBACK ACCESS:          0  HIT:          0  MISS:          0
cpu0_ITLB TOTAL     ACCESS:    4582977  HIT:    4582325  MISS:        652
cpu0_ITLB LOAD      ACCESS:    4582977  HIT:    4582325  MISS:        652
cpu0_ITLB RFO       ACCESS:          0  HIT:          0  MISS:          0
cpu0_ITLB PREFETCH  ACCESS:          0  HIT:          0  MISS:          0
cpu0_ITLB WRITEBACK ACCESS:          0  HIT:          0  MISS:          0
cpu0_L1I TOTAL     ACCESS:    1205640  HIT:    1204447  MISS:       1193
cpu0_L1I LOAD      ACCESS:    1205640  HIT:    1204447  MISS:       1193
cpu0_L1I RFO       ACCESS:          0  HIT:          0  MISS:          0
cpu0_L1I PREFETCH  ACCESS:          0  HIT:          0  MISS:          0
cpu0_L1I WRITEBACK ACCESS:          0  HIT:          0  MISS:          0
cpu0_STLB TOTAL     ACCESS:       4051  HIT:       4046  MISS:          5
cpu0_STLB LOAD      ACCESS:       3822  HIT:       3817  MISS:          5
cpu0_STLB RFO       ACCESS:        229  HIT:        229  MISS:          0
cpu0_STLB PREFETCH  ACCESS:          0  HIT:          0  MISS:          0
cpu0_STLB WRITEBACK ACCESS:          0  HIT:          0  MISS:          0
cpu0_L1D TOTAL     ACCESS:   16418680  HIT:   16356866  MISS:      61814
cpu0_L1D LOAD      ACCESS:   11428879  HIT:   11372086  MISS:      56793
cpu0_L1D RFO       ACCESS:    4989796  HIT:    4984780  MISS:       5016
cpu0_L1D PREFETCH  ACCESS:          0  HIT:          0  MISS:          0
cpu0_L1D WRITEBACK ACCESS:          0  HIT:          0  MISS:          0
cpu0_L2C TOTAL     ACCESS:      70886  HIT:       8272  MISS:      62614
cpu0_L2C LOAD      ACCESS:      57986  HIT:       2748  MISS:      55238
cpu0_L2C RFO       ACCESS:       5016  HIT:        608  MISS:       4408
cpu0_L2C PREFETCH  ACCESS:          0  HIT:          0  MISS:          0
cpu0_L2C WRITEBACK ACCESS:       7879  HIT:       4916  MISS:       2963
LLC TOTAL     ACCESS:      66739  HIT:      66135  MISS:        604
LLC LOAD      ACCESS:      55238  HIT:      54634  MISS:        604
LLC RFO       ACCESS:       4408  HIT:       4408  MISS:          0
LLC PREFETCH  ACCESS:          0  HIT:          0  MISS:          0
LLC WRITEBACK ACCESS:       7088  HIT:       7088  MISS:          0
Heartbeat CPU 0 instructions: 92000001 cycles: 59001173 heartbeat IPC: 1.28262 cumulative IPC: 0.958881 (Simulation time: 1 hr 7 min 30 sec) 

Region of Interest Statistics
cpu0_DTLB TOTAL     ACCESS:   12769898  HIT:   12766246  MISS:       3652
cpu0_DTLB LOAD      ACCESS:    9740064  HIT:    9736659  MISS:       3405
cpu0_DTLB RFO       ACCESS:    3029834  HIT:    3029587  MISS:        247
cpu0_DTLB PREFETCH  ACCESS:          0  HIT:          0  MISS:          0
cpu0_DTLB WRITEBACK ACCESS:          0  HIT:          0  MISS:          0
cpu0_ITLB TOTAL     ACCESS:    4765131  HIT:    4764380  MISS:        751
cpu0_ITLB LOAD      ACCESS:    4765131  HIT:    4764380  MISS:        751
cpu0_ITLB RFO       ACCESS:          0  HIT:          0  MISS:          0
cpu0_ITLB PREFETCH  ACCESS:          0  HIT:          0  MISS:          0
cpu0_ITLB WRITEBACK ACCESS:          0  HIT:          0  MISS:          0
cpu0_L1I TOTAL     ACCESS:    1330056  HIT:    1328601  MISS:       1455
cpu0_L1I LOAD      ACCESS:    1330056  HIT:    1328601  MISS:       1455
cpu0_L1I RFO       ACCESS:          0  HIT:          0  MISS:          0
cpu0_L1I PREFETCH  ACCESS:          0  HIT:          0  MISS:          0
cpu0_L1I WRITEBACK ACCESS:          0  HIT:          0  MISS:          0
cpu0_STLB TOTAL     ACCESS:       4403  HIT:       4361  MISS:         42
cpu0_STLB LOAD      ACCESS:       4156  HIT:       4115  MISS:         41
cpu0_STLB RFO       ACCESS:        247  HIT:        246  MISS:          1
cpu0_STLB PREFETCH  ACCESS:          0  HIT:          0  MISS:          0
cpu0_STLB WRITEBACK ACCESS:          0  HIT:          0  MISS:          0
cpu0_L1D TOTAL     ACCESS:   17131988  HIT:   17069350  MISS:      62638
cpu0_L1D LOAD      ACCESS:   11943281  HIT:   11885984  MISS:      57297
cpu0_L1D RFO       ACCESS:    5188665  HIT:    5183331  MISS:       5334
cpu0_L1D PREFETCH  ACCESS:          0  HIT:          0  MISS:          0
cpu0_L1D WRITEBACK ACCESS:          0  HIT:          0  MISS:          0
cpu0_L2C TOTAL     ACCESS:      72199  HIT:       8685  MISS:      63514
cpu0_L2C LOAD      ACCESS:      58752  HIT:       2991  MISS:      55761
cpu0_L2C RFO       ACCESS:       5334  HIT:        620  MISS:       4714
cpu0_L2C PREFETCH  ACCESS:          0  HIT:          0  MISS:          0
cpu0_L2C WRITEBACK ACCESS:       8106  HIT:       5074  MISS:       3032
LLC TOTAL     ACCESS:      67772  HIT:      66691  MISS:       1081
LLC LOAD      ACCESS:      55761  HIT:      54779  MISS:        982
LLC RFO       ACCESS:       4714  HIT:       4615  MISS:         99
LLC PREFETCH  ACCESS:          0  HIT:          0  MISS:          0
LLC WRITEBACK ACCESS:       7290  HIT:       7290  MISS:          0
Heartbeat CPU 0 instructions: 94000004 cycles: 60558427 heartbeat IPC: 1.28431 cumulative IPC: 0.970054 (Simulation time: 1 hr 8 min 35 sec) 

Region of Interest Statistics
cpu0_DTLB TOTAL     ACCESS:   13138585  HIT:   13134602  MISS:       3983
cpu0_DTLB LOAD      ACCESS:    9993835  HIT:    9990419  MISS:       3416
cpu0_DTLB RFO       ACCESS:    3144750  HIT:    3144183  MISS:        567
cpu0_DTLB PREFETCH  ACCESS:          0  HIT:          0  MISS:          0
cpu0_DTLB WRITEBACK ACCESS:          0  HIT:          0  MISS:          0
cpu0_ITLB TOTAL     ACCESS:    4948085  HIT:    4947328  MISS:        757
cpu0_ITLB LOAD      ACCESS:    4948085  HIT:    4947328  MISS:        757
cpu0_ITLB RFO       ACCESS:          0  HIT:          0  MISS:          0
cpu0_ITLB PREFETCH  ACCESS:          0  HIT:          0  MISS:          0
cpu0_ITLB WRITEBACK ACCESS:          0  HIT:          0  MISS:          0
cpu0_L1I TOTAL     ACCESS:    1401867  HIT:    1400296  MISS:       1571
cpu0_L1I LOAD      ACCESS:    1401867  HIT:    1400296  MISS:       1571
cpu0_L1I RFO       ACCESS:          0  HIT:          0  MISS:          0
cpu0_L1I PREFETCH  ACCESS:          0  HIT:          0  MISS:          0
cpu0_L1I WRITEBACK ACCESS:          0  HIT:          0  MISS:          0
cpu0_STLB TOTAL     ACCESS:       4740  HIT:       4411  MISS:        329
cpu0_STLB LOAD      ACCESS:       4173  HIT:       4125  MISS:         48
cpu0_STLB RFO       ACCESS:        567  HIT:        286  MISS:        281
cpu0_STLB PREFETCH  ACCESS:          0  HIT:          0  MISS:          0
cpu0_STLB WRITEBACK ACCESS:          0  HIT:          0  MISS:          0
cpu0_L1D TOTAL     ACCESS:   17525709  HIT:   17442451  MISS:      83258
cpu0_L1D LOAD      ACCESS:   12201571  HIT:   12144117  MISS:      57454
cpu0_L1D RFO       ACCESS:    5323809  HIT:    5298014  MISS:      25795
cpu0_L1D PREFETCH  ACCESS:          0  HIT:          0  MISS:          0
cpu0_L1D WRITEBACK ACCESS:          0  HIT:          0  MISS:          0
cpu0_L2C TOTAL     ACCESS:     113318  HIT:      10043  MISS:     103275
cpu0_L2C LOAD      ACCESS:      59025  HIT:       2991  MISS:      56034
cpu0_L2C RFO       ACCESS:      25795  HIT:        621  MISS:      25174
cpu0_L2C PREFETCH  ACCESS:          0  HIT:          0  MISS:          0
cpu0_L2C WRITEBACK ACCESS:      28489  HIT:       6431  MISS:      22058
LLC TOTAL     ACCESS:     108446  HIT:      89293  MISS:      19153
LLC LOAD      ACCESS:      56034  HIT:      54913  MISS:       1121
LLC RFO       ACCESS:      25174  HIT:       7142  MISS:      18032
LLC PREFETCH  ACCESS:          0  HIT:          0  MISS:          0
LLC WRITEBACK ACCESS:      27229  HIT:      27229  MISS:          0
Heartbeat CPU 0 instructions: 96000003 cycles: 62493977 heartbeat IPC: 1.0333 cumulative IPC: 0.972642 (Simulation time: 1 hr 9 min 31 sec) 

Region of Interest Statistics
cpu0_DTLB TOTAL     ACCESS:   13595819  HIT:   13591818  MISS:       4001
cpu0_DTLB LOAD      ACCESS:   10372044  HIT:   10368628  MISS:       3416
cpu0_DTLB RFO       ACCESS:    3223775  HIT:    3223190  MISS:        585
cpu0_DTLB PREFETCH  ACCESS:          0  HIT:          0  MISS:          0
cpu0_DTLB WRITEBACK ACCESS:          0  HIT:          0  MISS:          0
cpu0_ITLB TOTAL     ACCESS:    5183134  HIT:    5182377  MISS:        757
cpu0_ITLB LOAD      ACCESS:    5183134  HIT:    5182377  MISS:        757
cpu0_ITLB RFO       ACCESS:          0  HIT:          0  MISS:          0
cpu0_ITLB PREFETCH  ACCESS:          0  HIT:          0  MISS:          0
cpu0_ITLB WRITEBACK ACCESS:          0  HIT:          0  MISS:          0
cpu0_L1I TOTAL     ACCESS:    1504095  HIT:    1502524  MISS:       1571
cpu0_L1I LOAD      ACCESS:    1504095  HIT:    1502524  MISS:       1571
cpu0_L1I RFO       ACCESS:          0  HIT:          0  MISS:          0
cpu0_L1I PREFETCH  ACCESS:          0  HIT:          0  MISS:          0
cpu0_L1I WRITEBACK ACCESS:          0  HIT:          0  MISS:          0
cpu0_STLB TOTAL     ACCESS:       4758  HIT:       4429  MISS:        329
cpu0_STLB LOAD      ACCESS:       4173  HIT:       4125  MISS:         48
cpu0_STLB RFO       ACCESS:        585  HIT:        304  MISS:        281
cpu0_STLB PREFETCH  ACCESS:          0  HIT:          0  MISS:          0
cpu0_STLB WRITEBACK ACCESS:          0  HIT:          0  MISS:          0
cpu0_L1D TOTAL     ACCESS:   18070346  HIT:   17985940  MISS:      84406
cpu0_L1D LOAD      ACCESS:   12585115  HIT:   12527661  MISS:      57454
cpu0_L1D RFO       ACCESS:    5484902  HIT:    5457959  MISS:      26943
cpu0_L1D PREFETCH  ACCESS:          0  HIT:          0  MISS:          0
cpu0_L1D WRITEBACK ACCESS:          0  HIT:          0  MISS:          0
cpu0_L2C TOTAL     ACCESS:     115614  HIT:      10491  MISS:     105123
cpu0_L2C LOAD      ACCESS:      59025  HIT:       2991  MISS:      56034
cpu0_L2C RFO       ACCESS:      26943  HIT:        621  MISS:      26322
cpu0_L2C PREFETCH  ACCESS:          0  HIT:          0  MISS:          0
cpu0_L2C WRITEBACK ACCESS:      29637  HIT:       6879  MISS:      22758
LLC TOTAL     ACCESS:     110835  HIT:      91682  MISS:      19153
LLC LOAD      ACCESS:      56034  HIT:      54913  MISS:       1121
LLC RFO       ACCESS:      26322  HIT:       8290  MISS:      18032
LLC PREFETCH  ACCESS:          0  HIT:          0  MISS:          0
LLC WRITEBACK ACCESS:      28470  HIT:      28470  MISS:          0
Heartbeat CPU 0 instructions: 98000002 cycles: 64433555 heartbeat IPC: 1.03115 cumulative IPC: 0.974947 (Simulation time: 1 hr 10 min 31 sec) 

Region of Interest Statistics
cpu0_DTLB TOTAL     ACCESS:   14053920  HIT:   14049901  MISS:       4019
cpu0_DTLB LOAD      ACCESS:   10750601  HIT:   10747185  MISS:       3416
cpu0_DTLB RFO       ACCESS:    3303319  HIT:    3302716  MISS:        603
cpu0_DTLB PREFETCH  ACCESS:          0  HIT:          0  MISS:          0
cpu0_DTLB WRITEBACK ACCESS:          0  HIT:          0  MISS:          0
cpu0_ITLB TOTAL     ACCESS:    5418374  HIT:    5417617  MISS:        757
cpu0_ITLB LOAD      ACCESS:    5418374  HIT:    5417617  MISS:        757
cpu0_ITLB RFO       ACCESS:          0  HIT:          0  MISS:          0
cpu0_ITLB PREFETCH  ACCESS:          0  HIT:          0  MISS:          0
cpu0_ITLB WRITEBACK ACCESS:          0  HIT:          0  MISS:          0
cpu0_L1I TOTAL     ACCESS:    1606697  HIT:    1605126  MISS:       1571
cpu0_L1I LOAD      ACCESS:    1606697  HIT:    1605126  MISS:       1571
cpu0_L1I RFO       ACCESS:          0  HIT:          0  MISS:          0
cpu0_L1I PREFETCH  ACCESS:          0  HIT:          0  MISS:          0
cpu0_L1I WRITEBACK ACCESS:          0  HIT:          0  MISS:          0
cpu0_STLB TOTAL     ACCESS:       4776  HIT:       4447  MISS:        329
cpu0_STLB LOAD      ACCESS:       4173  HIT:       4125  MISS:         48
cpu0_STLB RFO       ACCESS:        603  HIT:        322  MISS:        281
cpu0_STLB PREFETCH  ACCESS:          0  HIT:          0  MISS:          0
cpu0_STLB WRITEBACK ACCESS:          0  HIT:          0  MISS:          0
cpu0_L1D TOTAL     ACCESS:   18615383  HIT:   18529827  MISS:      85556
cpu0_L1D LOAD      ACCESS:   12969098  HIT:   12911644  MISS:      57454
cpu0_L1D RFO       ACCESS:    5645956  HIT:    5617863  MISS:      28093
cpu0_L1D PREFETCH  ACCESS:          0  HIT:          0  MISS:          0
cpu0_L1D WRITEBACK ACCESS:          0  HIT:          0  MISS:          0
cpu0_L2C TOTAL     ACCESS:     117914  HIT:      10749  MISS:     107165
cpu0_L2C LOAD      ACCESS:      59025  HIT:       2991  MISS:      56034
cpu0_L2C RFO       ACCESS:      28093  HIT:        621  MISS:      27472
cpu0_L2C PREFETCH  ACCESS:          0  HIT:          0  MISS:          0
cpu0_L2C WRITEBACK ACCESS:      30787  HIT:       7137  MISS:      23650
LLC TOTAL     ACCESS:     113042  HIT:      93889  MISS:      19153
LLC LOAD      ACCESS:      56034  HIT:      54913  MISS:       1121
LLC RFO       ACCESS:      27472  HIT:       9440  MISS:      18032
LLC PREFETCH  ACCESS:          0  HIT:          0  MISS:          0
LLC WRITEBACK ACCESS:      29527  HIT:      29527  MISS:          0
Heartbeat CPU 0 instructions: 100000002 cycles: 66016701 heartbeat IPC: 1.26331 cumulative IPC: 0.983931 (Simulation time: 1 hr 11 min 38 sec) 

Region of Interest Statistics
cpu0_DTLB TOTAL     ACCESS:   14483607  HIT:   14474721  MISS:       8886
cpu0_DTLB LOAD      ACCESS:   11120705  HIT:   11112837  MISS:       7868
cpu0_DTLB RFO       ACCESS:    3362902  HIT:    3361884  MISS:       1018
cpu0_DTLB PREFETCH  ACCESS:          0  HIT:          0  MISS:          0
cpu0_DTLB WRITEBACK ACCESS:          0  HIT:          0  MISS:          0
cpu0_ITLB TOTAL     ACCESS:    5641928  HIT:    5641170  MISS:        758
cpu0_ITLB LOAD      ACCESS:    5641928  HIT:    5641170  MISS:        758
cpu0_ITLB RFO       ACCESS:          0  HIT:          0  MISS:          0
cpu0_ITLB PREFETCH  ACCESS:          0  HIT:          0  MISS:          0
cpu0_ITLB WRITEBACK ACCESS:          0  HIT:          0  MISS:          0
cpu0_L1I TOTAL     ACCESS:    1682970  HIT:    1681394  MISS:       1576
cpu0_L1I LOAD      ACCESS:    1682970  HIT:    1681394  MISS:       1576
cpu0_L1I RFO       ACCESS:          0  HIT:          0  MISS:          0
cpu0_L1I PREFETCH  ACCESS:          0  HIT:          0  MISS:          0
cpu0_L1I WRITEBACK ACCESS:          0  HIT:          0  MISS:          0
cpu0_STLB TOTAL     ACCESS:       9644  HIT:       9314  MISS:        330
cpu0_STLB LOAD      ACCESS:       8626  HIT:       8577  MISS:         49
cpu0_STLB RFO       ACCESS:       1018  HIT:        737  MISS:        281
cpu0_STLB PREFETCH  ACCESS:          0  HIT:          0  MISS:          0
cpu0_STLB WRITEBACK ACCESS:          0  HIT:          0  MISS:          0
cpu0_L1D TOTAL     ACCESS:   19122817  HIT:   19029831  MISS:      92986
cpu0_L1D LOAD      ACCESS:   13356552  HIT:   13292572  MISS:      63980
cpu0_L1D RFO       ACCESS:    5765935  HIT:    5736939  MISS:      28996
cpu0_L1D PREFETCH  ACCESS:          0  HIT:          0  MISS:          0
cpu0_L1D WRITEBACK ACCESS:          0  HIT:          0  MISS:          0
cpu0_L2C TOTAL     ACCESS:     126976  HIT:      11257  MISS:     115719
cpu0_L2C LOAD      ACCESS:      65556  HIT:       3107  MISS:      62449
cpu0_L2C RFO       ACCESS:      28996  HIT:        621  MISS:      28375
cpu0_L2C PREFETCH  ACCESS:          0  HIT:          0  MISS:          0
cpu0_L2C WRITEBACK ACCESS:      32414  HIT:       7529  MISS:      24885
LLC TOTAL     ACCESS:     122576  HIT:     103418  MISS:      19158
LLC LOAD      ACCESS:      62449  HIT:      61323  MISS:       1126
LLC RFO       ACCESS:      28375  HIT:      10343  MISS:      18032
LLC PREFETCH  ACCESS:          0  HIT:          0  MISS:          0
LLC WRITEBACK ACCESS:      31742  HIT:      31742  MISS:          0
Heartbeat CPU 0 instructions: 102000000 cycles: 66558532 heartbeat IPC: 3.69118 cumulative IPC: 1.01249 (Simulation time: 1 hr 12 min 51 sec) 

Region of Interest Statistics
cpu0_DTLB TOTAL     ACCESS:   14833026  HIT:   14806643  MISS:      26383
cpu0_DTLB LOAD      ACCESS:   11468550  HIT:   11444759  MISS:      23791
cpu0_DTLB RFO       ACCESS:    3364476  HIT:    3361884  MISS:       2592
cpu0_DTLB PREFETCH  ACCESS:          0  HIT:          0  MISS:          0
cpu0_DTLB WRITEBACK ACCESS:          0  HIT:          0  MISS:          0
cpu0_ITLB TOTAL     ACCESS:    5838357  HIT:    5837599  MISS:        758
cpu0_ITLB LOAD      ACCESS:    5838357  HIT:    5837599  MISS:        758
cpu0_ITLB RFO       ACCESS:          0  HIT:          0  MISS:          0
cpu0_ITLB PREFETCH  ACCESS:          0  HIT:          0  MISS:          0
cpu0_ITLB WRITEBACK ACCESS:          0  HIT:          0  MISS:          0
cpu0_L1I TOTAL     ACCESS:    1682970  HIT:    1681394  MISS:       1576
cpu0_L1I LOAD      ACCESS:    1682970  HIT:    1681394  MISS:       1576
cpu0_L1I RFO       ACCESS:          0  HIT:          0  MISS:          0
cpu0_L1I PREFETCH  ACCESS:          0  HIT:          0  MISS:          0
cpu0_L1I WRITEBACK ACCESS:          0  HIT:          0  MISS:          0
cpu0_STLB TOTAL     ACCESS:      27141  HIT:      26811  MISS:        330
cpu0_STLB LOAD      ACCESS:      24549  HIT:      24500  MISS:         49
cpu0_STLB RFO       ACCESS:       2592  HIT:       2311  MISS:        281
cpu0_STLB PREFETCH  ACCESS:          0  HIT:          0  MISS:          0
cpu0_STLB WRITEBACK ACCESS:          0  HIT:          0  MISS:          0
cpu0_L1D TOTAL     ACCESS:   19522508  HIT:   19404542  MISS:     117966
cpu0_L1D LOAD      ACCESS:   13754669  HIT:   13665906  MISS:      88763
cpu0_L1D RFO       ACCESS:    5767509  HIT:    5738316  MISS:      29193
cpu0_L1D PREFETCH  ACCESS:          0  HIT:          0  MISS:          0
cpu0_L1D WRITEBACK ACCESS:          0  HIT:          0  MISS:          0
cpu0_L2C TOTAL     ACCESS:     152166  HIT:      11454  MISS:     140712
cpu0_L2C LOAD      ACCESS:      90339  HIT:       3107  MISS:      87232
cpu0_L2C RFO       ACCESS:      29193  HIT:        621  MISS:      28572
cpu0_L2C PREFETCH  ACCESS:          0  HIT:          0  MISS:          0
cpu0_L2C WRITEBACK ACCESS:      32624  HIT:       7726  MISS:      24898
LLC TOTAL     ACCESS:     147763  HIT:     128605  MISS:      19158
LLC LOAD      ACCESS:      87232  HIT:      86106  MISS:       1126
LLC RFO       ACCESS:      28572  HIT:      10540  MISS:      18032
LLC PREFETCH  ACCESS:          0  HIT:          0  MISS:          0
LLC WRITEBACK ACCESS:      31949  HIT:      31949  MISS:          0
Heartbeat CPU 0 instructions: 104000004 cycles: 67100358 heartbeat IPC: 3.69123 cumulative IPC: 1.04046 (Simulation time: 1 hr 14 min 4 sec) 

Region of Interest Statistics
cpu0_DTLB TOTAL     ACCESS:   15184633  HIT:   15140038  MISS:      44595
cpu0_DTLB LOAD      ACCESS:   11818584  HIT:   11778154  MISS:      40430
cpu0_DTLB RFO       ACCESS:    3366049  HIT:    3361884  MISS:       4165
cpu0_DTLB PREFETCH  ACCESS:          0  HIT:          0  MISS:          0
cpu0_DTLB WRITEBACK ACCESS:          0  HIT:          0  MISS:          0
cpu0_ITLB TOTAL     ACCESS:    6037325  HIT:    6036567  MISS:        758
cpu0_ITLB LOAD      ACCESS:    6037325  HIT:    6036567  MISS:        758
cpu0_ITLB RFO       ACCESS:          0  HIT:          0  MISS:          0
cpu0_ITLB PREFETCH  ACCESS:          0  HIT:          0  MISS:          0
cpu0_ITLB WRITEBACK ACCESS:          0  HIT:          0  MISS:          0
cpu0_L1I TOTAL     ACCESS:    1682970  HIT:    1681394  MISS:       1576
cpu0_L1I LOAD      ACCESS:    1682970  HIT:    1681394  MISS:       1576
cpu0_L1I RFO       ACCESS:          0  HIT:          0  MISS:          0
cpu0_L1I PREFETCH  ACCESS:          0  HIT:          0  MISS:          0
cpu0_L1I WRITEBACK ACCESS:          0  HIT:          0  MISS:          0
cpu0_STLB TOTAL     ACCESS:      45353  HIT:      45023  MISS:        330
cpu0_STLB LOAD      ACCESS:      41188  HIT:      41139  MISS:         49
cpu0_STLB RFO       ACCESS:       4165  HIT:       3884  MISS:        281
cpu0_STLB PREFETCH  ACCESS:          0  HIT:          0  MISS:          0
cpu0_STLB WRITEBACK ACCESS:          0  HIT:          0  MISS:          0
cpu0_L1D TOTAL     ACCESS:   19922204  HIT:   19779242  MISS:     142962
cpu0_L1D LOAD      ACCESS:   14152792  HIT:   14039229  MISS:     113563
cpu0_L1D RFO       ACCESS:    5769082  HIT:    5739693  MISS:      29389
cpu0_L1D PREFETCH  ACCESS:          0  HIT:          0  MISS:          0
cpu0_L1D WRITEBACK ACCESS:          0  HIT:          0  MISS:          0
cpu0_L2C TOTAL     ACCESS:     177358  HIT:      11650  MISS:     165708
cpu0_L2C LOAD      ACCESS:     115139  HIT:       3107  MISS:     112032
cpu0_L2C RFO       ACCESS:      29389  HIT:        621  MISS:      28768
cpu0_L2C PREFETCH  ACCESS:          0  HIT:          0  MISS:          0
cpu0_L2C WRITEBACK ACCESS:      32820  HIT:       7922  MISS:      24898
LLC TOTAL     ACCESS:     172957  HIT:     153799  MISS:      19158
LLC LOAD      ACCESS:     112032  HIT:     110906  MISS:       1126
LLC RFO       ACCESS:      28768  HIT:      10736  MISS:      18032
LLC PREFETCH  ACCESS:          0  HIT:          0  MISS:          0
LLC WRITEBACK ACCESS:      32147  HIT:      32147  MISS:          0
Heartbeat CPU 0 instructions: 106000002 cycles: 67641644 heartbeat IPC: 3.6949 cumulative IPC: 1.06786 (Simulation time: 1 hr 15 min 15 sec) 

Region of Interest Statistics
cpu0_DTLB TOTAL     ACCESS:   15533823  HIT:   15470259  MISS:      63564
cpu0_DTLB LOAD      ACCESS:   12166200  HIT:   12108375  MISS:      57825
cpu0_DTLB RFO       ACCESS:    3367623  HIT:    3361884  MISS:       5739
cpu0_DTLB PREFETCH  ACCESS:          0  HIT:          0  MISS:          0
cpu0_DTLB WRITEBACK ACCESS:          0  HIT:          0  MISS:          0
cpu0_ITLB TOTAL     ACCESS:    6236108  HIT:    6235350  MISS:        758
cpu0_ITLB LOAD      ACCESS:    6236108  HIT:    6235350  MISS:        758
cpu0_ITLB RFO       ACCESS:          0  HIT:          0  MISS:          0
cpu0_ITLB PREFETCH  ACCESS:          0  HIT:          0  MISS:          0
cpu0_ITLB WRITEBACK ACCESS:          0  HIT:          0  MISS:          0
cpu0_L1I TOTAL     ACCESS:    1682970  HIT:    1681394  MISS:       1576
cpu0_L1I LOAD      ACCESS:    1682970  HIT:    1681394  MISS:       1576
cpu0_L1I RFO       ACCESS:          0  HIT:          0  MISS:          0
cpu0_L1I PREFETCH  ACCESS:          0  HIT:          0  MISS:          0
cpu0_L1I WRITEBACK ACCESS:          0  HIT:          0  MISS:          0
cpu0_STLB TOTAL     ACCESS:      64322  HIT:      63992  MISS:        330
cpu0_STLB LOAD      ACCESS:      58583  HIT:      58534  MISS:         49
cpu0_STLB RFO       ACCESS:       5739  HIT:       5458  MISS:        281
cpu0_STLB PREFETCH  ACCESS:          0  HIT:          0  MISS:          0
cpu0_STLB WRITEBACK ACCESS:          0  HIT:          0  MISS:          0
cpu0_L1D TOTAL     ACCESS:   20321891  HIT:   20153947  MISS:     167944
cpu0_L1D LOAD      ACCESS:   14550905  HIT:   14412557  MISS:     138348
cpu0_L1D RFO       ACCESS:    5770656  HIT:    5741070  MISS:      29586
cpu0_L1D PREFETCH  ACCESS:          0  HIT:          0  MISS:          0
cpu0_L1D WRITEBACK ACCESS:          0  HIT:          0  MISS:          0
cpu0_L2C TOTAL     ACCESS:     202537  HIT:      11832  MISS:     190705
cpu0_L2C LOAD      ACCESS:     139924  HIT:       3107  MISS:     136817
cpu0_L2C RFO       ACCESS:      29586  HIT:        621  MISS:      28965
cpu0_L2C PREFETCH  ACCESS:          0  HIT:          0  MISS:          0
[...]
cpu0_DTLB LOAD      ACCESS:  296884337  HIT:  294353488  MISS:    2530849
cpu0_DTLB RFO       ACCESS:   57373505  HIT:   57125527  MISS:     247978
cpu0_DTLB PREFETCH  ACCESS:          0  HIT:          0  MISS:          0
cpu0_DTLB WRITEBACK ACCESS:          0  HIT:          0  MISS:          0
cpu0_DTLB TRANSLATION ACCESS:          0  HIT:          0  MISS:          0
cpu0_DTLB PREFETCH  REQUESTED:          0  ISSUED:          0  USEFUL:          0  USELESS:          0
cpu0_DTLB AVERAGE MISS LATENCY: 9.17152 cycles
cpu0_ITLB TOTAL     ACCESS:  167128793  HIT:  167124892  MISS:       3901
cpu0_ITLB LOAD      ACCESS:  167128793  HIT:  167124892  MISS:       3901
cpu0_ITLB RFO       ACCESS:          0  HIT:          0  MISS:          0
cpu0_ITLB PREFETCH  ACCESS:          0  HIT:          0  MISS:          0
cpu0_ITLB WRITEBACK ACCESS:          0  HIT:          0  MISS:          0
cpu0_ITLB TRANSLATION ACCESS:          0  HIT:          0  MISS:          0
cpu0_ITLB PREFETCH  REQUESTED:          0  ISSUED:          0  USEFUL:          0  USELESS:          0
cpu0_ITLB AVERAGE MISS LATENCY: 18.273 cycles
cpu0_L1I TOTAL     ACCESS:   60695757  HIT:   60687183  MISS:       8574
cpu0_L1I LOAD      ACCESS:   60695757  HIT:   60687183  MISS:       8574
cpu0_L1I RFO       ACCESS:          0  HIT:          0  MISS:          0
cpu0_L1I PREFETCH  ACCESS:          0  HIT:          0  MISS:          0
cpu0_L1I WRITEBACK ACCESS:          0  HIT:          0  MISS:          0
cpu0_L1I TRANSLATION ACCESS:          0  HIT:          0  MISS:          0
cpu0_L1I PREFETCH  REQUESTED:          0  ISSUED:          0  USEFUL:          0  USELESS:          0
cpu0_L1I AVERAGE MISS LATENCY: 119.341 cycles
cpu0_STLB TOTAL     ACCESS:    2782728  HIT:    2776864  MISS:       5864
cpu0_STLB LOAD      ACCESS:    2534750  HIT:    2531116  MISS:       3634
cpu0_STLB RFO       ACCESS:     247978  HIT:     245748  MISS:       2230
cpu0_STLB PREFETCH  ACCESS:          0  HIT:          0  MISS:          0
cpu0_STLB WRITEBACK ACCESS:          0  HIT:          0  MISS:          0
cpu0_STLB TRANSLATION ACCESS:          0  HIT:          0  MISS:          0
cpu0_STLB PREFETCH  REQUESTED:          0  ISSUED:          0  USEFUL:          0  USELESS:          0
cpu0_STLB AVERAGE MISS LATENCY: 86.8547 cycles
cpu0_L1D TOTAL     ACCESS:  419780393  HIT:  412295844  MISS:    7484549
cpu0_L1D LOAD      ACCESS:  330658357  HIT:  323697797  MISS:    6960560
cpu0_L1D RFO       ACCESS:   89116194  HIT:   88592652  MISS:     523542
cpu0_L1D PREFETCH  ACCESS:          0  HIT:          0  MISS:          0
cpu0_L1D WRITEBACK ACCESS:          0  HIT:          0  MISS:          0
cpu0_L1D TRANSLATION ACCESS:       5842  HIT:       5395  MISS:        447
cpu0_L1D PREFETCH  REQUESTED:          0  ISSUED:          0  USEFUL:          0  USELESS:          0
cpu0_L1D AVERAGE MISS LATENCY: 44.8377 cycles
cpu0_L2C TOTAL     ACCESS:    8445406  HIT:     603058  MISS:    7842348
cpu0_L2C LOAD      ACCESS:    6969064  HIT:     166249  MISS:    6802815
cpu0_L2C RFO       ACCESS:     523541  HIT:      39099  MISS:     484442
cpu0_L2C PREFETCH  ACCESS:          0  HIT:          0  MISS:          0
cpu0_L2C WRITEBACK ACCESS:     952354  HIT:     397635  MISS:     554719
cpu0_L2C TRANSLATION ACCESS:        447  HIT:         75  MISS:        372
cpu0_L2C PREFETCH  REQUESTED:          0  ISSUED:          0  USEFUL:          0  USELESS:          0
cpu0_L2C AVERAGE MISS LATENCY: 32.3859 cycles
LLC TOTAL     ACCESS:    8205666  HIT:    7627145  MISS:     578521
LLC LOAD      ACCESS:    6802635  HIT:    6377403  MISS:     425232
LLC RFO       ACCESS:     484441  HIT:     331200  MISS:     153241
LLC PREFETCH  ACCESS:          0  HIT:          0  MISS:          0
LLC WRITEBACK ACCESS:     918218  HIT:     918181  MISS:         37
LLC TRANSLATION ACCESS:        372  HIT:        361  MISS:         11
LLC PREFETCH  REQUESTED:          0  ISSUED:          0  USEFUL:          0  USELESS:          0
LLC AVERAGE MISS LATENCY: 174.487 cycles
~~~~~~~~~~Reuse Distance Profiler output~~~~~~~~~~
0	39581504	13117600
1	32905552	20592704
2	36908864	26121616
3	21575760	13998192
4	14577712	9196768
5	12686704	9501248
6	9703760	6337840
7	8879888	5460128
8	7526160	5318032
9	7536304	5738432
10	6340816	4650432
11	8476752	5699728
12	8860672	7226000
13	8794976	7423056
14	7672768	6929776
15	5833808	5341616
16	7430080	6978016
17	6740384	6313280
18	6004000	5633744
19	4250176	3866192
20	4834448	4350656
21	5783344	5245840
22	6308304	5690352
23	6922784	6322000
24	6982368	6390064
25	5800880	5288176
26	4403632	3997296
27	3631520	3322464
28	2547984	2311488
29	1757024	1564608
30	1602416	1401216
31	1132176	998080
32	917632	792048
33	734400	665584
34	653600	597856
35	591872	549488
36	555696	496336
37	563840	512384
38	548640	489712
39	444512	399776
40	591584	551904
41	581200	546000
42	458448	429456
43	485344	453920
44	537152	498112
45	417952	375680
46	360224	317984
47	370688	326544
48	484384	461776
49	408368	392224
50	409936	394912
51	403936	391456
52	341424	328896
53	414720	393472
54	480272	464464
55	474688	462800
56	383856	372656
57	286864	275296
58	258128	236080
59	209840	194048
60	336400	320192
61	398272	385264
62	399808	386688
63	478368	389152
64	595280	501888
66	483792	454064
68	488352	468560
70	385648	367360
72	331104	310944
74	284368	257136
76	278432	252736
78	436608	401888
80	336752	307808
82	277856	254192
84	270880	248288
86	263312	238752
88	263472	232368
90	285648	243376
92	261120	223728
94	275728	248560
96	330144	304976
98	263200	236880
100	281040	246608
102	412640	358752
104	397184	348928
106	513232	488576
108	575504	559488
110	488560	473664
112	387520	366912
114	351008	317984
116	700688	487008
118	533280	377136
120	328528	281184
122	267536	255248
124	248240	241072
126	221984	216592
128	423536	415376
132	416592	405680
136	413088	402944
140	373072	366192
144	340480	335216
148	288560	283520
152	276320	272304
156	280816	277024
160	270368	267472
164	265840	262640
168	239120	236176
172	219200	216352
176	216256	210208
180	233792	229536
184	256800	254512
188	282128	279632
192	241696	239056
196	217440	214800
200	208768	206304
204	237888	235072
208	304256	300880
212	326912	323856
216	336912	331904
220	712288	704464
224	1461808	1450944
228	1523296	1511536
232	538864	532960
236	407024	404240
240	436256	432048
244	645568	620512
248	4674848	4638464
252	52758944	52707200
256	2629088	2558784
264	319552	315968
272	262160	258080
280	242192	239472
288	277424	273168
296	307440	303072
304	284192	279520
312	226048	221712
320	209072	205168
328	195472	191280
336	186544	183392
344	197632	194976
352	183376	180656
360	168880	166832
368	156032	153904
376	143472	141312
384	142208	140288
392	128592	126640
400	122320	120512
408	116448	114688
416	113408	111296
424	104704	102832
432	89328	87376
440	87456	85968
448	87056	85600
456	77728	76192
464	72960	71120
472	75984	74448
480	73680	72160
488	72880	71152
496	76784	74832
504	73136	72016
512	151808	149248
528	123824	121280
544	100672	97520
560	105056	102592
576	93824	92032
592	89856	88048
608	101376	99488
624	449056	447440
640	4726880	4724928
656	1566240	1564192
672	1159440	1157808
688	60384	58512
704	51040	49552
720	48640	47024
736	65664	64480
752	44144	42400
768	37840	36128
784	36624	35440
800	39072	37744
816	35600	33984
832	35472	33888
848	33952	32448
864	37328	35712
880	40832	39536
896	35504	34000
912	33136	31776
928	26512	25552
944	28208	27392
960	23376	22336
976	18304	17536
992	12752	11984
1008	12960	12288
1024	34592	32624
1056	21824	20112
1088	24416	23216
1120	29520	27568
1152	26432	24640
1184	21184	19440
1216	20560	19440
1248	40112	39184
1280	78544	77312
1312	67248	65776
1344	89824	88992
1376	48912	47488
1408	32560	31568
1440	23632	22160
1472	34960	33856
1504	18768	17760
1536	13632	12496
1568	14224	13424
1600	62480	61680
1632	52608	51664
1664	55904	55184
1696	29568	28864
1728	22096	21488
1760	10832	10144
1792	9712	9008
1824	9296	8448
1856	9888	9232
1888	9280	8816
1920	10576	10064
1952	9888	9360
1984	10672	9904
2016	9984	9328
2048	18496	17504
2112	22960	21920
2176	18640	17440
2240	16240	15424
2304	16672	15712
2368	13504	12704
2432	15760	14944
2496	14848	13824
2560	15056	14160
2624	13360	12576
2688	12096	11328
2752	12016	11408
2816	12720	11616
2880	12352	11840
2944	11840	11472
3008	11760	11136
3072	12592	12064
3136	12640	11808
3200	10944	10384
3264	14976	14448
3328	12352	11600
3392	11168	10320
3456	10576	10000
3520	10432	9360
3584	9824	8928
3648	8672	8336
3712	9408	7552
3776	16528	14512
3840	16208	14736
3904	14496	13728
3968	10784	10240
4032	10432	9984
4096	17632	16768
4224	15696	14512
4352	16720	15520
4480	16864	14496
4608	13392	12416
4736	14080	12864
4864	11984	11040
4992	11344	10384
5120	12480	11552
5248	11632	10528
5376	12752	11936
5504	11904	10864
5632	12816	11792
5760	11328	10496
5888	11600	10816
6016	10144	9168
6144	9920	9232
6272	11408	10592
6400	11376	10528
6528	10224	9616
6656	8608	7840
6784	8240	7424
6912	9728	8944
7040	8928	8224
7168	9536	8960
7296	9200	8480
7424	9424	8400
7552	8480	7728
7680	9136	8224
7808	10320	9664
7936	13760	12992
8064	15120	14208
8192	21584	20048
8448	17456	15520
8704	16000	14320
8960	13856	12832
9216	14640	12736
9472	12496	10672
9728	13792	12128
9984	33568	32128
10240	12384	11152
10496	12960	10960
10752	10320	9024
11008	10752	9696
11264	13008	11840
11520	21696	20832
11776	8112	7344
12032	9104	8368
12288	9952	8944
12544	7952	7248
12800	21168	20784
13056	12032	11312
13312	8048	7456
13568	7088	6544
13824	16256	15680
14080	26176	25616
14336	6768	6112
14592	8336	7648
14848	6944	6304
15104	8096	7408
15360	7984	7152
15616	8096	7360
15872	6816	6176
16128	6272	5536
16384	147744	146800
16896	21968	21504
17408	468272	467424
17920	21152	20096
18432	10848	10448
18944	8624	8128
19456	8192	7632
19968	8144	7904
20480	9056	8704
20992	9280	8928
21504	8000	7712
22016	8656	8416
22528	8640	8432
23040	9792	9408
23552	9344	9056
24064	9728	9568
24576	9456	9152
25088	9920	9696
25600	10720	10352
26112	9280	9056
26624	7856	7696
27136	7696	7504
27648	5904	5616
28160	5824	5504
28672	5328	5152
29184	5248	5104
29696	4570784	4570480
30208	6000	5632
30720	11312	11104
31232	4480	4304
31744	5136	4944
32256	4704	4496
32768	11312	9680
33792	12672	10752
34816	13344	11936
35840	71856	70336
36864	28736	27792
37888	30544	29648
38912	7984	7360
39936	7728	7008
40960	9648	8832
41984	8624	8096
43008	8016	6560
44032	7792	6880
45056	8112	7104
46080	7392	6640
47104	7888	7248
48128	11568	7552
49152	8832	7872
50176	8464	7456
51200	8704	7984
52224	10144	9440
53248	9072	8048
54272	12128	9072
55296	9520	8272
56320	10080	8448
57344	8464	7312
58368	9536	8576
59392	9952	8576
60416	9040	7616
61440	9408	8160
62464	9376	7968
63488	9072	8304
64512	9648	8832
65536	11808	10544
67584	11024	9616
69632	13424	11776
71680	10080	8208
73728	9376	7920
75776	9472	8112
77824	13008	8208
79872	11712	10416
81920	24032	22624
83968	27536	26288
86016	7920	6976
88064	7488	6416
90112	8672	7168
92160	8160	6800
94208	7264	6240
96256	7776	6352
98304	7200	6288
100352	6544	5904
102400	7392	6608
104448	7920	7264
106496	7888	6800
108544	7696	6704
110592	7568	6864
112640	7712	6928
114688	8544	7584
116736	6976	6496
118784	11104	10672
120832	8448	8000
122880	3248	2496
124928	14480	2400
126976	3104	2432
129024	992624	992080
131072	6512	5360
135168	4320	3792
139264	4800	3824
143360	5712	4496
147456	5760	4400
151552	4704	4064
155648	3952	3264
159744	4768	3328
163840	6176	4816
167936	5680	4640
172032	4928	4416
176128	6048	5264
180224	6480	5552
184320	5984	4944
188416	4064	3792
192512	3728	3152
196608	4672	3520
200704	4912	3584
204800	3120	2832
208896	3104	2384
212992	4112	2880
217088	4272	3296
221184	4160	2928
225280	3440	2656
229376	4032	3216
233472	4960	4016
237568	5232	4160
241664	3920	3312
245760	4976	4096
249856	4640	3728
253952	4592	3504
258048	2592	2112
262144	5760	4288
270336	6208	4288
278528	4144	3168
286720	6000	4432
294912	4720	3600
303104	7728	5728
311296	4144	3520
319488	6992	4976
327680	4848	3792
335872	9952	8352
344064	4288	2960
352256	5184	3472
360448	4816	3360
368640	3904	2704
376832	6480	4288
385024	4480	2784
393216	6496	4032
401408	15408	13792
409600	5952	4224
417792	6128	5232
425984	5040	3280
434176	3392	2720
442368	4672	2272
450560	3040	2016
458752	4592	2592
466944	4848	2832
475136	4112	1920
483328	5088	2720
491520	7760	3296
499712	5632	2880
507904	15712	10080
516096	85920	81920
524288	17040	9280
540672	85248	80448
557056	13216	9648
573440	36928	34736
589824	29136	26608
606208	5120	3136
622592	7760	5440
638976	5328	3200
655360	13584	11952
671744	12800	10912
688128	9248	7936
704512	3552	1984
720896	4608	2944
737280	8400	6480
753664	4672	3232
770048	13072	11136
786432	13360	11744
802816	12880	11824
819200	12960	11760
835584	13392	11680
851968	15632	13968
868352	13680	11760
884736	16464	13904
901120	19824	17728
917504	12080	10192
933888	3248	1312
950272	3520	1632
966656	3056	1600
983040	3008	1680
999424	3392	2416
1015808	9696	5680
1032192	72832	71248
1048576	5936	4048
1081344	6000	4480
1114112	5424	3184
1146880	4192	2736
1179648	4848	3056
1212416	3792	2496
1245184	6224	4624
1277952	4384	3200
1310720	4624	2784
1343488	4320	2816
1376256	3600	2384
1409024	4144	2720
1441792	4080	2416
1474560	4736	3120
1507328	4096	2800
1540096	5232	3296
1572864	8208	6064
1605632	7920	6272
1638400	3712	2512
1671168	3904	2752
1703936	4272	2656
1736704	3856	2976
1769472	3536	2384
1802240	3696	2320
1835008	4480	2640
1867776	2464	1680
1900544	1920	1232
1933312	2032	1728
1966080	2304	1920
1998848	2672	2288
2031616	2688	2384
2064384	3712	3024
2097152	29024	27488
2162688	8880	7888
2228224	9072	7856
2293760	5904	4864
2359296	6080	5200
2424832	6752	5648
2490368	5456	4528
2555904	7488	6016
2621440	8112	7120
2686976	6784	5808
2752512	5504	4752
2818048	7776	6960
2883584	4944	4272
2949120	5984	5296
3014656	6064	5472
3080192	6032	5456
3145728	15136	14256
3211264	6320	5680
3276800	5088	4480
3342336	5056	4304
3407872	4896	4384
3473408	4992	4384
3538944	5376	4768
3604480	5856	5168
3670016	6624	5968
3735552	5872	5184
3801088	5520	4768
3866624	5328	4720
3932160	4784	4224
3997696	5088	4496
4063232	4720	4288
4128768	4688	4240
4194304	8864	7824
4325376	8672	7824
4456448	8064	7376
4587520	9184	8368
4718592	8416	7776
4849664	8928	8288
4980736	7856	7216
5111808	5392	4688
5242880	3568	3056
5373952	3840	3264
5505024	3664	3376
5636096	3184	2848
5767168	2960	2800
5898240	4912	4768
6029312	2672	2608
6160384	2976	2848
6291456	2704	2512
6422528	1632	1472
6553600	1472	640
6684672	1712	640
6815744	1616	496
6946816	1568	768
7077888	2048	848
7208960	1856	960
7340032	1744	560
7471104	1776	1104
7602176	1040	848
7733248	1488	1008
7864320	1328	912
7995392	1008	640
8126464	1200	672
8257536	1408	944
8388608	2176	1280
8650752	1776	1104
8912896	1952	1696
9175040	1984	1696
9437184	1600	1312
9699328	1120	864
9961472	1856	1568
10223616	1888	1616
10485760	1616	1344
10747904	1568	1296
11010048	1872	1600
11272192	2752	2384
11534336	1568	1360
11796480	4160	4000
12058624	1984	1952
12320768	3136	3120
12582912	1376	1280
12845056	2112	1920
13107200	2128	1824
13369344	2032	2032
13631488	2304	2048
13893632	2416	2160
14155776	1760	1488
14417920	2400	2144
14680064	1792	1536
14942208	3872	3616
15204352	1344	1088
15466496	1392	1104
15728640	816	592
15990784	1200	944
16252928	1456	1200
16515072	1344	1088
16777216	2128	1584
17301504	2080	1760
17825792	1088	1072
18350080	2032	2032
18874368	1552	1360
19398656	2544	2160
19922944	1664	1152
20447232	1856	1328
20971520	1552	1040
21495808	1680	1168
22020096	2592	2064
22544384	2816	2304
23068672	1696	1136
23592960	800	800
24117248	1824	1600
24641536	1504	1472
25165824	1792	1568
25690112	1744	1232
26214400	3408	2880
26738688	2688	2160
27262976	1600	1072
27787264	1328	800
28311552	1328	784
28835840	1648	1136
29360128	1120	1040
29884416	1296	1296
30408704	3008	784
30932992	1504	1312
31457280	2112	1408
31981568	1968	1424
32505856	2192	1552
33030144	2112	688
33554432	4816	1984
34603008	4176	1776
35651584	8848	5392
36700160	3824	3280
37748736	2880	1680
38797312	4480	1744
39845888	2880	1840
40894464	2544	2240
41943040	13424	3952
42991616	9472	2112
44040192	7328	2576
45088768	2816	1776
46137344	3792	2848
47185920	13664	2096
48234496	4608	2272
49283072	1696	1696
50331648	3088	2784
51380224	2800	2800
52428800	2096	1952
53477376	4528	2272
54525952	1680	1680
55574528	2480	2416
56623104	2192	1984
57671680	1376	1360
58720256	4624	2672
59768832	2288	2208
60817408	2416	2400
61865984	4656	4608
62914560	3376	3312
63963136	3376	3360
65011712	4000	2256
66060288	2544	2528
67108864	5712	5696
69206016	5472	5472
71303168	5888	5888
73400320	6528	6496
75497472	5424	5424
77594624	4816	4800
79691776	6352	6352
81788928	6320	6320
83886080	2816	2800
85983232	1456	1024
88080384	784	720
90177536	560	560
92274688	1088	1088
94371840	816	816
96468992	1008	1008
98566144	880	880
100663296	944	944
102760448	992	992
104857600	976	976
106954752	832	816
109051904	944	928
111149056	752	720
113246208	736	736
115343360	864	864
117440512	560	560
119537664	752	736
121634816	560	560
123731968	672	592
125829120	480	464
127926272	576	576
130023424	448	448
132120576	416	400
134217728	816	752
138412032	592	592
142606336	720	672
146800640	672	672
150994944	7376	1008
155189248	2992	1088
159383552	640	640
163577856	2224	512
167772160	2272	464
171966464	512	512
176160768	2672	896
180355072	3104	880
184549376	640	368
188743680	896	896
192937984	496	496
197132288	480	432
201326592	224	224
205520896	304	304
209715200	160	160
213909504	48	48
218103808	64	64
222298112	80	80
226492416	160	160
230686720	112	112
234881024	80	80
239075328	144	144
243269632	64	64
247463936	96	96
251658240	80	80
255852544	64	64
260046848	80	80
264241152	80	80
268435456	0	0
276824064	0	0
285212672	32	32
293601280	1072	352
301989888	368	160
310378496	16	16
318767104	0	0
327155712	0	0
335544320	0	0
343932928	96	0
352321536	0	0
360710144	0	0
369098752	0	0
377487360	0	0
385875968	0	0
394264576	0	0
402653184	0	0
411041792	0	0
419430400	0	0
427819008	0	0
436207616	0	0
444596224	0	0
452984832	0	0
461373440	0	0
469762048	0	0
478150656	0	0
486539264	0	0
494927872	0	0
503316480	0	0
511705088	0	0
520093696	0	0
528482304	0	0
536870912	0	0
553648128	0	0
570425344	0	0
587202560	0	0
603979776	0	0
620756992	0	0
637534208	0	0
654311424	0	0
671088640	0	0
687865856	0	0
704643072	0	0
721420288	0	0
738197504	0	0
754974720	0	0
771751936	0	0
788529152	0	0
805306368	0	0
822083584	0	0
838860800	0	0
855638016	0	0
872415232	0	0
889192448	0	0
905969664	0	0
922746880	0	0
939524096	0	0
956301312	0	0
973078528	0	0
989855744	0	0
1006632960	0	0
1023410176	0	0
1040187392	0	0
1056964608	0	0
1073741824	0	0
1107296256	0	0
1140850688	0	0
1174405120	0	0
1207959552	0	0
1241513984	0	0
1275068416	0	0
1308622848	0	0
1342177280	0	0
1375731712	0	0
1409286144	0	0
1442840576	0	0
1476395008	0	0
1509949440	0	0
1543503872	0	0
1577058304	0	0
1610612736	0	0
1644167168	0	0
1677721600	0	0
1711276032	0	0
1744830464	0	0
1778384896	0	0
1811939328	0	0
1845493760	0	0
1879048192	0	0
1912602624	0	0
1946157056	0	0
1979711488	0	0
2013265920	0	0
2046820352	0	0
2080374784	0	0
2113929216	0	0
2147483648	0	0
2214592512	0	0
2281701376	0	0
2348810240	0	0
2415919104	0	0
2483027968	0	0
2550136832	0	0
2617245696	0	0
2684354560	0	0
2751463424	0	0
2818572288	0	0
2885681152	0	0
2952790016	0	0
3019898880	0	0
3087007744	0	0
3154116608	0	0
3221225472	0	0
3288334336	0	0
3355443200	0	0
3422552064	0	0
3489660928	0	0
3556769792	0	0
3623878656	0	0
3690987520	0	0
3758096384	0	0
3825205248	0	0
3892314112	0	0
3959422976	0	0
4026531840	0	0
4093640704	0	0
4160749568	0	0
4227858432	0	0
~~~~~~~~~~Reuse Distance Profiler output end~~~~~~~~~~

Sampler size:8483

DRAM Statistics
 CHANNEL 0
 RQ ROW_BUFFER_HIT:     148749  ROW_BUFFER_MISS:     429707
 DBUS AVG_CONGESTED_CYCLE:    3.96671
 WQ ROW_BUFFER_HIT:      70268  ROW_BUFFER_MISS:     193430  FULL:          0


CPU 0 Branch Prediction Accuracy: 82.7617% MPKI: 26.2558 Average ROB Occupancy at Mispredict: 16.7487
Branch type MPKI
BRANCH_DIRECT_JUMP: 0.000304667
BRANCH_INDIRECT: 0.0663967
BRANCH_CONDITIONAL: 26.1875
BRANCH_DIRECT_CALL: 0.000694667
BRANCH_INDIRECT_CALL: 0.000202
BRANCH_RETURN: 0.000666

