
*** ChampSim Multicore Out-of-Order Simulator ***

Warmup Instructions: 50000000
Simulation Instructions: 1500000000
Number of CPUs: 1
Off-chip DRAM Size: 4 GiB Channels: 1 Width: 64-bit Data Rate: 3200 MT/s

VirtualMemory physical capacity: 8588881920 num_ppages: 2096895
VirtualMemory page size: 4096 log2_page_size: 12

CPU 0 runs /s/traces/champsim_traces/458.sjeng-283B.champsimtrace.xz
CPU 0 Bimodal branch predictor
Basic BTB sets: 1024 ways: 8 indirect buffer size: 4096 RAS size: 64
Initializing LRU.
Initializing LRU.
Initializing LRU.
Initializing LRU.
Initializing rdLRU.
Initializing LRU.
Initializing LRU.
Heartbeat CPU 0 instructions: 2000001 cycles: 500248 heartbeat IPC: 3.99802 cumulative IPC: 3.99802 (Simulation time: 0 hr 0 min 53 sec) 
Heartbeat CPU 0 instructions: 4000000 cycles: 1000281 heartbeat IPC: 3.99973 cumulative IPC: 3.99888 (Simulation time: 0 hr 1 min 57 sec) 
Heartbeat CPU 0 instructions: 6000000 cycles: 1500281 heartbeat IPC: 4 cumulative IPC: 3.99925 (Simulation time: 0 hr 3 min 1 sec) 
Heartbeat CPU 0 instructions: 8000000 cycles: 2000281 heartbeat IPC: 4 cumulative IPC: 3.99944 (Simulation time: 0 hr 4 min 2 sec) 
Heartbeat CPU 0 instructions: 10000000 cycles: 2500281 heartbeat IPC: 4 cumulative IPC: 3.99955 (Simulation time: 0 hr 5 min 16 sec) 
Heartbeat CPU 0 instructions: 12000000 cycles: 3000281 heartbeat IPC: 4 cumulative IPC: 3.99963 (Simulation time: 0 hr 6 min 20 sec) 
Heartbeat CPU 0 instructions: 14000000 cycles: 3500281 heartbeat IPC: 4 cumulative IPC: 3.99968 (Simulation time: 0 hr 7 min 22 sec) 
Heartbeat CPU 0 instructions: 16000000 cycles: 4000281 heartbeat IPC: 4 cumulative IPC: 3.99972 (Simulation time: 0 hr 8 min 24 sec) 
Heartbeat CPU 0 instructions: 18000001 cycles: 4500291 heartbeat IPC: 3.99992 cumulative IPC: 3.99974 (Simulation time: 0 hr 9 min 26 sec) 
Heartbeat CPU 0 instructions: 20000001 cycles: 5000342 heartbeat IPC: 3.99959 cumulative IPC: 3.99973 (Simulation time: 0 hr 10 min 29 sec) 
Heartbeat CPU 0 instructions: 22000001 cycles: 5500342 heartbeat IPC: 4 cumulative IPC: 3.99975 (Simulation time: 0 hr 11 min 32 sec) 
Heartbeat CPU 0 instructions: 24000002 cycles: 6000359 heartbeat IPC: 3.99987 cumulative IPC: 3.99976 (Simulation time: 0 hr 12 min 38 sec) 
Heartbeat CPU 0 instructions: 26000002 cycles: 6500359 heartbeat IPC: 4 cumulative IPC: 3.99978 (Simulation time: 0 hr 13 min 44 sec) 
Heartbeat CPU 0 instructions: 28000002 cycles: 7000359 heartbeat IPC: 4 cumulative IPC: 3.9998 (Simulation time: 0 hr 14 min 47 sec) 
Heartbeat CPU 0 instructions: 30000002 cycles: 7500359 heartbeat IPC: 4 cumulative IPC: 3.99981 (Simulation time: 0 hr 15 min 58 sec) 
Heartbeat CPU 0 instructions: 32000002 cycles: 8000359 heartbeat IPC: 4 cumulative IPC: 3.99982 (Simulation time: 0 hr 17 min 4 sec) 
Heartbeat CPU 0 instructions: 34000002 cycles: 8500359 heartbeat IPC: 4 cumulative IPC: 3.99983 (Simulation time: 0 hr 18 min 6 sec) 
Heartbeat CPU 0 instructions: 36000002 cycles: 9000359 heartbeat IPC: 4 cumulative IPC: 3.99984 (Simulation time: 0 hr 19 min 10 sec) 
Heartbeat CPU 0 instructions: 38000002 cycles: 9500359 heartbeat IPC: 4 cumulative IPC: 3.99985 (Simulation time: 0 hr 20 min 13 sec) 
Heartbeat CPU 0 instructions: 40000002 cycles: 10000359 heartbeat IPC: 4 cumulative IPC: 3.99986 (Simulation time: 0 hr 21 min 17 sec) 
Heartbeat CPU 0 instructions: 42000002 cycles: 10500359 heartbeat IPC: 4 cumulative IPC: 3.99986 (Simulation time: 0 hr 22 min 20 sec) 
Heartbeat CPU 0 instructions: 44000002 cycles: 11000359 heartbeat IPC: 4 cumulative IPC: 3.99987 (Simulation time: 0 hr 23 min 24 sec) 
Heartbeat CPU 0 instructions: 46000002 cycles: 11500359 heartbeat IPC: 4 cumulative IPC: 3.99988 (Simulation time: 0 hr 24 min 26 sec) 
Heartbeat CPU 0 instructions: 48000002 cycles: 12000359 heartbeat IPC: 4 cumulative IPC: 3.99988 (Simulation time: 0 hr 25 min 28 sec) 
Heartbeat CPU 0 instructions: 50000002 cycles: 12500359 heartbeat IPC: 4 cumulative IPC: 3.99989 (Simulation time: 0 hr 26 min 32 sec) 

Warmup complete CPU 0 instructions: 50000002 cycles: 12500359 (Simulation time: 0 hr 26 min 32 sec) 

Heartbeat CPU 0 instructions: 52000001 cycles: 14997574 heartbeat IPC: 0.800892 cumulative IPC: 0.800892 (Simulation time: 0 hr 27 min 38 sec) 

Region of Interest Statistics
cpu0_DTLB TOTAL     ACCESS:     435106  HIT:     432136  MISS:       2970
cpu0_DTLB LOAD      ACCESS:     332811  HIT:     330162  MISS:       2649
cpu0_DTLB RFO       ACCESS:     102295  HIT:     101974  MISS:        321
cpu0_DTLB PREFETCH  ACCESS:          0  HIT:          0  MISS:          0
cpu0_DTLB WRITEBACK ACCESS:          0  HIT:          0  MISS:          0
cpu0_ITLB TOTAL     ACCESS:     198698  HIT:     198698  MISS:          0
cpu0_ITLB LOAD      ACCESS:     198698  HIT:     198698  MISS:          0
cpu0_ITLB RFO       ACCESS:          0  HIT:          0  MISS:          0
cpu0_ITLB PREFETCH  ACCESS:          0  HIT:          0  MISS:          0
cpu0_ITLB WRITEBACK ACCESS:          0  HIT:          0  MISS:          0
cpu0_L1I TOTAL     ACCESS:     150554  HIT:     150541  MISS:         13
cpu0_L1I LOAD      ACCESS:     150554  HIT:     150541  MISS:         13
cpu0_L1I RFO       ACCESS:          0  HIT:          0  MISS:          0
cpu0_L1I PREFETCH  ACCESS:          0  HIT:          0  MISS:          0
cpu0_L1I WRITEBACK ACCESS:          0  HIT:          0  MISS:          0
cpu0_STLB TOTAL     ACCESS:       2970  HIT:       2197  MISS:        773
cpu0_STLB LOAD      ACCESS:       2649  HIT:       1878  MISS:        771
cpu0_STLB RFO       ACCESS:        321  HIT:        319  MISS:          2
cpu0_STLB PREFETCH  ACCESS:          0  HIT:          0  MISS:          0
cpu0_STLB WRITEBACK ACCESS:          0  HIT:          0  MISS:          0
cpu0_L1D TOTAL     ACCESS:     527213  HIT:     525896  MISS:       1317
cpu0_L1D LOAD      ACCESS:     357897  HIT:     356748  MISS:       1149
cpu0_L1D RFO       ACCESS:     168543  HIT:     168377  MISS:        166
cpu0_L1D PREFETCH  ACCESS:          0  HIT:          0  MISS:          0
cpu0_L1D WRITEBACK ACCESS:          0  HIT:          0  MISS:          0
cpu0_L2C TOTAL     ACCESS:       2224  HIT:       1008  MISS:       1216
cpu0_L2C LOAD      ACCESS:       1162  HIT:        162  MISS:       1000
cpu0_L2C RFO       ACCESS:        166  HIT:         60  MISS:        106
cpu0_L2C PREFETCH  ACCESS:          0  HIT:          0  MISS:          0
cpu0_L2C WRITEBACK ACCESS:        894  HIT:        786  MISS:        108
LLC TOTAL     ACCESS:       1946  HIT:       1065  MISS:        881
LLC LOAD      ACCESS:       1000  HIT:        178  MISS:        822
LLC RFO       ACCESS:        106  HIT:         47  MISS:         59
LLC PREFETCH  ACCESS:          0  HIT:          0  MISS:          0
LLC WRITEBACK ACCESS:        838  HIT:        838  MISS:          0
Heartbeat CPU 0 instructions: 54000002 cycles: 17528547 heartbeat IPC: 0.79021 cumulative IPC: 0.795515 (Simulation time: 0 hr 28 min 44 sec) 

Region of Interest Statistics
cpu0_DTLB TOTAL     ACCESS:     883134  HIT:     876900  MISS:       6234
cpu0_DTLB LOAD      ACCESS:     671380  HIT:     665907  MISS:       5473
cpu0_DTLB RFO       ACCESS:     211754  HIT:     210993  MISS:        761
cpu0_DTLB PREFETCH  ACCESS:          0  HIT:          0  MISS:          0
cpu0_DTLB WRITEBACK ACCESS:          0  HIT:          0  MISS:          0
cpu0_ITLB TOTAL     ACCESS:     393824  HIT:     393824  MISS:          0
cpu0_ITLB LOAD      ACCESS:     393824  HIT:     393824  MISS:          0
cpu0_ITLB RFO       ACCESS:          0  HIT:          0  MISS:          0
cpu0_ITLB PREFETCH  ACCESS:          0  HIT:          0  MISS:          0
cpu0_ITLB WRITEBACK ACCESS:          0  HIT:          0  MISS:          0
cpu0_L1I TOTAL     ACCESS:     300743  HIT:     300672  MISS:         71
cpu0_L1I LOAD      ACCESS:     300743  HIT:     300672  MISS:         71
cpu0_L1I RFO       ACCESS:          0  HIT:          0  MISS:          0
cpu0_L1I PREFETCH  ACCESS:          0  HIT:          0  MISS:          0
cpu0_L1I WRITEBACK ACCESS:          0  HIT:          0  MISS:          0
cpu0_STLB TOTAL     ACCESS:       6234  HIT:       4655  MISS:       1579
cpu0_STLB LOAD      ACCESS:       5473  HIT:       3904  MISS:       1569
cpu0_STLB RFO       ACCESS:        761  HIT:        751  MISS:         10
cpu0_STLB PREFETCH  ACCESS:          0  HIT:          0  MISS:          0
cpu0_STLB WRITEBACK ACCESS:          0  HIT:          0  MISS:          0
cpu0_L1D TOTAL     ACCESS:    1062485  HIT:    1059406  MISS:       3079
cpu0_L1D LOAD      ACCESS:     711847  HIT:     709319  MISS:       2528
cpu0_L1D RFO       ACCESS:     349059  HIT:     348516  MISS:        543
cpu0_L1D PREFETCH  ACCESS:          0  HIT:          0  MISS:          0
cpu0_L1D WRITEBACK ACCESS:          0  HIT:          0  MISS:          0
cpu0_L2C TOTAL     ACCESS:       5163  HIT:       2363  MISS:       2800
cpu0_L2C LOAD      ACCESS:       2599  HIT:        366  MISS:       2233
cpu0_L2C RFO       ACCESS:        543  HIT:        214  MISS:        329
cpu0_L2C PREFETCH  ACCESS:          0  HIT:          0  MISS:          0
cpu0_L2C WRITEBACK ACCESS:       2013  HIT:       1780  MISS:        233
LLC TOTAL     ACCESS:       4483  HIT:       2640  MISS:       1843
LLC LOAD      ACCESS:       2233  HIT:        512  MISS:       1721
LLC RFO       ACCESS:        329  HIT:        207  MISS:        122
LLC PREFETCH  ACCESS:          0  HIT:          0  MISS:          0
LLC WRITEBACK ACCESS:       1916  HIT:       1916  MISS:          0
Heartbeat CPU 0 instructions: 56000003 cycles: 20073081 heartbeat IPC: 0.785999 cumulative IPC: 0.792318 (Simulation time: 0 hr 29 min 50 sec) 

Region of Interest Statistics
cpu0_DTLB TOTAL     ACCESS:    1329811  HIT:    1320330  MISS:       9481
cpu0_DTLB LOAD      ACCESS:    1012532  HIT:    1004345  MISS:       8187
cpu0_DTLB RFO       ACCESS:     317279  HIT:     315985  MISS:       1294
cpu0_DTLB PREFETCH  ACCESS:          0  HIT:          0  MISS:          0
cpu0_DTLB WRITEBACK ACCESS:          0  HIT:          0  MISS:          0
cpu0_ITLB TOTAL     ACCESS:     588599  HIT:     588599  MISS:          0
cpu0_ITLB LOAD      ACCESS:     588599  HIT:     588599  MISS:          0
cpu0_ITLB RFO       ACCESS:          0  HIT:          0  MISS:          0
cpu0_ITLB PREFETCH  ACCESS:          0  HIT:          0  MISS:          0
cpu0_ITLB WRITEBACK ACCESS:          0  HIT:          0  MISS:          0
cpu0_L1I TOTAL     ACCESS:     452393  HIT:     452296  MISS:         97
cpu0_L1I LOAD      ACCESS:     452393  HIT:     452296  MISS:         97
cpu0_L1I RFO       ACCESS:          0  HIT:          0  MISS:          0
cpu0_L1I PREFETCH  ACCESS:          0  HIT:          0  MISS:          0
cpu0_L1I WRITEBACK ACCESS:          0  HIT:          0  MISS:          0
cpu0_STLB TOTAL     ACCESS:       9481  HIT:       7135  MISS:       2346
cpu0_STLB LOAD      ACCESS:       8187  HIT:       5857  MISS:       2330
cpu0_STLB RFO       ACCESS:       1294  HIT:       1278  MISS:         16
cpu0_STLB PREFETCH  ACCESS:          0  HIT:          0  MISS:          0
cpu0_STLB WRITEBACK ACCESS:          0  HIT:          0  MISS:          0
cpu0_L1D TOTAL     ACCESS:    1596456  HIT:    1591845  MISS:       4611
cpu0_L1D LOAD      ACCESS:    1068338  HIT:    1064581  MISS:       3757
cpu0_L1D RFO       ACCESS:     525772  HIT:     524928  MISS:        844
cpu0_L1D PREFETCH  ACCESS:          0  HIT:          0  MISS:          0
cpu0_L1D WRITEBACK ACCESS:          0  HIT:          0  MISS:          0
cpu0_L2C TOTAL     ACCESS:       7818  HIT:       3747  MISS:       4071
cpu0_L2C LOAD      ACCESS:       3854  HIT:        579  MISS:       3275
cpu0_L2C RFO       ACCESS:        844  HIT:        345  MISS:        499
cpu0_L2C PREFETCH  ACCESS:          0  HIT:          0  MISS:          0
cpu0_L2C WRITEBACK ACCESS:       3110  HIT:       2819  MISS:        291
LLC TOTAL     ACCESS:       6592  HIT:       3839  MISS:       2753
LLC LOAD      ACCESS:       3275  HIT:        714  MISS:       2561
LLC RFO       ACCESS:        499  HIT:        307  MISS:        192
LLC PREFETCH  ACCESS:          0  HIT:          0  MISS:          0
LLC WRITEBACK ACCESS:       2812  HIT:       2812  MISS:          0
Heartbeat CPU 0 instructions: 58000004 cycles: 22533744 heartbeat IPC: 0.812789 cumulative IPC: 0.797338 (Simulation time: 0 hr 30 min 59 sec) 

Region of Interest Statistics
cpu0_DTLB TOTAL     ACCESS:    1777220  HIT:    1764544  MISS:      12676
cpu0_DTLB LOAD      ACCESS:    1350778  HIT:    1339924  MISS:      10854
cpu0_DTLB RFO       ACCESS:     426442  HIT:     424620  MISS:       1822
cpu0_DTLB PREFETCH  ACCESS:          0  HIT:          0  MISS:          0
cpu0_DTLB WRITEBACK ACCESS:          0  HIT:          0  MISS:          0
cpu0_ITLB TOTAL     ACCESS:     785997  HIT:     785997  MISS:          0
cpu0_ITLB LOAD      ACCESS:     785997  HIT:     785997  MISS:          0
cpu0_ITLB RFO       ACCESS:          0  HIT:          0  MISS:          0
cpu0_ITLB PREFETCH  ACCESS:          0  HIT:          0  MISS:          0
cpu0_ITLB WRITEBACK ACCESS:          0  HIT:          0  MISS:          0
cpu0_L1I TOTAL     ACCESS:     593354  HIT:     593245  MISS:        109
cpu0_L1I LOAD      ACCESS:     593354  HIT:     593245  MISS:        109
cpu0_L1I RFO       ACCESS:          0  HIT:          0  MISS:          0
cpu0_L1I PREFETCH  ACCESS:          0  HIT:          0  MISS:          0
cpu0_L1I WRITEBACK ACCESS:          0  HIT:          0  MISS:          0
cpu0_STLB TOTAL     ACCESS:      12676  HIT:       9649  MISS:       3027
cpu0_STLB LOAD      ACCESS:      10854  HIT:       7845  MISS:       3009
cpu0_STLB RFO       ACCESS:       1822  HIT:       1804  MISS:         18
cpu0_STLB PREFETCH  ACCESS:          0  HIT:          0  MISS:          0
cpu0_STLB WRITEBACK ACCESS:          0  HIT:          0  MISS:          0
cpu0_L1D TOTAL     ACCESS:    2130860  HIT:    2124768  MISS:       6092
cpu0_L1D LOAD      ACCESS:    1418596  HIT:    1413711  MISS:       4885
cpu0_L1D RFO       ACCESS:     709237  HIT:     708042  MISS:       1195
cpu0_L1D PREFETCH  ACCESS:          0  HIT:          0  MISS:          0
cpu0_L1D WRITEBACK ACCESS:          0  HIT:          0  MISS:          0
cpu0_L2C TOTAL     ACCESS:      10339  HIT:       5049  MISS:       5290
cpu0_L2C LOAD      ACCESS:       4994  HIT:        741  MISS:       4253
cpu0_L2C RFO       ACCESS:       1195  HIT:        546  MISS:        649
cpu0_L2C PREFETCH  ACCESS:          0  HIT:          0  MISS:          0
cpu0_L2C WRITEBACK ACCESS:       4138  HIT:       3758  MISS:        380
LLC TOTAL     ACCESS:       8604  HIT:       5080  MISS:       3524
LLC LOAD      ACCESS:       4253  HIT:        963  MISS:       3290
LLC RFO       ACCESS:        649  HIT:        415  MISS:        234
LLC PREFETCH  ACCESS:          0  HIT:          0  MISS:          0
LLC WRITEBACK ACCESS:       3694  HIT:       3694  MISS:          0
Heartbeat CPU 0 instructions: 60000003 cycles: 25111536 heartbeat IPC: 0.775857 cumulative IPC: 0.792947 (Simulation time: 0 hr 32 min 5 sec) 

Region of Interest Statistics
cpu0_DTLB TOTAL     ACCESS:    2224289  HIT:    2208131  MISS:      16158
cpu0_DTLB LOAD      ACCESS:    1692205  HIT:    1678427  MISS:      13778
cpu0_DTLB RFO       ACCESS:     532084  HIT:     529704  MISS:       2380
cpu0_DTLB PREFETCH  ACCESS:          0  HIT:          0  MISS:          0
cpu0_DTLB WRITEBACK ACCESS:          0  HIT:          0  MISS:          0
cpu0_ITLB TOTAL     ACCESS:     979975  HIT:     979975  MISS:          0
cpu0_ITLB LOAD      ACCESS:     979975  HIT:     979975  MISS:          0
cpu0_ITLB RFO       ACCESS:          0  HIT:          0  MISS:          0
cpu0_ITLB PREFETCH  ACCESS:          0  HIT:          0  MISS:          0
cpu0_ITLB WRITEBACK ACCESS:          0  HIT:          0  MISS:          0
cpu0_L1I TOTAL     ACCESS:     747508  HIT:     747377  MISS:        131
cpu0_L1I LOAD      ACCESS:     747508  HIT:     747377  MISS:        131
cpu0_L1I RFO       ACCESS:          0  HIT:          0  MISS:          0
cpu0_L1I PREFETCH  ACCESS:          0  HIT:          0  MISS:          0
cpu0_L1I WRITEBACK ACCESS:          0  HIT:          0  MISS:          0
cpu0_STLB TOTAL     ACCESS:      16158  HIT:      12406  MISS:       3752
cpu0_STLB LOAD      ACCESS:      13778  HIT:      10046  MISS:       3732
cpu0_STLB RFO       ACCESS:       2380  HIT:       2360  MISS:         20
cpu0_STLB PREFETCH  ACCESS:          0  HIT:          0  MISS:          0
cpu0_STLB WRITEBACK ACCESS:          0  HIT:          0  MISS:          0
cpu0_L1D TOTAL     ACCESS:    2667832  HIT:    2660373  MISS:       7459
cpu0_L1D LOAD      ACCESS:    1776639  HIT:    1770621  MISS:       6018
cpu0_L1D RFO       ACCESS:     887441  HIT:     886015  MISS:       1426
cpu0_L1D PREFETCH  ACCESS:          0  HIT:          0  MISS:          0
cpu0_L1D WRITEBACK ACCESS:          0  HIT:          0  MISS:          0
cpu0_L2C TOTAL     ACCESS:      12749  HIT:       6255  MISS:       6494
cpu0_L2C LOAD      ACCESS:       6149  HIT:        875  MISS:       5274
cpu0_L2C RFO       ACCESS:       1425  HIT:        665  MISS:        760
cpu0_L2C PREFETCH  ACCESS:          0  HIT:          0  MISS:          0
cpu0_L2C WRITEBACK ACCESS:       5160  HIT:       4710  MISS:        450
LLC TOTAL     ACCESS:      10642  HIT:       6280  MISS:       4362
LLC LOAD      ACCESS:       5274  HIT:       1197  MISS:       4077
LLC RFO       ACCESS:        760  HIT:        475  MISS:        285
LLC PREFETCH  ACCESS:          0  HIT:          0  MISS:          0
LLC WRITEBACK ACCESS:       4598  HIT:       4598  MISS:          0
Heartbeat CPU 0 instructions: 62000003 cycles: 27667677 heartbeat IPC: 0.782429 cumulative IPC: 0.791175 (Simulation time: 0 hr 33 min 14 sec) 

Region of Interest Statistics
cpu0_DTLB TOTAL     ACCESS:    2665364  HIT:    2645811  MISS:      19553
cpu0_DTLB LOAD      ACCESS:    2027020  HIT:    2010337  MISS:      16683
cpu0_DTLB RFO       ACCESS:     638344  HIT:     635474  MISS:       2870
cpu0_DTLB PREFETCH  ACCESS:          0  HIT:          0  MISS:          0
cpu0_DTLB WRITEBACK ACCESS:          0  HIT:          0  MISS:          0
cpu0_ITLB TOTAL     ACCESS:    1177616  HIT:    1177616  MISS:          0
cpu0_ITLB LOAD      ACCESS:    1177616  HIT:    1177616  MISS:          0
cpu0_ITLB RFO       ACCESS:          0  HIT:          0  MISS:          0
cpu0_ITLB PREFETCH  ACCESS:          0  HIT:          0  MISS:          0
cpu0_ITLB WRITEBACK ACCESS:          0  HIT:          0  MISS:          0
cpu0_L1I TOTAL     ACCESS:     896703  HIT:     896559  MISS:        144
cpu0_L1I LOAD      ACCESS:     896703  HIT:     896559  MISS:        144
cpu0_L1I RFO       ACCESS:          0  HIT:          0  MISS:          0
cpu0_L1I PREFETCH  ACCESS:          0  HIT:          0  MISS:          0
cpu0_L1I WRITEBACK ACCESS:          0  HIT:          0  MISS:          0
cpu0_STLB TOTAL     ACCESS:      19553  HIT:      14873  MISS:       4680
cpu0_STLB LOAD      ACCESS:      16683  HIT:      12029  MISS:       4654
cpu0_STLB RFO       ACCESS:       2870  HIT:       2844  MISS:         26
cpu0_STLB PREFETCH  ACCESS:          0  HIT:          0  MISS:          0
cpu0_STLB WRITEBACK ACCESS:          0  HIT:          0  MISS:          0
cpu0_L1D TOTAL     ACCESS:    3196175  HIT:    3186814  MISS:       9361
cpu0_L1D LOAD      ACCESS:    2127271  HIT:    2119764  MISS:       7507
cpu0_L1D RFO       ACCESS:    1064224  HIT:    1062388  MISS:       1836
cpu0_L1D PREFETCH  ACCESS:          0  HIT:          0  MISS:          0
cpu0_L1D WRITEBACK ACCESS:          0  HIT:          0  MISS:          0
cpu0_L2C TOTAL     ACCESS:      15886  HIT:       7731  MISS:       8155
cpu0_L2C LOAD      ACCESS:       7651  HIT:       1074  MISS:       6577
cpu0_L2C RFO       ACCESS:       1835  HIT:        862  MISS:        973
cpu0_L2C PREFETCH  ACCESS:          0  HIT:          0  MISS:          0
cpu0_L2C WRITEBACK ACCESS:       6382  HIT:       5790  MISS:        592
LLC TOTAL     ACCESS:      13288  HIT:       7958  MISS:       5330
LLC LOAD      ACCESS:       6577  HIT:       1596  MISS:       4981
LLC RFO       ACCESS:        973  HIT:        624  MISS:        349
LLC PREFETCH  ACCESS:          0  HIT:          0  MISS:          0
LLC WRITEBACK ACCESS:       5725  HIT:       5725  MISS:          0
Heartbeat CPU 0 instructions: 64000000 cycles: 30213804 heartbeat IPC: 0.785506 cumulative IPC: 0.79036 (Simulation time: 0 hr 34 min 20 sec) 

Region of Interest Statistics
cpu0_DTLB TOTAL     ACCESS:    3111121  HIT:    3088157  MISS:      22964
cpu0_DTLB LOAD      ACCESS:    2364318  HIT:    2344671  MISS:      19647
cpu0_DTLB RFO       ACCESS:     746803  HIT:     743486  MISS:       3317
cpu0_DTLB PREFETCH  ACCESS:          0  HIT:          0  MISS:          0
cpu0_DTLB WRITEBACK ACCESS:          0  HIT:          0  MISS:          0
cpu0_ITLB TOTAL     ACCESS:    1372620  HIT:    1372620  MISS:          0
cpu0_ITLB LOAD      ACCESS:    1372620  HIT:    1372620  MISS:          0
cpu0_ITLB RFO       ACCESS:          0  HIT:          0  MISS:          0
cpu0_ITLB PREFETCH  ACCESS:          0  HIT:          0  MISS:          0
cpu0_ITLB WRITEBACK ACCESS:          0  HIT:          0  MISS:          0
cpu0_L1I TOTAL     ACCESS:    1055867  HIT:    1055687  MISS:        180
cpu0_L1I LOAD      ACCESS:    1055867  HIT:    1055687  MISS:        180
cpu0_L1I RFO       ACCESS:          0  HIT:          0  MISS:          0
cpu0_L1I PREFETCH  ACCESS:          0  HIT:          0  MISS:          0
cpu0_L1I WRITEBACK ACCESS:          0  HIT:          0  MISS:          0
cpu0_STLB TOTAL     ACCESS:      22964  HIT:      17459  MISS:       5505
cpu0_STLB LOAD      ACCESS:      19647  HIT:      14172  MISS:       5475
cpu0_STLB RFO       ACCESS:       3317  HIT:       3287  MISS:         30
cpu0_STLB PREFETCH  ACCESS:          0  HIT:          0  MISS:          0
cpu0_STLB WRITEBACK ACCESS:          0  HIT:          0  MISS:          0
cpu0_L1D TOTAL     ACCESS:    3727834  HIT:    3716905  MISS:      10929
cpu0_L1D LOAD      ACCESS:    2481549  HIT:    2472796  MISS:       8753
cpu0_L1D RFO       ACCESS:    1240780  HIT:    1238628  MISS:       2152
cpu0_L1D PREFETCH  ACCESS:          0  HIT:          0  MISS:          0
cpu0_L1D WRITEBACK ACCESS:          0  HIT:          0  MISS:          0
cpu0_L2C TOTAL     ACCESS:      18536  HIT:       8973  MISS:       9563
cpu0_L2C LOAD      ACCESS:       8933  HIT:       1235  MISS:       7698
cpu0_L2C RFO       ACCESS:       2151  HIT:       1015  MISS:       1136
cpu0_L2C PREFETCH  ACCESS:          0  HIT:          0  MISS:          0
cpu0_L2C WRITEBACK ACCESS:       7428  HIT:       6716  MISS:        712
LLC TOTAL     ACCESS:      15496  HIT:       9309  MISS:       6187
LLC LOAD      ACCESS:       7698  HIT:       1922  MISS:       5776
LLC RFO       ACCESS:       1136  HIT:        725  MISS:        411
LLC PREFETCH  ACCESS:          0  HIT:          0  MISS:          0
LLC WRITEBACK ACCESS:       6645  HIT:       6645  MISS:          0
Heartbeat CPU 0 instructions: 66000002 cycles: 32750983 heartbeat IPC: 0.788278 cumulative IPC: 0.790099 (Simulation time: 0 hr 35 min 28 sec) 

Region of Interest Statistics
cpu0_DTLB TOTAL     ACCESS:    3562586  HIT:    3536082  MISS:      26504
cpu0_DTLB LOAD      ACCESS:    2704091  HIT:    2681463  MISS:      22628
cpu0_DTLB RFO       ACCESS:     858495  HIT:     854619  MISS:       3876
cpu0_DTLB PREFETCH  ACCESS:          0  HIT:          0  MISS:          0
cpu0_DTLB WRITEBACK ACCESS:          0  HIT:          0  MISS:          0
cpu0_ITLB TOTAL     ACCESS:    1569478  HIT:    1569478  MISS:          0
cpu0_ITLB LOAD      ACCESS:    1569478  HIT:    1569478  MISS:          0
cpu0_ITLB RFO       ACCESS:          0  HIT:          0  MISS:          0
cpu0_ITLB PREFETCH  ACCESS:          0  HIT:          0  MISS:          0
cpu0_ITLB WRITEBACK ACCESS:          0  HIT:          0  MISS:          0
cpu0_L1I TOTAL     ACCESS:    1213085  HIT:    1212820  MISS:        265
cpu0_L1I LOAD      ACCESS:    1213085  HIT:    1212820  MISS:        265
cpu0_L1I RFO       ACCESS:          0  HIT:          0  MISS:          0
cpu0_L1I PREFETCH  ACCESS:          0  HIT:          0  MISS:          0
cpu0_L1I WRITEBACK ACCESS:          0  HIT:          0  MISS:          0
cpu0_STLB TOTAL     ACCESS:      26504  HIT:      20107  MISS:       6397
cpu0_STLB LOAD      ACCESS:      22628  HIT:      16262  MISS:       6366
cpu0_STLB RFO       ACCESS:       3876  HIT:       3845  MISS:         31
cpu0_STLB PREFETCH  ACCESS:          0  HIT:          0  MISS:          0
cpu0_STLB WRITEBACK ACCESS:          0  HIT:          0  MISS:          0
cpu0_L1D TOTAL     ACCESS:    4263515  HIT:    4250797  MISS:      12718
cpu0_L1D LOAD      ACCESS:    2834302  HIT:    2824191  MISS:      10111
cpu0_L1D RFO       ACCESS:    1422816  HIT:    1420237  MISS:       2579
cpu0_L1D PREFETCH  ACCESS:          0  HIT:          0  MISS:          0
cpu0_L1D WRITEBACK ACCESS:          0  HIT:          0  MISS:          0
cpu0_L2C TOTAL     ACCESS:      21591  HIT:      10497  MISS:      11094
cpu0_L2C LOAD      ACCESS:      10376  HIT:       1458  MISS:       8918
cpu0_L2C RFO       ACCESS:       2578  HIT:       1236  MISS:       1342
cpu0_L2C PREFETCH  ACCESS:          0  HIT:          0  MISS:          0
cpu0_L2C WRITEBACK ACCESS:       8609  HIT:       7794  MISS:        815
LLC TOTAL     ACCESS:      17933  HIT:      10801  MISS:       7132
LLC LOAD      ACCESS:       8918  HIT:       2267  MISS:       6651
LLC RFO       ACCESS:       1342  HIT:        861  MISS:        481
LLC PREFETCH  ACCESS:          0  HIT:          0  MISS:          0
LLC WRITEBACK ACCESS:       7654  HIT:       7654  MISS:          0
Heartbeat CPU 0 instructions: 68000001 cycles: 35333479 heartbeat IPC: 0.774444 cumulative IPC: 0.788328 (Simulation time: 0 hr 36 min 33 sec) 

Region of Interest Statistics
cpu0_DTLB TOTAL     ACCESS:    4009137  HIT:    3979519  MISS:      29618
cpu0_DTLB LOAD      ACCESS:    3040020  HIT:    3014834  MISS:      25186
cpu0_DTLB RFO       ACCESS:     969117  HIT:     964685  MISS:       4432
cpu0_DTLB PREFETCH  ACCESS:          0  HIT:          0  MISS:          0
cpu0_DTLB WRITEBACK ACCESS:          0  HIT:          0  MISS:          0
cpu0_ITLB TOTAL     ACCESS:    1763832  HIT:    1763832  MISS:          0
cpu0_ITLB LOAD      ACCESS:    1763832  HIT:    1763832  MISS:          0
cpu0_ITLB RFO       ACCESS:          0  HIT:          0  MISS:          0
cpu0_ITLB PREFETCH  ACCESS:          0  HIT:          0  MISS:          0
cpu0_ITLB WRITEBACK ACCESS:          0  HIT:          0  MISS:          0
cpu0_L1I TOTAL     ACCESS:    1367452  HIT:    1367154  MISS:        298
cpu0_L1I LOAD      ACCESS:    1367452  HIT:    1367154  MISS:        298
cpu0_L1I RFO       ACCESS:          0  HIT:          0  MISS:          0
cpu0_L1I PREFETCH  ACCESS:          0  HIT:          0  MISS:          0
cpu0_L1I WRITEBACK ACCESS:          0  HIT:          0  MISS:          0
cpu0_STLB TOTAL     ACCESS:      29618  HIT:      22318  MISS:       7300
cpu0_STLB LOAD      ACCESS:      25186  HIT:      17928  MISS:       7258
cpu0_STLB RFO       ACCESS:       4432  HIT:       4390  MISS:         42
cpu0_STLB PREFETCH  ACCESS:          0  HIT:          0  MISS:          0
cpu0_STLB WRITEBACK ACCESS:          0  HIT:          0  MISS:          0
cpu0_L1D TOTAL     ACCESS:    4797493  HIT:    4782886  MISS:      14607
cpu0_L1D LOAD      ACCESS:    3183563  HIT:    3172064  MISS:      11499
cpu0_L1D RFO       ACCESS:    1606630  HIT:    1603555  MISS:       3075
cpu0_L1D PREFETCH  ACCESS:          0  HIT:          0  MISS:          0
cpu0_L1D WRITEBACK ACCESS:          0  HIT:          0  MISS:          0
cpu0_L2C TOTAL     ACCESS:      24769  HIT:      12070  MISS:      12699
cpu0_L2C LOAD      ACCESS:      11797  HIT:       1666  MISS:      10131
cpu0_L2C RFO       ACCESS:       3074  HIT:       1517  MISS:       1557
cpu0_L2C PREFETCH  ACCESS:          0  HIT:          0  MISS:          0
cpu0_L2C WRITEBACK ACCESS:       9865  HIT:       8874  MISS:        991
LLC TOTAL     ACCESS:      20414  HIT:      12286  MISS:       8128
LLC LOAD      ACCESS:      10131  HIT:       2564  MISS:       7567
LLC RFO       ACCESS:       1557  HIT:        996  MISS:        561
LLC PREFETCH  ACCESS:          0  HIT:          0  MISS:          0
LLC WRITEBACK ACCESS:       8706  HIT:       8706  MISS:          0
Heartbeat CPU 0 instructions: 70000004 cycles: 37905686 heartbeat IPC: 0.777544 cumulative IPC: 0.787237 (Simulation time: 0 hr 37 min 35 sec) 

Region of Interest Statistics
cpu0_DTLB TOTAL     ACCESS:    4453630  HIT:    4420359  MISS:      33271
cpu0_DTLB LOAD      ACCESS:    3377975  HIT:    3349666  MISS:      28309
cpu0_DTLB RFO       ACCESS:    1075655  HIT:    1070693  MISS:       4962
cpu0_DTLB PREFETCH  ACCESS:          0  HIT:          0  MISS:          0
cpu0_DTLB WRITEBACK ACCESS:          0  HIT:          0  MISS:          0
cpu0_ITLB TOTAL     ACCESS:    1953175  HIT:    1953175  MISS:          0
cpu0_ITLB LOAD      ACCESS:    1953175  HIT:    1953175  MISS:          0
cpu0_ITLB RFO       ACCESS:          0  HIT:          0  MISS:          0
cpu0_ITLB PREFETCH  ACCESS:          0  HIT:          0  MISS:          0
cpu0_ITLB WRITEBACK ACCESS:          0  HIT:          0  MISS:          0
cpu0_L1I TOTAL     ACCESS:    1539331  HIT:    1538979  MISS:        352
cpu0_L1I LOAD      ACCESS:    1539331  HIT:    1538979  MISS:        352
cpu0_L1I RFO       ACCESS:          0  HIT:          0  MISS:          0
cpu0_L1I PREFETCH  ACCESS:          0  HIT:          0  MISS:          0
cpu0_L1I WRITEBACK ACCESS:          0  HIT:          0  MISS:          0
cpu0_STLB TOTAL     ACCESS:      33271  HIT:      25134  MISS:       8137
cpu0_STLB LOAD      ACCESS:      28309  HIT:      20219  MISS:       8090
cpu0_STLB RFO       ACCESS:       4962  HIT:       4915  MISS:         47
cpu0_STLB PREFETCH  ACCESS:          0  HIT:          0  MISS:          0
cpu0_STLB WRITEBACK ACCESS:          0  HIT:          0  MISS:          0
cpu0_L1D TOTAL     ACCESS:    5326986  HIT:    5310727  MISS:      16259
cpu0_L1D LOAD      ACCESS:    3539869  HIT:    3527035  MISS:      12834
cpu0_L1D RFO       ACCESS:    1778980  HIT:    1775594  MISS:       3386
cpu0_L1D PREFETCH  ACCESS:          0  HIT:          0  MISS:          0
cpu0_L1D WRITEBACK ACCESS:          0  HIT:          0  MISS:          0
cpu0_L2C TOTAL     ACCESS:      27569  HIT:      13270  MISS:      14299
cpu0_L2C LOAD      ACCESS:      13186  HIT:       1802  MISS:      11384
cpu0_L2C RFO       ACCESS:       3385  HIT:       1641  MISS:       1744
cpu0_L2C PREFETCH  ACCESS:          0  HIT:          0  MISS:          0
cpu0_L2C WRITEBACK ACCESS:      10959  HIT:       9813  MISS:       1146
LLC TOTAL     ACCESS:      22903  HIT:      13944  MISS:       8959
LLC LOAD      ACCESS:      11384  HIT:       3040  MISS:       8344
LLC RFO       ACCESS:       1744  HIT:       1129  MISS:        615
LLC PREFETCH  ACCESS:          0  HIT:          0  MISS:          0
LLC WRITEBACK ACCESS:       9750  HIT:       9750  MISS:          0
Heartbeat CPU 0 instructions: 72000002 cycles: 40167084 heartbeat IPC: 0.884408 cumulative IPC: 0.795179 (Simulation time: 0 hr 38 min 38 sec) 

Region of Interest Statistics
cpu0_DTLB TOTAL     ACCESS:    4886525  HIT:    4850913  MISS:      35612
cpu0_DTLB LOAD      ACCESS:    3700278  HIT:    3669996  MISS:      30282
cpu0_DTLB RFO       ACCESS:    1186247  HIT:    1180917  MISS:       5330
cpu0_DTLB PREFETCH  ACCESS:          0  HIT:          0  MISS:          0
cpu0_DTLB WRITEBACK ACCESS:          0  HIT:          0  MISS:          0
cpu0_ITLB TOTAL     ACCESS:    2151961  HIT:    2151961  MISS:          0
cpu0_ITLB LOAD      ACCESS:    2151961  HIT:    2151961  MISS:          0
cpu0_ITLB RFO       ACCESS:          0  HIT:          0  MISS:          0
cpu0_ITLB PREFETCH  ACCESS:          0  HIT:          0  MISS:          0
cpu0_ITLB WRITEBACK ACCESS:          0  HIT:          0  MISS:          0
cpu0_L1I TOTAL     ACCESS:    1659754  HIT:    1659180  MISS:        574
cpu0_L1I LOAD      ACCESS:    1659754  HIT:    1659180  MISS:        574
cpu0_L1I RFO       ACCESS:          0  HIT:          0  MISS:          0
cpu0_L1I PREFETCH  ACCESS:          0  HIT:          0  MISS:          0
cpu0_L1I WRITEBACK ACCESS:          0  HIT:          0  MISS:          0
cpu0_STLB TOTAL     ACCESS:      35612  HIT:      26920  MISS:       8692
cpu0_STLB LOAD      ACCESS:      30282  HIT:      21638  MISS:       8644
cpu0_STLB RFO       ACCESS:       5330  HIT:       5282  MISS:         48
cpu0_STLB PREFETCH  ACCESS:          0  HIT:          0  MISS:          0
cpu0_STLB WRITEBACK ACCESS:          0  HIT:          0  MISS:          0
cpu0_L1D TOTAL     ACCESS:    5834265  HIT:    5816655  MISS:      17610
cpu0_L1D LOAD      ACCESS:    3862398  HIT:    3848638  MISS:      13760
cpu0_L1D RFO       ACCESS:    1963175  HIT:    1959368  MISS:       3807
cpu0_L1D PREFETCH  ACCESS:          0  HIT:          0  MISS:          0
cpu0_L1D WRITEBACK ACCESS:          0  HIT:          0  MISS:          0
cpu0_L2C TOTAL     ACCESS:      30032  HIT:      14555  MISS:      15477
cpu0_L2C LOAD      ACCESS:      14334  HIT:       2098  MISS:      12236
cpu0_L2C RFO       ACCESS:       3806  HIT:       1861  MISS:       1945
cpu0_L2C PREFETCH  ACCESS:          0  HIT:          0  MISS:          0
cpu0_L2C WRITEBACK ACCESS:      11849  HIT:      10580  MISS:       1269
LLC TOTAL     ACCESS:      24653  HIT:      15059  MISS:       9594
LLC LOAD      ACCESS:      12236  HIT:       3293  MISS:       8943
LLC RFO       ACCESS:       1945  HIT:       1294  MISS:        651
LLC PREFETCH  ACCESS:          0  HIT:          0  MISS:          0
LLC WRITEBACK ACCESS:      10445  HIT:      10445  MISS:          0
Heartbeat CPU 0 instructions: 74000000 cycles: 42444777 heartbeat IPC: 0.878081 cumulative IPC: 0.801485 (Simulation time: 0 hr 39 min 41 sec) 

Region of Interest Statistics
cpu0_DTLB TOTAL     ACCESS:    5310295  HIT:    5272127  MISS:      38168
cpu0_DTLB LOAD      ACCESS:    4015169  HIT:    3982783  MISS:      32386
cpu0_DTLB RFO       ACCESS:    1295126  HIT:    1289344  MISS:       5782
cpu0_DTLB PREFETCH  ACCESS:          0  HIT:          0  MISS:          0
cpu0_DTLB WRITEBACK ACCESS:          0  HIT:          0  MISS:          0
cpu0_ITLB TOTAL     ACCESS:    2349341  HIT:    2349341  MISS:          0
cpu0_ITLB LOAD      ACCESS:    2349341  HIT:    2349341  MISS:          0
cpu0_ITLB RFO       ACCESS:          0  HIT:          0  MISS:          0
cpu0_ITLB PREFETCH  ACCESS:          0  HIT:          0  MISS:          0
cpu0_ITLB WRITEBACK ACCESS:          0  HIT:          0  MISS:          0
cpu0_L1I TOTAL     ACCESS:    1775747  HIT:    1775016  MISS:        731
cpu0_L1I LOAD      ACCESS:    1775747  HIT:    1775016  MISS:        731
cpu0_L1I RFO       ACCESS:          0  HIT:          0  MISS:          0
cpu0_L1I PREFETCH  ACCESS:          0  HIT:          0  MISS:          0
cpu0_L1I WRITEBACK ACCESS:          0  HIT:          0  MISS:          0
cpu0_STLB TOTAL     ACCESS:      38168  HIT:      28870  MISS:       9298
cpu0_STLB LOAD      ACCESS:      32386  HIT:      23136  MISS:       9250
cpu0_STLB RFO       ACCESS:       5782  HIT:       5734  MISS:         48
cpu0_STLB PREFETCH  ACCESS:          0  HIT:          0  MISS:          0
cpu0_STLB WRITEBACK ACCESS:          0  HIT:          0  MISS:          0
cpu0_L1D TOTAL     ACCESS:    6338551  HIT:    6319629  MISS:      18922
cpu0_L1D LOAD      ACCESS:    4183628  HIT:    4168835  MISS:      14793
cpu0_L1D RFO       ACCESS:    2145625  HIT:    2141539  MISS:       4086
cpu0_L1D PREFETCH  ACCESS:          0  HIT:          0  MISS:          0
cpu0_L1D WRITEBACK ACCESS:          0  HIT:          0  MISS:          0
cpu0_L2C TOTAL     ACCESS:      32326  HIT:      15695  MISS:      16631
cpu0_L2C LOAD      ACCESS:      15524  HIT:       2357  MISS:      13167
cpu0_L2C RFO       ACCESS:       4085  HIT:       2027  MISS:       2058
cpu0_L2C PREFETCH  ACCESS:          0  HIT:          0  MISS:          0
cpu0_L2C WRITEBACK ACCESS:      12674  HIT:      11295  MISS:       1379
LLC TOTAL     ACCESS:      26410  HIT:      16135  MISS:      10275
LLC LOAD      ACCESS:      13167  HIT:       3588  MISS:       9579
LLC RFO       ACCESS:       2058  HIT:       1362  MISS:        696
LLC PREFETCH  ACCESS:          0  HIT:          0  MISS:          0
LLC WRITEBACK ACCESS:      11158  HIT:      11158  MISS:          0
Heartbeat CPU 0 instructions: 76000001 cycles: 44708347 heartbeat IPC: 0.88356 cumulative IPC: 0.807253 (Simulation time: 0 hr 40 min 43 sec) 

Region of Interest Statistics
cpu0_DTLB TOTAL     ACCESS:    5740780  HIT:    5699881  MISS:      40899
cpu0_DTLB LOAD      ACCESS:    4332824  HIT:    4298167  MISS:      34657
cpu0_DTLB RFO       ACCESS:    1407956  HIT:    1401714  MISS:       6242
cpu0_DTLB PREFETCH  ACCESS:          0  HIT:          0  MISS:          0
cpu0_DTLB WRITEBACK ACCESS:          0  HIT:          0  MISS:          0
cpu0_ITLB TOTAL     ACCESS:    2546208  HIT:    2546208  MISS:          0
cpu0_ITLB LOAD      ACCESS:    2546208  HIT:    2546208  MISS:          0
cpu0_ITLB RFO       ACCESS:          0  HIT:          0  MISS:          0
cpu0_ITLB PREFETCH  ACCESS:          0  HIT:          0  MISS:          0
cpu0_ITLB WRITEBACK ACCESS:          0  HIT:          0  MISS:          0
cpu0_L1I TOTAL     ACCESS:    1893165  HIT:    1892328  MISS:        837
cpu0_L1I LOAD      ACCESS:    1893165  HIT:    1892328  MISS:        837
cpu0_L1I RFO       ACCESS:          0  HIT:          0  MISS:          0
cpu0_L1I PREFETCH  ACCESS:          0  HIT:          0  MISS:          0
cpu0_L1I WRITEBACK ACCESS:          0  HIT:          0  MISS:          0
cpu0_STLB TOTAL     ACCESS:      40899  HIT:      30992  MISS:       9907
cpu0_STLB LOAD      ACCESS:      34657  HIT:      24800  MISS:       9857
cpu0_STLB RFO       ACCESS:       6242  HIT:       6192  MISS:         50
cpu0_STLB PREFETCH  ACCESS:          0  HIT:          0  MISS:          0
cpu0_STLB WRITEBACK ACCESS:          0  HIT:          0  MISS:          0
cpu0_L1D TOTAL     ACCESS:    6852037  HIT:    6831705  MISS:      20332
cpu0_L1D LOAD      ACCESS:    4509135  HIT:    4493290  MISS:      15845
cpu0_L1D RFO       ACCESS:    2332995  HIT:    2328553  MISS:       4442
cpu0_L1D PREFETCH  ACCESS:          0  HIT:          0  MISS:          0
cpu0_L1D WRITEBACK ACCESS:          0  HIT:          0  MISS:          0
cpu0_L2C TOTAL     ACCESS:      34696  HIT:      16834  MISS:      17862
cpu0_L2C LOAD      ACCESS:      16682  HIT:       2598  MISS:      14084
cpu0_L2C RFO       ACCESS:       4441  HIT:       2191  MISS:       2250
cpu0_L2C PREFETCH  ACCESS:          0  HIT:          0  MISS:          0
cpu0_L2C WRITEBACK ACCESS:      13528  HIT:      12029  MISS:       1499
LLC TOTAL     ACCESS:      28248  HIT:      17278  MISS:      10970
LLC LOAD      ACCESS:      14084  HIT:       3864  MISS:      10220
LLC RFO       ACCESS:       2250  HIT:       1500  MISS:        750
LLC PREFETCH  ACCESS:          0  HIT:          0  MISS:          0
LLC WRITEBACK ACCESS:      11885  HIT:      11885  MISS:          0
Heartbeat CPU 0 instructions: 78000001 cycles: 46837117 heartbeat IPC: 0.93951 cumulative IPC: 0.815453 (Simulation time: 0 hr 41 min 40 sec) 

Region of Interest Statistics
cpu0_DTLB TOTAL     ACCESS:    6163071  HIT:    6120290  MISS:      42781
cpu0_DTLB LOAD      ACCESS:    4646124  HIT:    4609867  MISS:      36257
cpu0_DTLB RFO       ACCESS:    1516947  HIT:    1510423  MISS:       6524
cpu0_DTLB PREFETCH  ACCESS:          0  HIT:          0  MISS:          0
cpu0_DTLB WRITEBACK ACCESS:          0  HIT:          0  MISS:          0
cpu0_ITLB TOTAL     ACCESS:    2757624  HIT:    2757624  MISS:          0
cpu0_ITLB LOAD      ACCESS:    2757624  HIT:    2757624  MISS:          0
cpu0_ITLB RFO       ACCESS:          0  HIT:          0  MISS:          0
cpu0_ITLB PREFETCH  ACCESS:          0  HIT:          0  MISS:          0
cpu0_ITLB WRITEBACK ACCESS:          0  HIT:          0  MISS:          0
cpu0_L1I TOTAL     ACCESS:    1984568  HIT:    1983577  MISS:        991
cpu0_L1I LOAD      ACCESS:    1984568  HIT:    1983577  MISS:        991
cpu0_L1I RFO       ACCESS:          0  HIT:          0  MISS:          0
cpu0_L1I PREFETCH  ACCESS:          0  HIT:          0  MISS:          0
cpu0_L1I WRITEBACK ACCESS:          0  HIT:          0  MISS:          0
cpu0_STLB TOTAL     ACCESS:      42781  HIT:      32493  MISS:      10288
cpu0_STLB LOAD      ACCESS:      36257  HIT:      26020  MISS:      10237
cpu0_STLB RFO       ACCESS:       6524  HIT:       6473  MISS:         51
cpu0_STLB PREFETCH  ACCESS:          0  HIT:          0  MISS:          0
cpu0_STLB WRITEBACK ACCESS:          0  HIT:          0  MISS:          0
cpu0_L1D TOTAL     ACCESS:    7336614  HIT:    7315425  MISS:      21189
cpu0_L1D LOAD      ACCESS:    4812307  HIT:    4795801  MISS:      16506
cpu0_L1D RFO       ACCESS:    2514019  HIT:    2509385  MISS:       4634
cpu0_L1D PREFETCH  ACCESS:          0  HIT:          0  MISS:          0
cpu0_L1D WRITEBACK ACCESS:          0  HIT:          0  MISS:          0
cpu0_L2C TOTAL     ACCESS:      36224  HIT:      17639  MISS:      18585
cpu0_L2C LOAD      ACCESS:      17497  HIT:       2832  MISS:      14665
cpu0_L2C RFO       ACCESS:       4633  HIT:       2297  MISS:       2336
cpu0_L2C PREFETCH  ACCESS:          0  HIT:          0  MISS:          0
cpu0_L2C WRITEBACK ACCESS:      14045  HIT:      12492  MISS:       1553
LLC TOTAL     ACCESS:      29358  HIT:      17945  MISS:      11413
LLC LOAD      ACCESS:      14665  HIT:       4035  MISS:      10630
LLC RFO       ACCESS:       2336  HIT:       1553  MISS:        783
LLC PREFETCH  ACCESS:          0  HIT:          0  MISS:          0
LLC WRITEBACK ACCESS:      12326  HIT:      12326  MISS:          0
Heartbeat CPU 0 instructions: 80000000 cycles: 49216327 heartbeat IPC: 0.840615 cumulative IPC: 0.817083 (Simulation time: 0 hr 42 min 42 sec) 

Region of Interest Statistics
cpu0_DTLB TOTAL     ACCESS:    6593673  HIT:    6548274  MISS:      45399
cpu0_DTLB LOAD      ACCESS:    4972407  HIT:    4933944  MISS:      38463
cpu0_DTLB RFO       ACCESS:    1621266  HIT:    1614330  MISS:       6936
cpu0_DTLB PREFETCH  ACCESS:          0  HIT:          0  MISS:          0
cpu0_DTLB WRITEBACK ACCESS:          0  HIT:          0  MISS:          0
cpu0_ITLB TOTAL     ACCESS:    2961179  HIT:    2961179  MISS:          0
cpu0_ITLB LOAD      ACCESS:    2961179  HIT:    2961179  MISS:          0
cpu0_ITLB RFO       ACCESS:          0  HIT:          0  MISS:          0
cpu0_ITLB PREFETCH  ACCESS:          0  HIT:          0  MISS:          0
cpu0_ITLB WRITEBACK ACCESS:          0  HIT:          0  MISS:          0
cpu0_L1I TOTAL     ACCESS:    2109730  HIT:    2108659  MISS:       1071
cpu0_L1I LOAD      ACCESS:    2109730  HIT:    2108659  MISS:       1071
cpu0_L1I RFO       ACCESS:          0  HIT:          0  MISS:          0
cpu0_L1I PREFETCH  ACCESS:          0  HIT:          0  MISS:          0
cpu0_L1I WRITEBACK ACCESS:          0  HIT:          0  MISS:          0
cpu0_STLB TOTAL     ACCESS:      45399  HIT:      34565  MISS:      10834
cpu0_STLB LOAD      ACCESS:      38463  HIT:      27684  MISS:      10779
cpu0_STLB RFO       ACCESS:       6936  HIT:       6881  MISS:         55
cpu0_STLB PREFETCH  ACCESS:          0  HIT:          0  MISS:          0
cpu0_STLB WRITEBACK ACCESS:          0  HIT:          0  MISS:          0
cpu0_L1D TOTAL     ACCESS:    7840024  HIT:    7817586  MISS:      22438
cpu0_L1D LOAD      ACCESS:    5139470  HIT:    5122043  MISS:      17427
cpu0_L1D RFO       ACCESS:    2689720  HIT:    2684764  MISS:       4956
cpu0_L1D PREFETCH  ACCESS:          0  HIT:          0  MISS:          0
cpu0_L1D WRITEBACK ACCESS:          0  HIT:          0  MISS:          0
cpu0_L2C TOTAL     ACCESS:      38388  HIT:      18786  MISS:      19602
cpu0_L2C LOAD      ACCESS:      18498  HIT:       3036  MISS:      15462
cpu0_L2C RFO       ACCESS:       4955  HIT:       2489  MISS:       2466
cpu0_L2C PREFETCH  ACCESS:          0  HIT:          0  MISS:          0
cpu0_L2C WRITEBACK ACCESS:      14880  HIT:      13240  MISS:       1640
LLC TOTAL     ACCESS:      30905  HIT:      18870  MISS:      12035
LLC LOAD      ACCESS:      15462  HIT:       4255  MISS:      11207
LLC RFO       ACCESS:       2465  HIT:       1637  MISS:        828
LLC PREFETCH  ACCESS:          0  HIT:          0  MISS:          0
LLC WRITEBACK ACCESS:      12944  HIT:      12944  MISS:          0
Heartbeat CPU 0 instructions: 82000003 cycles: 51572041 heartbeat IPC: 0.849001 cumulative IPC: 0.819008 (Simulation time: 0 hr 43 min 44 sec) 

Region of Interest Statistics
cpu0_DTLB TOTAL     ACCESS:    7031185  HIT:    6982851  MISS:      48334
cpu0_DTLB LOAD      ACCESS:    5300398  HIT:    5259480  MISS:      40918
cpu0_DTLB RFO       ACCESS:    1730787  HIT:    1723371  MISS:       7416
cpu0_DTLB PREFETCH  ACCESS:          0  HIT:          0  MISS:          0
cpu0_DTLB WRITEBACK ACCESS:          0  HIT:          0  MISS:          0
cpu0_ITLB TOTAL     ACCESS:    3161998  HIT:    3161998  MISS:          0
cpu0_ITLB LOAD      ACCESS:    3161998  HIT:    3161998  MISS:          0
cpu0_ITLB RFO       ACCESS:          0  HIT:          0  MISS:          0
cpu0_ITLB PREFETCH  ACCESS:          0  HIT:          0  MISS:          0
cpu0_ITLB WRITEBACK ACCESS:          0  HIT:          0  MISS:          0
cpu0_L1I TOTAL     ACCESS:    2236486  HIT:    2235265  MISS:       1221
cpu0_L1I LOAD      ACCESS:    2236486  HIT:    2235265  MISS:       1221
cpu0_L1I RFO       ACCESS:          0  HIT:          0  MISS:          0
cpu0_L1I PREFETCH  ACCESS:          0  HIT:          0  MISS:          0
cpu0_L1I WRITEBACK ACCESS:          0  HIT:          0  MISS:          0
cpu0_STLB TOTAL     ACCESS:      48334  HIT:      36859  MISS:      11475
cpu0_STLB LOAD      ACCESS:      40918  HIT:      29502  MISS:      11416
cpu0_STLB RFO       ACCESS:       7416  HIT:       7357  MISS:         59
cpu0_STLB PREFETCH  ACCESS:          0  HIT:          0  MISS:          0
cpu0_STLB WRITEBACK ACCESS:          0  HIT:          0  MISS:          0
cpu0_L1D TOTAL     ACCESS:    8354295  HIT:    8330265  MISS:      24030
cpu0_L1D LOAD      ACCESS:    5469969  HIT:    5451366  MISS:      18603
cpu0_L1D RFO       ACCESS:    2872851  HIT:    2867484  MISS:       5367
cpu0_L1D PREFETCH  ACCESS:          0  HIT:          0  MISS:          0
cpu0_L1D WRITEBACK ACCESS:          0  HIT:          0  MISS:          0
cpu0_L2C TOTAL     ACCESS:      41167  HIT:      20170  MISS:      20997
cpu0_L2C LOAD      ACCESS:      19824  HIT:       3327  MISS:      16497
cpu0_L2C RFO       ACCESS:       5366  HIT:       2671  MISS:       2695
cpu0_L2C PREFETCH  ACCESS:          0  HIT:          0  MISS:          0
cpu0_L2C WRITEBACK ACCESS:      15917  HIT:      14149  MISS:       1768
LLC TOTAL     ACCESS:      33085  HIT:      20310  MISS:      12775
LLC LOAD      ACCESS:      16497  HIT:       4602  MISS:      11895
LLC RFO       ACCESS:       2694  HIT:       1814  MISS:        880
LLC PREFETCH  ACCESS:          0  HIT:          0  MISS:          0
LLC WRITEBACK ACCESS:      13857  HIT:      13857  MISS:          0
Heartbeat CPU 0 instructions: 84000001 cycles: 53937883 heartbeat IPC: 0.845364 cumulative IPC: 0.820512 (Simulation time: 0 hr 44 min 46 sec) 

Region of Interest Statistics
cpu0_DTLB TOTAL     ACCESS:    7463182  HIT:    7412011  MISS:      51171
cpu0_DTLB LOAD      ACCESS:    5625355  HIT:    5582051  MISS:      43304
cpu0_DTLB RFO       ACCESS:    1837827  HIT:    1829960  MISS:       7867
cpu0_DTLB PREFETCH  ACCESS:          0  HIT:          0  MISS:          0
cpu0_DTLB WRITEBACK ACCESS:          0  HIT:          0  MISS:          0
cpu0_ITLB TOTAL     ACCESS:    3366926  HIT:    3366926  MISS:          0
cpu0_ITLB LOAD      ACCESS:    3366926  HIT:    3366926  MISS:          0
cpu0_ITLB RFO       ACCESS:          0  HIT:          0  MISS:          0
cpu0_ITLB PREFETCH  ACCESS:          0  HIT:          0  MISS:          0
cpu0_ITLB WRITEBACK ACCESS:          0  HIT:          0  MISS:          0
cpu0_L1I TOTAL     ACCESS:    2357547  HIT:    2356155  MISS:       1392
cpu0_L1I LOAD      ACCESS:    2357547  HIT:    2356155  MISS:       1392
cpu0_L1I RFO       ACCESS:          0  HIT:          0  MISS:          0
cpu0_L1I PREFETCH  ACCESS:          0  HIT:          0  MISS:          0
cpu0_L1I WRITEBACK ACCESS:          0  HIT:          0  MISS:          0
cpu0_STLB TOTAL     ACCESS:      51171  HIT:      39070  MISS:      12101
cpu0_STLB LOAD      ACCESS:      43304  HIT:      31262  MISS:      12042
cpu0_STLB RFO       ACCESS:       7867  HIT:       7808  MISS:         59
cpu0_STLB PREFETCH  ACCESS:          0  HIT:          0  MISS:          0
cpu0_STLB WRITEBACK ACCESS:          0  HIT:          0  MISS:          0
cpu0_L1D TOTAL     ACCESS:    8861797  HIT:    8836258  MISS:      25539
cpu0_L1D LOAD      ACCESS:    5797708  HIT:    5777998  MISS:      19710
cpu0_L1D RFO       ACCESS:    3051988  HIT:    3046222  MISS:       5766
cpu0_L1D PREFETCH  ACCESS:          0  HIT:          0  MISS:          0
cpu0_L1D WRITEBACK ACCESS:          0  HIT:          0  MISS:          0
cpu0_L2C TOTAL     ACCESS:      43846  HIT:      21574  MISS:      22272
cpu0_L2C LOAD      ACCESS:      21102  HIT:       3640  MISS:      17462
cpu0_L2C RFO       ACCESS:       5765  HIT:       2876  MISS:       2889
cpu0_L2C PREFETCH  ACCESS:          0  HIT:          0  MISS:          0
cpu0_L2C WRITEBACK ACCESS:      16916  HIT:      15035  MISS:       1881
LLC TOTAL     ACCESS:      35062  HIT:      21544  MISS:      13518
LLC LOAD      ACCESS:      17462  HIT:       4876  MISS:      12586
LLC RFO       ACCESS:       2888  HIT:       1956  MISS:        932
LLC PREFETCH  ACCESS:          0  HIT:          0  MISS:          0
LLC WRITEBACK ACCESS:      14672  HIT:      14672  MISS:          0
Heartbeat CPU 0 instructions: 86000001 cycles: 56348497 heartbeat IPC: 0.829664 cumulative IPC: 0.821015 (Simulation time: 0 hr 45 min 48 sec) 

Region of Interest Statistics
cpu0_DTLB TOTAL     ACCESS:    7888880  HIT:    7834796  MISS:      54084
cpu0_DTLB LOAD      ACCESS:    5949121  HIT:    5903308  MISS:      45813
cpu0_DTLB RFO       ACCESS:    1939759  HIT:    1931488  MISS:       8271
cpu0_DTLB PREFETCH  ACCESS:          0  HIT:          0  MISS:          0
cpu0_DTLB WRITEBACK ACCESS:          0  HIT:          0  MISS:          0
cpu0_ITLB TOTAL     ACCESS:    3566867  HIT:    3566867  MISS:          0
cpu0_ITLB LOAD      ACCESS:    3566867  HIT:    3566867  MISS:          0
cpu0_ITLB RFO       ACCESS:          0  HIT:          0  MISS:          0
cpu0_ITLB PREFETCH  ACCESS:          0  HIT:          0  MISS:          0
cpu0_ITLB WRITEBACK ACCESS:          0  HIT:          0  MISS:          0
cpu0_L1I TOTAL     ACCESS:    2487847  HIT:    2486371  MISS:       1476
cpu0_L1I LOAD      ACCESS:    2487847  HIT:    2486371  MISS:       1476
cpu0_L1I RFO       ACCESS:          0  HIT:          0  MISS:          0
cpu0_L1I PREFETCH  ACCESS:          0  HIT:          0  MISS:          0
cpu0_L1I WRITEBACK ACCESS:          0  HIT:          0  MISS:          0
cpu0_STLB TOTAL     ACCESS:      54084  HIT:      41375  MISS:      12709
cpu0_STLB LOAD      ACCESS:      45813  HIT:      33165  MISS:      12648
cpu0_STLB RFO       ACCESS:       8271  HIT:       8210  MISS:         61
cpu0_STLB PREFETCH  ACCESS:          0  HIT:          0  MISS:          0
cpu0_STLB WRITEBACK ACCESS:          0  HIT:          0  MISS:          0
cpu0_L1D TOTAL     ACCESS:    9369043  HIT:    9342289  MISS:      26754
cpu0_L1D LOAD      ACCESS:    6130574  HIT:    6109833  MISS:      20741
cpu0_L1D RFO       ACCESS:    3225760  HIT:    3219816  MISS:       5944
cpu0_L1D PREFETCH  ACCESS:          0  HIT:          0  MISS:          0
cpu0_L1D WRITEBACK ACCESS:          0  HIT:          0  MISS:          0
cpu0_L2C TOTAL     ACCESS:      45939  HIT:      22587  MISS:      23352
cpu0_L2C LOAD      ACCESS:      22217  HIT:       3850  MISS:      18367
cpu0_L2C RFO       ACCESS:       5943  HIT:       2982  MISS:       2961
cpu0_L2C PREFETCH  ACCESS:          0  HIT:          0  MISS:          0
cpu0_L2C WRITEBACK ACCESS:      17710  HIT:      15730  MISS:       1980
LLC TOTAL     ACCESS:      36779  HIT:      22541  MISS:      14238
LLC LOAD      ACCESS:      18367  HIT:       5099  MISS:      13268
LLC RFO       ACCESS:       2960  HIT:       1990  MISS:        970
LLC PREFETCH  ACCESS:          0  HIT:          0  MISS:          0
LLC WRITEBACK ACCESS:      15408  HIT:      15408  MISS:          0
Heartbeat CPU 0 instructions: 88000002 cycles: 58778011 heartbeat IPC: 0.82321 cumulative IPC: 0.821131 (Simulation time: 0 hr 46 min 52 sec) 

Region of Interest Statistics
cpu0_DTLB TOTAL     ACCESS:    8321174  HIT:    8263805  MISS:      57369
cpu0_DTLB LOAD      ACCESS:    6277647  HIT:    6229007  MISS:      48640
cpu0_DTLB RFO       ACCESS:    2043527  HIT:    2034798  MISS:       8729
cpu0_DTLB PREFETCH  ACCESS:          0  HIT:          0  MISS:          0
cpu0_DTLB WRITEBACK ACCESS:          0  HIT:          0  MISS:          0
cpu0_ITLB TOTAL     ACCESS:    3770347  HIT:    3770347  MISS:          0
cpu0_ITLB LOAD      ACCESS:    3770347  HIT:    3770347  MISS:          0
cpu0_ITLB RFO       ACCESS:          0  HIT:          0  MISS:          0
cpu0_ITLB PREFETCH  ACCESS:          0  HIT:          0  MISS:          0
cpu0_ITLB WRITEBACK ACCESS:          0  HIT:          0  MISS:          0
cpu0_L1I TOTAL     ACCESS:    2621101  HIT:    2619516  MISS:       1585
cpu0_L1I LOAD      ACCESS:    2621101  HIT:    2619516  MISS:       1585
cpu0_L1I RFO       ACCESS:          0  HIT:          0  MISS:          0
cpu0_L1I PREFETCH  ACCESS:          0  HIT:          0  MISS:          0
cpu0_L1I WRITEBACK ACCESS:          0  HIT:          0  MISS:          0
cpu0_STLB TOTAL     ACCESS:      57369  HIT:      43982  MISS:      13387
cpu0_STLB LOAD      ACCESS:      48640  HIT:      35314  MISS:      13326
cpu0_STLB RFO       ACCESS:       8729  HIT:       8668  MISS:         61
cpu0_STLB PREFETCH  ACCESS:          0  HIT:          0  MISS:          0
cpu0_STLB WRITEBACK ACCESS:          0  HIT:          0  MISS:          0
cpu0_L1D TOTAL     ACCESS:    9882273  HIT:    9854097  MISS:      28176
cpu0_L1D LOAD      ACCESS:    6468063  HIT:    6446112  MISS:      21951
cpu0_L1D RFO       ACCESS:    3400823  HIT:    3394672  MISS:       6151
cpu0_L1D PREFETCH  ACCESS:          0  HIT:          0  MISS:          0
cpu0_L1D WRITEBACK ACCESS:          0  HIT:          0  MISS:          0
cpu0_L2C TOTAL     ACCESS:      48413  HIT:      23769  MISS:      24644
cpu0_L2C LOAD      ACCESS:      23536  HIT:       4095  MISS:      19441
cpu0_L2C RFO       ACCESS:       6150  HIT:       3079  MISS:       3071
cpu0_L2C PREFETCH  ACCESS:          0  HIT:          0  MISS:          0
cpu0_L2C WRITEBACK ACCESS:      18653  HIT:      16567  MISS:       2086
LLC TOTAL     ACCESS:      38822  HIT:      23819  MISS:      15003
LLC LOAD      ACCESS:      19441  HIT:       5451  MISS:      13990
LLC RFO       ACCESS:       3070  HIT:       2057  MISS:       1013
LLC PREFETCH  ACCESS:          0  HIT:          0  MISS:          0
LLC WRITEBACK ACCESS:      16265  HIT:      16265  MISS:          0
Heartbeat CPU 0 instructions: 90000001 cycles: 61231957 heartbeat IPC: 0.815013 cumulative IPC: 0.820823 (Simulation time: 0 hr 47 min 56 sec) 

Region of Interest Statistics
cpu0_DTLB TOTAL     ACCESS:    8756762  HIT:    8696330  MISS:      60432
cpu0_DTLB LOAD      ACCESS:    6607543  HIT:    6556303  MISS:      51240
cpu0_DTLB RFO       ACCESS:    2149219  HIT:    2140027  MISS:       9192
cpu0_DTLB PREFETCH  ACCESS:          0  HIT:          0  MISS:          0
cpu0_DTLB WRITEBACK ACCESS:          0  HIT:          0  MISS:          0
cpu0_ITLB TOTAL     ACCESS:    3969139  HIT:    3969139  MISS:          0
cpu0_ITLB LOAD      ACCESS:    3969139  HIT:    3969139  MISS:          0
cpu0_ITLB RFO       ACCESS:          0  HIT:          0  MISS:          0
cpu0_ITLB PREFETCH  ACCESS:          0  HIT:          0  MISS:          0
cpu0_ITLB WRITEBACK ACCESS:          0  HIT:          0  MISS:          0
cpu0_L1I TOTAL     ACCESS:    2759262  HIT:    2757548  MISS:       1714
cpu0_L1I LOAD      ACCESS:    2759262  HIT:    2757548  MISS:       1714
cpu0_L1I RFO       ACCESS:          0  HIT:          0  MISS:          0
cpu0_L1I PREFETCH  ACCESS:          0  HIT:          0  MISS:          0
cpu0_L1I WRITEBACK ACCESS:          0  HIT:          0  MISS:          0
cpu0_STLB TOTAL     ACCESS:      60432  HIT:      46385  MISS:      14047
cpu0_STLB LOAD      ACCESS:      51240  HIT:      37256  MISS:      13984
cpu0_STLB RFO       ACCESS:       9192  HIT:       9129  MISS:         63
cpu0_STLB PREFETCH  ACCESS:          0  HIT:          0  MISS:          0
cpu0_STLB WRITEBACK ACCESS:          0  HIT:          0  MISS:          0
cpu0_L1D TOTAL     ACCESS:   10401076  HIT:   10371545  MISS:      29531
cpu0_L1D LOAD      ACCESS:    6807494  HIT:    6784487  MISS:      23007
cpu0_L1D RFO       ACCESS:    3579535  HIT:    3573088  MISS:       6447
cpu0_L1D PREFETCH  ACCESS:          0  HIT:          0  MISS:          0
cpu0_L1D WRITEBACK ACCESS:          0  HIT:          0  MISS:          0
cpu0_L2C TOTAL     ACCESS:      50821  HIT:      25066  MISS:      25755
cpu0_L2C LOAD      ACCESS:      24721  HIT:       4357  MISS:      20364
cpu0_L2C RFO       ACCESS:       6446  HIT:       3270  MISS:       3176
cpu0_L2C PREFETCH  ACCESS:          0  HIT:          0  MISS:          0
cpu0_L2C WRITEBACK ACCESS:      19577  HIT:      17409  MISS:       2168
LLC TOTAL     ACCESS:      40605  HIT:      24864  MISS:      15741
LLC LOAD      ACCESS:      20364  HIT:       5677  MISS:      14687
LLC RFO       ACCESS:       3175  HIT:       2121  MISS:       1054
LLC PREFETCH  ACCESS:          0  HIT:          0  MISS:          0
LLC WRITEBACK ACCESS:      17019  HIT:      17019  MISS:          0
Heartbeat CPU 0 instructions: 92000000 cycles: 63684020 heartbeat IPC: 0.815639 cumulative IPC: 0.820574 (Simulation time: 0 hr 49 min 2 sec) 

Region of Interest Statistics
cpu0_DTLB TOTAL     ACCESS:    9195251  HIT:    9131621  MISS:      63630
cpu0_DTLB LOAD      ACCESS:    6939099  HIT:    6885165  MISS:      53934
cpu0_DTLB RFO       ACCESS:    2256152  HIT:    2246456  MISS:       9696
cpu0_DTLB PREFETCH  ACCESS:          0  HIT:          0  MISS:          0
cpu0_DTLB WRITEBACK ACCESS:          0  HIT:          0  MISS:          0
cpu0_ITLB TOTAL     ACCESS:    4170144  HIT:    4170144  MISS:          0
cpu0_ITLB LOAD      ACCESS:    4170144  HIT:    4170144  MISS:          0
cpu0_ITLB RFO       ACCESS:          0  HIT:          0  MISS:          0
cpu0_ITLB PREFETCH  ACCESS:          0  HIT:          0  MISS:          0
cpu0_ITLB WRITEBACK ACCESS:          0  HIT:          0  MISS:          0
cpu0_L1I TOTAL     ACCESS:    2895251  HIT:    2893406  MISS:       1845
cpu0_L1I LOAD      ACCESS:    2895251  HIT:    2893406  MISS:       1845
cpu0_L1I RFO       ACCESS:          0  HIT:          0  MISS:          0
cpu0_L1I PREFETCH  ACCESS:          0  HIT:          0  MISS:          0
cpu0_L1I WRITEBACK ACCESS:          0  HIT:          0  MISS:          0
cpu0_STLB TOTAL     ACCESS:      63630  HIT:      48933  MISS:      14697
cpu0_STLB LOAD      ACCESS:      53934  HIT:      39300  MISS:      14634
cpu0_STLB RFO       ACCESS:       9696  HIT:       9633  MISS:         63
cpu0_STLB PREFETCH  ACCESS:          0  HIT:          0  MISS:          0
cpu0_STLB WRITEBACK ACCESS:          0  HIT:          0  MISS:          0
cpu0_L1D TOTAL     ACCESS:   10920154  HIT:   10889150  MISS:      31004
cpu0_L1D LOAD      ACCESS:    7145995  HIT:    7121818  MISS:      24177
cpu0_L1D RFO       ACCESS:    3759462  HIT:    3752717  MISS:       6745
cpu0_L1D PREFETCH  ACCESS:          0  HIT:          0  MISS:          0
cpu0_L1D WRITEBACK ACCESS:          0  HIT:          0  MISS:          0
cpu0_L2C TOTAL     ACCESS:      53418  HIT:      26437  MISS:      26981
cpu0_L2C LOAD      ACCESS:      26022  HIT:       4636  MISS:      21386
cpu0_L2C RFO       ACCESS:       6744  HIT:       3460  MISS:       3284
cpu0_L2C PREFETCH  ACCESS:          0  HIT:          0  MISS:          0
cpu0_L2C WRITEBACK ACCESS:      20570  HIT:      18310  MISS:       2260
LLC TOTAL     ACCESS:      42612  HIT:      26146  MISS:      16466
LLC LOAD      ACCESS:      21386  HIT:       6015  MISS:      15371
LLC RFO       ACCESS:       3283  HIT:       2188  MISS:       1095
LLC PREFETCH  ACCESS:          0  HIT:          0  MISS:          0
LLC WRITEBACK ACCESS:      17892  HIT:      17892  MISS:          0
Heartbeat CPU 0 instructions: 94000000 cycles: 66160692 heartbeat IPC: 0.807535 cumulative IPC: 0.819973 (Simulation time: 0 hr 50 min 4 sec) 

Region of Interest Statistics
cpu0_DTLB TOTAL     ACCESS:    9643861  HIT:    9576820  MISS:      67041
cpu0_DTLB LOAD      ACCESS:    7273980  HIT:    7217128  MISS:      56852
cpu0_DTLB RFO       ACCESS:    2369881  HIT:    2359692  MISS:      10189
cpu0_DTLB PREFETCH  ACCESS:          0  HIT:          0  MISS:          0
cpu0_DTLB WRITEBACK ACCESS:          0  HIT:          0  MISS:          0
cpu0_ITLB TOTAL     ACCESS:    4367377  HIT:    4367377  MISS:          0
cpu0_ITLB LOAD      ACCESS:    4367377  HIT:    4367377  MISS:          0
cpu0_ITLB RFO       ACCESS:          0  HIT:          0  MISS:          0
cpu0_ITLB PREFETCH  ACCESS:          0  HIT:          0  MISS:          0
cpu0_ITLB WRITEBACK ACCESS:          0  HIT:          0  MISS:          0
cpu0_L1I TOTAL     ACCESS:    3040206  HIT:    3038239  MISS:       1967
cpu0_L1I LOAD      ACCESS:    3040206  HIT:    3038239  MISS:       1967
cpu0_L1I RFO       ACCESS:          0  HIT:          0  MISS:          0
cpu0_L1I PREFETCH  ACCESS:          0  HIT:          0  MISS:          0
cpu0_L1I WRITEBACK ACCESS:          0  HIT:          0  MISS:          0
cpu0_STLB TOTAL     ACCESS:      67041  HIT:      51511  MISS:      15530
cpu0_STLB LOAD      ACCESS:      56852  HIT:      41390  MISS:      15462
cpu0_STLB RFO       ACCESS:      10189  HIT:      10121  MISS:         68
cpu0_STLB PREFETCH  ACCESS:          0  HIT:          0  MISS:          0
cpu0_STLB WRITEBACK ACCESS:          0  HIT:          0  MISS:          0
cpu0_L1D TOTAL     ACCESS:   11455198  HIT:   11422477  MISS:      32721
cpu0_L1D LOAD      ACCESS:    7493882  HIT:    7468358  MISS:      25524
cpu0_L1D RFO       ACCESS:    3945786  HIT:    3938676  MISS:       7110
cpu0_L1D PREFETCH  ACCESS:          0  HIT:          0  MISS:          0
cpu0_L1D WRITEBACK ACCESS:          0  HIT:          0  MISS:          0
cpu0_L2C TOTAL     ACCESS:      56437  HIT:      27880  MISS:      28557
cpu0_L2C LOAD      ACCESS:      27491  HIT:       4884  MISS:      22607
cpu0_L2C RFO       ACCESS:       7109  HIT:       3649  MISS:       3460
cpu0_L2C PREFETCH  ACCESS:          0  HIT:          0  MISS:          0
cpu0_L2C WRITEBACK ACCESS:      21750  HIT:      19315  MISS:       2435
LLC TOTAL     ACCESS:      45019  HIT:      27655  MISS:      17364
LLC LOAD      ACCESS:      22607  HIT:       6395  MISS:      16212
LLC RFO       ACCESS:       3459  HIT:       2307  MISS:       1152
LLC PREFETCH  ACCESS:          0  HIT:          0  MISS:          0
LLC WRITEBACK ACCESS:      18898  HIT:      18898  MISS:          0
Heartbeat CPU 0 instructions: 96000000 cycles: 68410735 heartbeat IPC: 0.888872 cumulative IPC: 0.822745 (Simulation time: 0 hr 51 min 5 sec) 

Region of Interest Statistics
cpu0_DTLB TOTAL     ACCESS:   10080911  HIT:   10011265  MISS:      69646
cpu0_DTLB LOAD      ACCESS:    7595109  HIT:    7536102  MISS:      59007
cpu0_DTLB RFO       ACCESS:    2485802  HIT:    2475163  MISS:      10639
cpu0_DTLB PREFETCH  ACCESS:          0  HIT:          0  MISS:          0
cpu0_DTLB WRITEBACK ACCESS:          0  HIT:          0  MISS:          0
cpu0_ITLB TOTAL     ACCESS:    4567161  HIT:    4567161  MISS:          0
cpu0_ITLB LOAD      ACCESS:    4567161  HIT:    4567161  MISS:          0
cpu0_ITLB RFO       ACCESS:          0  HIT:          0  MISS:          0
cpu0_ITLB PREFETCH  ACCESS:          0  HIT:          0  MISS:          0
cpu0_ITLB WRITEBACK ACCESS:          0  HIT:          0  MISS:          0
cpu0_L1I TOTAL     ACCESS:    3155795  HIT:    3153689  MISS:       2106
cpu0_L1I LOAD      ACCESS:    3155795  HIT:    3153689  MISS:       2106
cpu0_L1I RFO       ACCESS:          0  HIT:          0  MISS:          0
cpu0_L1I PREFETCH  ACCESS:          0  HIT:          0  MISS:          0
cpu0_L1I WRITEBACK ACCESS:          0  HIT:          0  MISS:          0
cpu0_STLB TOTAL     ACCESS:      69646  HIT:      53561  MISS:      16085
cpu0_STLB LOAD      ACCESS:      59007  HIT:      42992  MISS:      16015
cpu0_STLB RFO       ACCESS:      10639  HIT:      10569  MISS:         70
cpu0_STLB PREFETCH  ACCESS:          0  HIT:          0  MISS:          0
cpu0_STLB WRITEBACK ACCESS:          0  HIT:          0  MISS:          0
cpu0_L1D TOTAL     ACCESS:   11974259  HIT:   11940313  MISS:      33946
cpu0_L1D LOAD      ACCESS:    7822242  HIT:    7795767  MISS:      26475
cpu0_L1D RFO       ACCESS:    4135932  HIT:    4128552  MISS:       7380
cpu0_L1D PREFETCH  ACCESS:          0  HIT:          0  MISS:          0
cpu0_L1D WRITEBACK ACCESS:          0  HIT:          0  MISS:          0
cpu0_L2C TOTAL     ACCESS:      58560  HIT:      28892  MISS:      29668
cpu0_L2C LOAD      ACCESS:      28581  HIT:       5101  MISS:      23480
cpu0_L2C RFO       ACCESS:       7379  HIT:       3786  MISS:       3593
cpu0_L2C PREFETCH  ACCESS:          0  HIT:          0  MISS:          0
cpu0_L2C WRITEBACK ACCESS:      22509  HIT:      19973  MISS:       2536
LLC TOTAL     ACCESS:      46739  HIT:      28740  MISS:      17999
LLC LOAD      ACCESS:      23480  HIT:       6678  MISS:      16802
LLC RFO       ACCESS:       3592  HIT:       2395  MISS:       1197
LLC PREFETCH  ACCESS:          0  HIT:          0  MISS:          0
LLC WRITEBACK ACCESS:      19608  HIT:      19608  MISS:          0
Heartbeat CPU 0 instructions: 98000001 cycles: 70785373 heartbeat IPC: 0.842234 cumulative IPC: 0.823539 (Simulation time: 0 hr 52 min 5 sec) 

Region of Interest Statistics
cpu0_DTLB TOTAL     ACCESS:   10517559  HIT:   10444823  MISS:      72736
cpu0_DTLB LOAD      ACCESS:    7924049  HIT:    7862426  MISS:      61623
cpu0_DTLB RFO       ACCESS:    2593510  HIT:    2582397  MISS:      11113
cpu0_DTLB PREFETCH  ACCESS:          0  HIT:          0  MISS:          0
cpu0_DTLB WRITEBACK ACCESS:          0  HIT:          0  MISS:          0
cpu0_ITLB TOTAL     ACCESS:    4765335  HIT:    4765335  MISS:          0
cpu0_ITLB LOAD      ACCESS:    4765335  HIT:    4765335  MISS:          0
cpu0_ITLB RFO       ACCESS:          0  HIT:          0  MISS:          0
cpu0_ITLB PREFETCH  ACCESS:          0  HIT:          0  MISS:          0
cpu0_ITLB WRITEBACK ACCESS:          0  HIT:          0  MISS:          0
cpu0_L1I TOTAL     ACCESS:    3295739  HIT:    3293458  MISS:       2281
cpu0_L1I LOAD      ACCESS:    3295739  HIT:    3293458  MISS:       2281
cpu0_L1I RFO       ACCESS:          0  HIT:          0  MISS:          0
cpu0_L1I PREFETCH  ACCESS:          0  HIT:          0  MISS:          0
cpu0_L1I WRITEBACK ACCESS:          0  HIT:          0  MISS:          0
cpu0_STLB TOTAL     ACCESS:      72736  HIT:      56032  MISS:      16704
cpu0_STLB LOAD      ACCESS:      61623  HIT:      44996  MISS:      16627
cpu0_STLB RFO       ACCESS:      11113  HIT:      11036  MISS:         77
cpu0_STLB PREFETCH  ACCESS:          0  HIT:          0  MISS:          0
cpu0_STLB WRITEBACK ACCESS:          0  HIT:          0  MISS:          0
cpu0_L1D TOTAL     ACCESS:   12491581  HIT:   12456389  MISS:      35192
cpu0_L1D LOAD      ACCESS:    8163955  HIT:    8136527  MISS:      27428
cpu0_L1D RFO       ACCESS:    4310922  HIT:    4303255  MISS:       7667
cpu0_L1D PREFETCH  ACCESS:          0  HIT:          0  MISS:          0
cpu0_L1D WRITEBACK ACCESS:          0  HIT:          0  MISS:          0
cpu0_L2C TOTAL     ACCESS:      60827  HIT:      29971  MISS:      30856
cpu0_L2C LOAD      ACCESS:      29709  HIT:       5352  MISS:      24357
cpu0_L2C RFO       ACCESS:       7666  HIT:       3857  MISS:       3809
cpu0_L2C PREFETCH  ACCESS:          0  HIT:          0  MISS:          0
cpu0_L2C WRITEBACK ACCESS:      23355  HIT:      20727  MISS:       2628
LLC TOTAL     ACCESS:      48572  HIT:      29879  MISS:      18693
LLC LOAD      ACCESS:      24357  HIT:       6911  MISS:      17446
LLC RFO       ACCESS:       3808  HIT:       2561  MISS:       1247
LLC PREFETCH  ACCESS:          0  HIT:          0  MISS:          0
LLC WRITEBACK ACCESS:      20345  HIT:      20345  MISS:          0
Heartbeat CPU 0 instructions: 100000004 cycles: 73033909 heartbeat IPC: 0.889469 cumulative IPC: 0.825988 (Simulation time: 0 hr 53 min 4 sec) 

Region of Interest Statistics
cpu0_DTLB TOTAL     ACCESS:   10942781  HIT:   10868030  MISS:      74751
cpu0_DTLB LOAD      ACCESS:    8237648  HIT:    8174393  MISS:      63255
cpu0_DTLB RFO       ACCESS:    2705133  HIT:    2693637  MISS:      11496
cpu0_DTLB PREFETCH  ACCESS:          0  HIT:          0  MISS:          0
cpu0_DTLB WRITEBACK ACCESS:          0  HIT:          0  MISS:          0
cpu0_ITLB TOTAL     ACCESS:    4971241  HIT:    4971241  MISS:          0
cpu0_ITLB LOAD      ACCESS:    4971241  HIT:    4971241  MISS:          0
cpu0_ITLB RFO       ACCESS:          0  HIT:          0  MISS:          0
cpu0_ITLB PREFETCH  ACCESS:          0  HIT:          0  MISS:          0
cpu0_ITLB WRITEBACK ACCESS:          0  HIT:          0  MISS:          0
cpu0_L1I TOTAL     ACCESS:    3400812  HIT:    3398431  MISS:       2381
cpu0_L1I LOAD      ACCESS:    3400812  HIT:    3398431  MISS:       2381
cpu0_L1I RFO       ACCESS:          0  HIT:          0  MISS:          0
cpu0_L1I PREFETCH  ACCESS:          0  HIT:          0  MISS:          0
cpu0_L1I WRITEBACK ACCESS:          0  HIT:          0  MISS:          0
cpu0_STLB TOTAL     ACCESS:      74751  HIT:      57568  MISS:      17183
cpu0_STLB LOAD      ACCESS:      63255  HIT:      46156  MISS:      17099
cpu0_STLB RFO       ACCESS:      11496  HIT:      11412  MISS:         84
cpu0_STLB PREFETCH  ACCESS:          0  HIT:          0  MISS:          0
cpu0_STLB WRITEBACK ACCESS:          0  HIT:          0  MISS:          0
cpu0_L1D TOTAL     ACCESS:   13001761  HIT:   12965554  MISS:      36207
cpu0_L1D LOAD      ACCESS:    8487193  HIT:    8458954  MISS:      28239
cpu0_L1D RFO       ACCESS:    4497385  HIT:    4489518  MISS:       7867
cpu0_L1D PREFETCH  ACCESS:          0  HIT:          0  MISS:          0
cpu0_L1D WRITEBACK ACCESS:          0  HIT:          0  MISS:          0
cpu0_L2C TOTAL     ACCESS:      62591  HIT:      30701  MISS:      31890
cpu0_L2C LOAD      ACCESS:      30620  HIT:       5522  MISS:      25098
cpu0_L2C RFO       ACCESS:       7866  HIT:       3922  MISS:       3944
cpu0_L2C PREFETCH  ACCESS:          0  HIT:          0  MISS:          0
cpu0_L2C WRITEBACK ACCESS:      24004  HIT:      21221  MISS:       2783
LLC TOTAL     ACCESS:      50097  HIT:      30858  MISS:      19239
LLC LOAD      ACCESS:      25098  HIT:       7138  MISS:      17960
LLC RFO       ACCESS:       3943  HIT:       2664  MISS:       1279
LLC PREFETCH  ACCESS:          0  HIT:          0  MISS:          0
LLC WRITEBACK ACCESS:      20991  HIT:      20991  MISS:          0
Heartbeat CPU 0 instructions: 102000000 cycles: 75276130 heartbeat IPC: 0.891971 cumulative IPC: 0.828345 (Simulation time: 0 hr 54 min 56 sec) 

Region of Interest Statistics
cpu0_DTLB TOTAL     ACCESS:   11370691  HIT:   11293920  MISS:      76771
cpu0_DTLB LOAD      ACCESS:    8551060  HIT:    8486177  MISS:      64883
cpu0_DTLB RFO       ACCESS:    2819631  HIT:    2807743  MISS:      11888
cpu0_DTLB PREFETCH  ACCESS:          0  HIT:          0  MISS:          0
cpu0_DTLB WRITEBACK ACCESS:          0  HIT:          0  MISS:          0
cpu0_ITLB TOTAL     ACCESS:    5173398  HIT:    5173398  MISS:          0
cpu0_ITLB LOAD      ACCESS:    5173398  HIT:    5173398  MISS:          0
cpu0_ITLB RFO       ACCESS:          0  HIT:          0  MISS:          0
cpu0_ITLB PREFETCH  ACCESS:          0  HIT:          0  MISS:          0
cpu0_ITLB WRITEBACK ACCESS:          0  HIT:          0  MISS:          0
cpu0_L1I TOTAL     ACCESS:    3514707  HIT:    3512196  MISS:       2511
cpu0_L1I LOAD      ACCESS:    3514707  HIT:    3512196  MISS:       2511
cpu0_L1I RFO       ACCESS:          0  HIT:          0  MISS:          0
cpu0_L1I PREFETCH  ACCESS:          0  HIT:          0  MISS:          0
cpu0_L1I WRITEBACK ACCESS:          0  HIT:          0  MISS:          0
cpu0_STLB TOTAL     ACCESS:      76771  HIT:      59068  MISS:      17703
cpu0_STLB LOAD      ACCESS:      64883  HIT:      47276  MISS:      17607
cpu0_STLB RFO       ACCESS:      11888  HIT:      11792  MISS:         96
cpu0_STLB PREFETCH  ACCESS:          0  HIT:          0  MISS:          0
cpu0_STLB WRITEBACK ACCESS:          0  HIT:          0  MISS:          0
cpu0_L1D TOTAL     ACCESS:   13521272  HIT:   13484030  MISS:      37242
cpu0_L1D LOAD      ACCESS:    8814619  HIT:    8785587  MISS:      29032
cpu0_L1D RFO       ACCESS:    4688950  HIT:    4680847  MISS:       8103
cpu0_L1D PREFETCH  ACCESS:          0  HIT:          0  MISS:          0
cpu0_L1D WRITEBACK ACCESS:          0  HIT:          0  MISS:          0
cpu0_L2C TOTAL     ACCESS:      64406  HIT:      31555  MISS:      32851
cpu0_L2C LOAD      ACCESS:      31543  HIT:       5701  MISS:      25842
cpu0_L2C RFO       ACCESS:       8101  HIT:       4011  MISS:       4090
cpu0_L2C PREFETCH  ACCESS:          0  HIT:          0  MISS:          0
cpu0_L2C WRITEBACK ACCESS:      24655  HIT:      21806  MISS:       2849
LLC TOTAL     ACCESS:      51567  HIT:      31681  MISS:      19886
LLC LOAD      ACCESS:      25842  HIT:       7325  MISS:      18517
LLC RFO       ACCESS:       4089  HIT:       2720  MISS:       1369
LLC PREFETCH  ACCESS:          0  HIT:          0  MISS:          0
LLC WRITEBACK ACCESS:      21566  HIT:      21566  MISS:          0
Heartbeat CPU 0 instructions: 104000002 cycles: 77562901 heartbeat IPC: 0.874597 cumulative IPC: 0.829971 (Simulation time: 0 hr 55 min 53 sec) 

Region of Interest Statistics
cpu0_DTLB TOTAL     ACCESS:   11795146  HIT:   11716182  MISS:      78964
cpu0_DTLB LOAD      ACCESS:    8865245  HIT:    8798567  MISS:      66678
cpu0_DTLB RFO       ACCESS:    2929901  HIT:    2917615  MISS:      12286
cpu0_DTLB PREFETCH  ACCESS:          0  HIT:          0  MISS:          0
cpu0_DTLB WRITEBACK ACCESS:          0  HIT:          0  MISS:          0
cpu0_ITLB TOTAL     ACCESS:    5377993  HIT:    5377993  MISS:          0
cpu0_ITLB LOAD      ACCESS:    5377993  HIT:    5377993  MISS:          0
cpu0_ITLB RFO       ACCESS:          0  HIT:          0  MISS:          0
cpu0_ITLB PREFETCH  ACCESS:          0  HIT:          0  MISS:          0
cpu0_ITLB WRITEBACK ACCESS:          0  HIT:          0  MISS:          0
cpu0_L1I TOTAL     ACCESS:    3627251  HIT:    3624594  MISS:       2657
cpu0_L1I LOAD      ACCESS:    3627251  HIT:    3624594  MISS:       2657
cpu0_L1I RFO       ACCESS:          0  HIT:          0  MISS:          0
cpu0_L1I PREFETCH  ACCESS:          0  HIT:          0  MISS:          0
cpu0_L1I WRITEBACK ACCESS:          0  HIT:          0  MISS:          0
cpu0_STLB TOTAL     ACCESS:      78964  HIT:      60766  MISS:      18198
cpu0_STLB LOAD      ACCESS:      66678  HIT:      48579  MISS:      18099
cpu0_STLB RFO       ACCESS:      12286  HIT:      12187  MISS:         99
cpu0_STLB PREFETCH  ACCESS:          0  HIT:          0  MISS:          0
cpu0_STLB WRITEBACK ACCESS:          0  HIT:          0  MISS:          0
cpu0_L1D TOTAL     ACCESS:   14031801  HIT:   13993328  MISS:      38473
cpu0_L1D LOAD      ACCESS:    9139725  HIT:    9109746  MISS:      29979
cpu0_L1D RFO       ACCESS:    4873878  HIT:    4865497  MISS:       8381
cpu0_L1D PREFETCH  ACCESS:          0  HIT:          0  MISS:          0
cpu0_L1D WRITEBACK ACCESS:          0  HIT:          0  MISS:          0
cpu0_L2C TOTAL     ACCESS:      66611  HIT:      32657  MISS:      33954
cpu0_L2C LOAD      ACCESS:      32636  HIT:       5951  MISS:      26685
cpu0_L2C RFO       ACCESS:       8379  HIT:       4165  MISS:       4214
cpu0_L2C PREFETCH  ACCESS:          0  HIT:          0  MISS:          0
cpu0_L2C WRITEBACK ACCESS:      25483  HIT:      22500  MISS:       2983
LLC TOTAL     ACCESS:      53239  HIT:      32775  MISS:      20464
LLC LOAD      ACCESS:      26685  HIT:       7645  MISS:      19040
LLC RFO       ACCESS:       4213  HIT:       2789  MISS:       1424
LLC PREFETCH  ACCESS:          0  HIT:          0  MISS:          0
LLC WRITEBACK ACCESS:      22269  HIT:      22269  MISS:          0
Heartbeat CPU 0 instructions: 106000000 cycles: 79762905 heartbeat IPC: 0.909088 cumulative IPC: 0.832558 (Simulation time: 0 hr 56 min 48 sec) 

Region of Interest Statistics
cpu0_DTLB TOTAL     ACCESS:   12217503  HIT:   12136420  MISS:      81083
cpu0_DTLB LOAD      ACCESS:    9176306  HIT:    9107910  MISS:      68396
cpu0_DTLB RFO       ACCESS:    3041197  HIT:    3028510  MISS:      12687
cpu0_DTLB PREFETCH  ACCESS:          0  HIT:          0  MISS:          0
cpu0_DTLB WRITEBACK ACCESS:          0  HIT:          0  MISS:          0
cpu0_ITLB TOTAL     ACCESS:    5584927  HIT:    5584927  MISS:          0
cpu0_ITLB LOAD      ACCESS:    5584927  HIT:    5584927  MISS:          0
cpu0_ITLB RFO       ACCESS:          0  HIT:          0  MISS:          0
cpu0_ITLB PREFETCH  ACCESS:          0  HIT:          0  MISS:          0
cpu0_ITLB WRITEBACK ACCESS:          0  HIT:          0  MISS:          0
cpu0_L1I TOTAL     ACCESS:    3729836  HIT:    3727032  MISS:       2804
cpu0_L1I LOAD      ACCESS:    3729836  HIT:    3727032  MISS:       2804
cpu0_L1I RFO       ACCESS:          0  HIT:          0  MISS:          0
cpu0_L1I PREFETCH  ACCESS:          0  HIT:          0  MISS:          0
cpu0_L1I WRITEBACK ACCESS:          0  HIT:          0  MISS:          0
cpu0_STLB TOTAL     ACCESS:      81083  HIT:      62433  MISS:      18650
cpu0_STLB LOAD      ACCESS:      68396  HIT:      49845  MISS:      18551
cpu0_STLB RFO       ACCESS:      12687  HIT:      12588  MISS:         99
cpu0_STLB PREFETCH  ACCESS:          0  HIT:          0  MISS:          0
cpu0_STLB WRITEBACK ACCESS:          0  HIT:          0  MISS:          0
cpu0_L1D TOTAL     ACCESS:   14538838  HIT:   14499197  MISS:      39641
cpu0_L1D LOAD      ACCESS:    9460852  HIT:    9429990  MISS:      30862
cpu0_L1D RFO       ACCESS:    5059336  HIT:    5050671  MISS:       8665
cpu0_L1D PREFETCH  ACCESS:          0  HIT:          0  MISS:          0
cpu0_L1D WRITEBACK ACCESS:          0  HIT:          0  MISS:          0
cpu0_L2C TOTAL     ACCESS:      68655  HIT:      33657  MISS:      34998
cpu0_L2C LOAD      ACCESS:      33666  HIT:       6167  MISS:      27499
cpu0_L2C RFO       ACCESS:       8662  HIT:       4330  MISS:       4332
cpu0_L2C PREFETCH  ACCESS:          0  HIT:          0  MISS:          0
cpu0_L2C WRITEBACK ACCESS:      26213  HIT:      23118  MISS:       3095
LLC TOTAL     ACCESS:      54799  HIT:      33836  MISS:      20963
[...]
cpu0_DTLB RFO       ACCESS:   81597161  HIT:   81282872  MISS:     314289
cpu0_DTLB PREFETCH  ACCESS:          0  HIT:          0  MISS:          0
cpu0_DTLB WRITEBACK ACCESS:          0  HIT:          0  MISS:          0
cpu0_DTLB TRANSLATION ACCESS:          0  HIT:          0  MISS:          0
cpu0_DTLB PREFETCH  REQUESTED:          0  ISSUED:          0  USEFUL:          0  USELESS:          0
cpu0_DTLB AVERAGE MISS LATENCY: 14.0641 cycles
cpu0_ITLB TOTAL     ACCESS:  150964476  HIT:  150964474  MISS:          2
cpu0_ITLB LOAD      ACCESS:  150964476  HIT:  150964474  MISS:          2
cpu0_ITLB RFO       ACCESS:          0  HIT:          0  MISS:          0
cpu0_ITLB PREFETCH  ACCESS:          0  HIT:          0  MISS:          0
cpu0_ITLB WRITEBACK ACCESS:          0  HIT:          0  MISS:          0
cpu0_ITLB TRANSLATION ACCESS:          0  HIT:          0  MISS:          0
cpu0_ITLB PREFETCH  REQUESTED:          0  ISSUED:          0  USEFUL:          0  USELESS:          0
cpu0_ITLB AVERAGE MISS LATENCY: 233 cycles
cpu0_L1I TOTAL     ACCESS:   95479444  HIT:   95408816  MISS:      70628
cpu0_L1I LOAD      ACCESS:   95479444  HIT:   95408816  MISS:      70628
cpu0_L1I RFO       ACCESS:          0  HIT:          0  MISS:          0
cpu0_L1I PREFETCH  ACCESS:          0  HIT:          0  MISS:          0
cpu0_L1I WRITEBACK ACCESS:          0  HIT:          0  MISS:          0
cpu0_L1I TRANSLATION ACCESS:          0  HIT:          0  MISS:          0
cpu0_L1I PREFETCH  REQUESTED:          0  ISSUED:          0  USEFUL:          0  USELESS:          0
cpu0_L1I AVERAGE MISS LATENCY: 16.3917 cycles
cpu0_STLB TOTAL     ACCESS:    1973500  HIT:    1541950  MISS:     431550
cpu0_STLB LOAD      ACCESS:    1659211  HIT:    1229737  MISS:     429474
cpu0_STLB RFO       ACCESS:     314289  HIT:     312213  MISS:       2076
cpu0_STLB PREFETCH  ACCESS:          0  HIT:          0  MISS:          0
cpu0_STLB WRITEBACK ACCESS:          0  HIT:          0  MISS:          0
cpu0_STLB TRANSLATION ACCESS:          0  HIT:          0  MISS:          0
cpu0_STLB PREFETCH  REQUESTED:          0  ISSUED:          0  USEFUL:          0  USELESS:          0
cpu0_STLB AVERAGE MISS LATENCY: 23.1304 cycles
cpu0_L1D TOTAL     ACCESS:  386001747  HIT:  385040434  MISS:     961313
cpu0_L1D LOAD      ACCESS:  250105736  HIT:  249372890  MISS:     732846
cpu0_L1D RFO       ACCESS:  135464491  HIT:  135240032  MISS:     224459
cpu0_L1D PREFETCH  ACCESS:          0  HIT:          0  MISS:          0
cpu0_L1D WRITEBACK ACCESS:          0  HIT:          0  MISS:          0
cpu0_L1D TRANSLATION ACCESS:     431520  HIT:     427512  MISS:       4008
cpu0_L1D PREFETCH  REQUESTED:          0  ISSUED:          0  USEFUL:          0  USELESS:          0
cpu0_L1D AVERAGE MISS LATENCY: 107.188 cycles
cpu0_L2C TOTAL     ACCESS:    1653465  HIT:     819545  MISS:     833920
cpu0_L2C LOAD      ACCESS:     803471  HIT:     156962  MISS:     646509
cpu0_L2C RFO       ACCESS:     224433  HIT:     115105  MISS:     109328
cpu0_L2C PREFETCH  ACCESS:          0  HIT:          0  MISS:          0
cpu0_L2C WRITEBACK ACCESS:     621553  HIT:     545946  MISS:      75607
cpu0_L2C TRANSLATION ACCESS:       4008  HIT:       1532  MISS:       2476
cpu0_L2C PREFETCH  REQUESTED:          0  ISSUED:          0  USEFUL:          0  USELESS:          0
cpu0_L2C AVERAGE MISS LATENCY: 111.328 cycles
LLC TOTAL     ACCESS:    1288627  HIT:     817629  MISS:     470998
LLC LOAD      ACCESS:     646509  HIT:     206432  MISS:     440077
LLC RFO       ACCESS:     109325  HIT:      78569  MISS:      30756
LLC PREFETCH  ACCESS:          0  HIT:          0  MISS:          0
LLC WRITEBACK ACCESS:     530317  HIT:     530159  MISS:        158
LLC TRANSLATION ACCESS:       2476  HIT:       2469  MISS:          7
LLC PREFETCH  REQUESTED:          0  ISSUED:          0  USEFUL:          0  USELESS:          0
LLC AVERAGE MISS LATENCY: 163.3 cycles
~~~~~~~~~~Reuse Distance Profiler output~~~~~~~~~~
0	62124448	18479072
1	31622736	16024480
2	20917680	11716768
3	18320144	12361456
4	13959792	9912736
5	10816080	7804272
6	9829920	6625360
7	9266400	6176416
8	8410672	5796144
9	8382464	5886288
10	6609072	4455008
11	6170336	4529008
12	5419456	3703760
13	5267744	3465312
14	4582800	2672576
15	4283424	3063152
16	3502256	2543552
17	3753600	2684336
18	3324736	2521920
19	2966240	2179952
20	3166368	2484848
21	3118736	2215040
22	3012864	2110336
23	2858592	2224816
24	2828144	2266960
25	3222896	2700240
26	3331952	2642896
27	3086032	2502944
28	3298080	2815984
29	2723312	2264624
30	2611840	1955728
31	2281168	1803152
32	2090496	1648608
33	2105584	1643248
34	2019216	1428624
35	1936896	1380816
36	1722944	1319808
37	1667264	1151712
38	1680640	1216960
39	1743136	1137920
40	1438032	1088112
41	1384112	1099104
42	1425520	1084912
43	1444784	1031184
44	1336304	924896
45	1301328	924064
46	1315136	896512
47	1114112	808672
48	1043024	798704
49	1008512	768000
50	988512	768320
51	893936	673648
52	877152	674816
53	905552	716448
54	943472	764816
55	968144	786912
56	989312	807632
57	965824	769328
58	1001168	815056
59	1015808	817920
60	1050848	786352
61	954752	757024
62	954352	733552
63	971760	721088
64	1825392	1414368
66	1734800	1300288
68	1596288	1106272
70	1569808	1033888
72	1519552	1010560
74	1469616	990816
76	1437648	973792
78	1382112	970464
80	1411648	1002224
82	1366080	981072
84	1267664	923776
86	1178288	849856
88	1092320	808672
90	1036880	793392
92	1002528	764816
94	958992	719376
96	879680	655296
98	786800	600944
100	718176	568880
102	622640	499520
104	554544	458128
106	532976	454464
108	511952	445680
110	524368	465728
112	560016	508128
114	610448	554320
116	609456	559888
118	556832	504336
120	491536	437536
122	472240	417296
124	452224	393888
126	429424	372096
128	849488	744144
132	830848	734464
136	839616	740336
140	942704	821184
144	1107744	942064
148	1174816	990864
152	1040096	881120
156	838416	703968
160	709712	597648
164	617856	525984
168	538480	458928
172	474704	406032
176	431152	373536
180	407552	355488
184	372224	328192
188	345712	307520
192	336544	301936
196	339888	306976
200	338544	305552
204	338368	306448
208	338176	305664
212	328720	297136
216	302816	273984
220	281408	255536
224	256944	234000
228	237920	216640
232	235024	214512
236	219392	198336
240	209456	188560
244	200000	180304
248	186704	168656
252	176880	160928
256	332160	299536
264	320000	283744
272	311072	273376
280	304048	266688
288	292864	256400
296	296864	259776
304	285344	248304
312	254704	219952
320	228752	197040
328	221072	191680
336	216080	189040
344	208096	182400
352	202624	177792
360	191040	166192
368	183872	159120
376	176096	149968
384	164960	139120
392	162784	136112
400	156784	130672
408	156016	131152
416	158016	131344
424	152064	128240
432	152896	129024
440	147408	124976
448	146688	126304
456	147440	126944
464	141840	123024
472	142560	124048
480	143824	124368
488	143072	123584
496	138848	120256
504	134848	117248
512	276288	242960
528	255232	222608
544	238336	205504
560	234496	202000
576	230064	196384
592	245072	210032
608	252304	215936
624	261760	223904
640	269712	233584
656	283344	245280
672	288128	248048
688	295696	256736
704	302544	261792
720	309808	269184
736	325872	282880
752	313616	272688
768	308144	268768
784	310496	269072
800	308208	269920
816	307056	268256
832	314016	273104
848	290560	251424
864	280288	244400
880	266592	232976
896	254016	226208
912	253936	226480
928	243520	214512
944	236256	207824
960	238576	211488
976	239568	208768
992	262416	231328
1008	240304	212336
1024	437104	391408
1056	380912	343808
1088	349936	315248
1120	334064	300592
1152	349568	313472
1184	333648	299568
1216	314592	282512
1248	320304	287184
1280	313744	280400
1312	304416	270256
1344	299056	264000
1376	299872	265344
1408	292848	259120
1440	286176	250080
1472	283472	247376
1504	272592	235696
1536	272816	238240
1568	262160	227264
1600	250192	216784
1632	230128	198608
1664	217632	186720
1696	201392	170192
1728	192048	162144
1760	178544	151632
1792	166592	140320
1824	153552	130144
1856	142448	119504
1888	134352	112320
1920	118736	98432
1952	116448	96592
1984	115168	95664
2016	107696	89680
2048	192704	159280
2112	173840	142096
2176	164192	133248
2240	158832	129520
2304	154544	125232
2368	149104	119280
2432	143616	116400
2496	138304	111360
2560	136208	109664
2624	134080	108096
2688	127552	101728
2752	123376	98336
2816	118528	95296
2880	114304	92240
2944	109344	89616
3008	102832	83744
3072	99680	79680
3136	97280	78992
3200	91456	72912
3264	89456	72064
3328	84752	66752
3392	82112	64816
3456	81040	63760
3520	78576	61760
3584	76240	59152
3648	75248	58272
3712	74688	57792
3776	74032	58048
3840	71920	55872
3904	74944	58624
3968	73264	56768
4032	69504	54304
4096	138272	106800
4224	136304	104768
4352	131488	99952
4480	128096	97840
4608	122176	93616
4736	122960	94336
4864	118832	91872
4992	117920	90096
5120	115504	89728
5248	105280	80912
5376	107344	82176
5504	106464	82768
5632	104016	80096
5760	102752	79872
5888	97104	76320
6016	97248	75296
6144	91984	71856
6272	91696	72128
6400	89680	70256
6528	85776	65728
6656	84048	65440
6784	80880	63024
6912	78560	62432
7040	76320	59680
7168	75120	59120
7296	71872	56016
7424	67552	52224
7552	67088	51760
7680	64512	50192
7808	62320	47104
7936	61792	48528
8064	60192	46464
8192	112448	87808
8448	108640	84368
8704	101312	79264
8960	95344	73808
9216	89040	68848
9472	83632	64160
9728	80160	61584
9984	73760	56480
10240	70096	53056
10496	67712	51104
10752	62384	46176
11008	59024	43376
11264	54752	40560
11520	51760	37824
11776	51264	36784
12032	51280	36992
12288	48224	34416
12544	48016	33664
12800	44608	30880
13056	45136	31232
13312	43264	29680
13568	43920	30560
13824	42544	29408
14080	42544	29264
14336	42208	29376
14592	42032	28544
14848	40992	28976
15104	38704	27056
15360	39024	27136
15616	36640	26016
15872	36032	24672
16128	35568	24656
16384	67664	45552
16896	66624	45760
17408	59712	40992
17920	54512	37104
18432	50608	33536
18944	46992	31072
19456	45952	30384
19968	41216	27040
20480	40624	26400
20992	36288	23776
21504	35376	23120
22016	34016	21744
22528	31296	20432
23040	30736	19760
23552	29392	18992
24064	29552	18752
24576	28736	18144
25088	27248	17584
25600	25664	16528
26112	25504	16176
26624	24256	15376
27136	23808	15216
27648	23120	14800
28160	21504	13552
28672	19872	12176
29184	21456	13344
29696	21008	13344
30208	19744	12256
30720	18576	11360
31232	18448	11280
31744	17248	10560
32256	17264	10752
32768	32720	20544
33792	29312	18144
34816	27648	16896
35840	27072	16272
36864	26176	15920
37888	24656	15088
38912	22768	13696
39936	22432	13424
40960	21664	13696
41984	20752	12368
43008	19264	11616
44032	17360	10528
45056	17280	10192
46080	15712	9792
47104	16752	9904
48128	16000	9536
49152	13824	7616
50176	13744	8000
51200	13376	8128
52224	12656	7728
53248	13136	7360
54272	13280	7632
55296	11904	7136
56320	11312	6400
57344	11088	6080
58368	10752	6224
59392	10288	5776
60416	10240	5760
61440	10128	6112
62464	8880	5232
63488	9552	5584
64512	8608	5424
65536	16912	9776
67584	15232	8688
69632	15376	8864
71680	14816	8272
73728	13728	7648
75776	13456	7360
77824	11744	6560
79872	11376	6352
81920	10544	5856
83968	10640	5744
86016	9168	5120
88064	9744	5744
90112	9456	5232
92160	8368	4384
94208	8976	4688
96256	8128	4304
98304	8576	4448
100352	6992	3728
102400	7536	4272
104448	6640	3472
106496	6240	3264
108544	5920	3088
110592	6272	3456
112640	6080	3424
114688	5488	3104
116736	5552	3104
118784	5328	3040
120832	5584	2800
122880	4880	2848
124928	5104	2928
126976	5104	2944
129024	4544	2768
131072	9616	5328
135168	8912	5040
139264	8384	4928
143360	8032	4272
147456	7472	4128
151552	7392	3984
155648	7088	4048
159744	5792	3472
163840	6192	3312
167936	6160	3408
172032	5328	3216
176128	5904	3376
180224	5472	2944
184320	5040	2816
188416	5104	3184
192512	4896	2864
196608	4528	2880
200704	5216	2720
204800	4352	2320
208896	4432	2608
212992	3760	2128
217088	3968	2032
221184	4000	2128
225280	3744	2240
229376	3536	2160
233472	3504	2288
237568	3664	1744
241664	3456	1984
245760	3536	2016
249856	3200	1664
253952	2736	1232
258048	3328	1856
262144	5744	3168
270336	6032	3440
278528	5504	3056
286720	5072	2928
294912	4448	2512
303104	5056	2928
311296	3968	2176
319488	4416	2512
327680	4256	2720
335872	3888	2128
344064	3216	1824
352256	3360	2064
360448	3216	1888
368640	3264	1968
376832	2720	1472
385024	3184	1760
393216	2784	1680
401408	3184	2000
409600	2384	1488
417792	2704	1552
425984	2896	1648
434176	2256	1456
442368	2512	1440
450560	2160	1168
458752	2560	1280
466944	2464	1328
475136	2000	1056
483328	2128	1376
491520	2016	1120
499712	1856	1040
507904	2080	1152
516096	1696	1056
524288	3584	2240
540672	2976	1792
557056	3536	2448
573440	3312	1984
589824	3040	1712
606208	3104	1728
622592	2976	1872
638976	2656	1680
655360	2720	1760
671744	2272	1312
688128	2704	1712
704512	2256	1296
720896	2144	1152
737280	2112	1344
753664	1824	992
770048	1728	1216
786432	1776	1104
802816	1856	1232
819200	1792	1200
835584	1648	1104
851968	1680	1136
868352	1728	1104
884736	1568	1024
901120	1680	1088
917504	1584	1120
933888	1376	1072
950272	1536	928
966656	1440	944
983040	1264	768
999424	1408	1008
1015808	1600	1120
1032192	1440	960
1048576	2528	1792
1081344	2256	1344
1114112	2032	1136
1146880	2144	1440
1179648	2192	1248
1212416	1920	1328
1245184	2128	1456
1277952	1696	1120
1310720	1312	912
1343488	1424	960
1376256	1680	1040
1409024	1616	1024
1441792	1168	784
1474560	1472	880
1507328	1264	768
1540096	1328	960
1572864	1056	656
1605632	960	448
1638400	1088	832
1671168	1040	736
1703936	1104	752
1736704	864	608
1769472	1008	720
1802240	976	592
1835008	880	672
1867776	816	544
1900544	784	480
1933312	704	368
1966080	944	656
1998848	752	576
2031616	768	640
2064384	704	480
2097152	1200	864
2162688	1328	960
2228224	960	672
2293760	1120	784
2359296	752	480
2424832	928	608
2490368	1168	864
2555904	1072	720
2621440	912	608
2686976	640	480
2752512	1024	624
2818048	976	704
2883584	880	544
2949120	624	464
3014656	832	672
3080192	560	368
3145728	576	384
3211264	576	400
3276800	368	208
3342336	464	352
3407872	592	416
3473408	432	304
3538944	496	304
3604480	608	352
3670016	576	352
3735552	464	304
3801088	448	304
3866624	400	288
3932160	512	416
3997696	464	272
4063232	640	480
4128768	336	208
4194304	816	592
4325376	864	720
4456448	960	560
4587520	512	320
4718592	736	608
4849664	928	672
4980736	896	624
5111808	512	352
5242880	528	384
5373952	480	384
5505024	688	512
5636096	448	400
5767168	720	528
5898240	512	432
6029312	672	544
6160384	608	448
6291456	560	480
6422528	400	304
6553600	416	304
6684672	384	320
6815744	448	320
6946816	432	352
7077888	496	288
7208960	720	496
7340032	304	240
7471104	400	352
7602176	368	304
7733248	144	144
7864320	416	320
7995392	224	224
8126464	384	336
8257536	224	192
8388608	592	432
8650752	432	304
8912896	768	656
9175040	528	432
9437184	416	368
9699328	528	400
9961472	432	272
10223616	288	256
10485760	544	448
10747904	384	304
11010048	464	320
11272192	400	304
11534336	416	336
11796480	256	176
12058624	320	288
12320768	448	320
12582912	320	256
12845056	320	272
13107200	320	240
13369344	320	256
13631488	256	224
13893632	336	288
14155776	224	160
14417920	240	192
14680064	272	208
14942208	304	240
15204352	224	192
15466496	192	192
15728640	304	272
15990784	272	240
16252928	352	320
16515072	304	240
16777216	736	608
17301504	592	480
17825792	384	336
18350080	368	320
18874368	464	416
19398656	416	352
19922944	336	272
20447232	352	288
20971520	624	544
21495808	656	576
22020096	544	400
22544384	416	320
23068672	672	544
23592960	320	288
24117248	384	352
24641536	352	336
25165824	400	352
25690112	352	320
26214400	544	496
26738688	320	288
27262976	256	224
27787264	272	176
28311552	352	304
28835840	592	544
29360128	432	368
29884416	368	352
30408704	336	320
30932992	480	320
31457280	368	320
31981568	304	288
32505856	400	352
33030144	304	272
33554432	592	512
34603008	720	656
35651584	800	768
36700160	704	656
37748736	688	640
38797312	576	528
39845888	448	416
40894464	608	576
41943040	512	464
42991616	640	512
44040192	400	336
45088768	464	384
46137344	384	352
47185920	640	576
48234496	496	480
49283072	576	528
50331648	496	416
51380224	608	496
52428800	448	416
53477376	512	480
54525952	400	320
55574528	432	416
56623104	400	368
57671680	432	368
58720256	512	400
59768832	240	208
60817408	544	480
61865984	352	288
62914560	576	544
63963136	544	480
65011712	576	512
66060288	576	496
67108864	688	592
69206016	832	704
71303168	864	816
73400320	992	944
75497472	880	816
77594624	624	480
79691776	864	768
81788928	752	720
83886080	672	672
85983232	608	528
88080384	704	608
90177536	848	752
92274688	816	688
94371840	784	768
96468992	752	704
98566144	832	640
100663296	752	736
102760448	704	672
104857600	432	416
106954752	608	496
109051904	496	416
111149056	608	576
113246208	544	512
115343360	640	576
117440512	496	432
119537664	432	368
121634816	560	560
123731968	576	528
125829120	688	592
127926272	560	512
130023424	448	384
132120576	608	496
134217728	1312	1168
138412032	1136	1040
142606336	1152	1104
146800640	1040	1024
150994944	912	848
155189248	992	816
159383552	944	832
163577856	768	688
167772160	944	816
171966464	1008	944
176160768	1104	992
180355072	864	848
184549376	800	752
188743680	784	752
192937984	784	688
197132288	864	832
201326592	816	800
205520896	656	528
209715200	592	512
213909504	560	528
218103808	864	848
222298112	784	720
226492416	672	576
230686720	576	480
234881024	704	592
239075328	576	528
243269632	672	576
247463936	816	784
251658240	512	432
255852544	432	416
260046848	496	480
264241152	576	560
268435456	1024	944
276824064	944	880
285212672	688	608
293601280	656	592
301989888	512	432
310378496	576	544
318767104	512	480
327155712	496	416
335544320	448	416
343932928	384	384
352321536	336	336
360710144	240	192
369098752	176	176
377487360	64	48
385875968	96	64
394264576	0	0
402653184	0	0
411041792	0	0
419430400	0	0
427819008	0	0
436207616	0	0
444596224	0	0
452984832	0	0
461373440	0	0
469762048	0	0
478150656	0	0
486539264	0	0
494927872	0	0
503316480	0	0
511705088	0	0
520093696	0	0
528482304	0	0
536870912	0	0
553648128	0	0
570425344	0	0
587202560	0	0
603979776	0	0
620756992	0	0
637534208	0	0
654311424	0	0
671088640	0	0
687865856	0	0
704643072	0	0
721420288	0	0
738197504	0	0
754974720	0	0
771751936	0	0
788529152	0	0
805306368	0	0
822083584	0	0
838860800	0	0
855638016	0	0
872415232	0	0
889192448	0	0
905969664	0	0
922746880	0	0
939524096	0	0
956301312	0	0
973078528	0	0
989855744	0	0
1006632960	0	0
1023410176	0	0
1040187392	0	0
1056964608	0	0
1073741824	0	0
1107296256	0	0
1140850688	0	0
1174405120	0	0
1207959552	0	0
1241513984	0	0
1275068416	0	0
1308622848	0	0
1342177280	0	0
1375731712	0	0
1409286144	0	0
1442840576	0	0
1476395008	0	0
1509949440	0	0
1543503872	0	0
1577058304	0	0
1610612736	0	0
1644167168	0	0
1677721600	0	0
1711276032	0	0
1744830464	0	0
1778384896	0	0
1811939328	0	0
1845493760	0	0
1879048192	0	0
1912602624	0	0
1946157056	0	0
1979711488	0	0
2013265920	0	0
2046820352	0	0
2080374784	0	0
2113929216	0	0
2147483648	0	0
2214592512	0	0
2281701376	0	0
2348810240	0	0
2415919104	0	0
2483027968	0	0
2550136832	0	0
2617245696	0	0
2684354560	0	0
2751463424	0	0
2818572288	0	0
2885681152	0	0
2952790016	0	0
3019898880	0	0
3087007744	0	0
3154116608	0	0
3221225472	0	0
3288334336	0	0
3355443200	0	0
3422552064	0	0
3489660928	0	0
3556769792	0	0
3623878656	0	0
3690987520	0	0
3758096384	0	0
3825205248	0	0
3892314112	0	0
3959422976	0	0
4026531840	0	0
4093640704	0	0
4160749568	0	0
4227858432	0	0
~~~~~~~~~~Reuse Distance Profiler output end~~~~~~~~~~

Sampler size:26612

DRAM Statistics
 CHANNEL 0
 RQ ROW_BUFFER_HIT:         68  ROW_BUFFER_MISS:     470772
 DBUS AVG_CONGESTED_CYCLE:    3.73583
 WQ ROW_BUFFER_HIT:      11692  ROW_BUFFER_MISS:     326008  FULL:          0


CPU 0 Branch Prediction Accuracy: 86.8395% MPKI: 29.8479 Average ROB Occupancy at Mispredict: 16.3393
Branch type MPKI
BRANCH_DIRECT_JUMP: 2.33333e-05
BRANCH_INDIRECT: 0.656315
BRANCH_CONDITIONAL: 28.9849
BRANCH_DIRECT_CALL: 1.06667e-05
BRANCH_INDIRECT_CALL: 0.206729
BRANCH_RETURN: 1.13333e-05

