
*** ChampSim Multicore Out-of-Order Simulator ***

Warmup Instructions: 50000000
Simulation Instructions: 1500000000
Number of CPUs: 1
Off-chip DRAM Size: 4 GiB Channels: 1 Width: 64-bit Data Rate: 3200 MT/s

VirtualMemory physical capacity: 8588881920 num_ppages: 2096895
VirtualMemory page size: 4096 log2_page_size: 12

CPU 0 runs /s/traces/champsim_traces/459.GemsFDTD-1418B.champsimtrace.xz
CPU 0 Bimodal branch predictor
Basic BTB sets: 1024 ways: 8 indirect buffer size: 4096 RAS size: 64
Initializing LRU.
Initializing LRU.
Initializing LRU.
Initializing LRU.
Initializing rdLRU.
Initializing LRU.
Initializing LRU.
Heartbeat CPU 0 instructions: 2000001 cycles: 1136866 heartbeat IPC: 1.75922 cumulative IPC: 1.75922 (Simulation time: 0 hr 3 min 22 sec) 
Heartbeat CPU 0 instructions: 4000001 cycles: 2273588 heartbeat IPC: 1.75945 cumulative IPC: 1.75933 (Simulation time: 0 hr 6 min 37 sec) 
Heartbeat CPU 0 instructions: 6000003 cycles: 3410313 heartbeat IPC: 1.75944 cumulative IPC: 1.75937 (Simulation time: 0 hr 9 min 57 sec) 
Heartbeat CPU 0 instructions: 8000000 cycles: 4547045 heartbeat IPC: 1.75943 cumulative IPC: 1.75938 (Simulation time: 0 hr 13 min 17 sec) 
Heartbeat CPU 0 instructions: 10000002 cycles: 5683773 heartbeat IPC: 1.75944 cumulative IPC: 1.7594 (Simulation time: 0 hr 16 min 39 sec) 
Heartbeat CPU 0 instructions: 12000002 cycles: 6820522 heartbeat IPC: 1.7594 cumulative IPC: 1.7594 (Simulation time: 0 hr 19 min 59 sec) 
Heartbeat CPU 0 instructions: 14000001 cycles: 7957248 heartbeat IPC: 1.75944 cumulative IPC: 1.7594 (Simulation time: 0 hr 23 min 14 sec) 
Heartbeat CPU 0 instructions: 16000000 cycles: 9093974 heartbeat IPC: 1.75944 cumulative IPC: 1.75941 (Simulation time: 0 hr 26 min 28 sec) 
Heartbeat CPU 0 instructions: 18000004 cycles: 10230709 heartbeat IPC: 1.75943 cumulative IPC: 1.75941 (Simulation time: 0 hr 29 min 41 sec) 
Heartbeat CPU 0 instructions: 20000001 cycles: 11367433 heartbeat IPC: 1.75944 cumulative IPC: 1.75941 (Simulation time: 0 hr 32 min 54 sec) 
Heartbeat CPU 0 instructions: 22000000 cycles: 12504169 heartbeat IPC: 1.75942 cumulative IPC: 1.75941 (Simulation time: 0 hr 36 min 7 sec) 
Heartbeat CPU 0 instructions: 24000002 cycles: 13640892 heartbeat IPC: 1.75945 cumulative IPC: 1.75942 (Simulation time: 0 hr 39 min 19 sec) 
Heartbeat CPU 0 instructions: 26000001 cycles: 14777612 heartbeat IPC: 1.75945 cumulative IPC: 1.75942 (Simulation time: 0 hr 42 min 28 sec) 
Heartbeat CPU 0 instructions: 28000001 cycles: 15914367 heartbeat IPC: 1.75939 cumulative IPC: 1.75942 (Simulation time: 0 hr 45 min 44 sec) 
Heartbeat CPU 0 instructions: 30000001 cycles: 17051090 heartbeat IPC: 1.75944 cumulative IPC: 1.75942 (Simulation time: 0 hr 48 min 53 sec) 
Heartbeat CPU 0 instructions: 32000003 cycles: 18187819 heartbeat IPC: 1.75944 cumulative IPC: 1.75942 (Simulation time: 0 hr 52 min 0 sec) 
Heartbeat CPU 0 instructions: 34000002 cycles: 19329325 heartbeat IPC: 1.75207 cumulative IPC: 1.75899 (Simulation time: 0 hr 53 min 53 sec) 
Heartbeat CPU 0 instructions: 36000001 cycles: 20466107 heartbeat IPC: 1.75935 cumulative IPC: 1.75901 (Simulation time: 0 hr 56 min 34 sec) 
Heartbeat CPU 0 instructions: 38000000 cycles: 21602879 heartbeat IPC: 1.75937 cumulative IPC: 1.75902 (Simulation time: 1 hr 0 min 1 sec) 
Heartbeat CPU 0 instructions: 40000000 cycles: 22739655 heartbeat IPC: 1.75936 cumulative IPC: 1.75904 (Simulation time: 1 hr 3 min 24 sec) 
Heartbeat CPU 0 instructions: 42000002 cycles: 23876439 heartbeat IPC: 1.75935 cumulative IPC: 1.75906 (Simulation time: 1 hr 6 min 47 sec) 
Heartbeat CPU 0 instructions: 44000001 cycles: 25013196 heartbeat IPC: 1.75939 cumulative IPC: 1.75907 (Simulation time: 1 hr 10 min 13 sec) 
Heartbeat CPU 0 instructions: 46000000 cycles: 26149975 heartbeat IPC: 1.75936 cumulative IPC: 1.75908 (Simulation time: 1 hr 13 min 36 sec) 
Heartbeat CPU 0 instructions: 48000003 cycles: 27286753 heartbeat IPC: 1.75936 cumulative IPC: 1.7591 (Simulation time: 1 hr 16 min 59 sec) 
Heartbeat CPU 0 instructions: 50000002 cycles: 28423523 heartbeat IPC: 1.75937 cumulative IPC: 1.75911 (Simulation time: 1 hr 20 min 21 sec) 

Warmup complete CPU 0 instructions: 50000002 cycles: 28423523 (Simulation time: 1 hr 20 min 21 sec) 

Heartbeat CPU 0 instructions: 52000000 cycles: 31114054 heartbeat IPC: 0.743347 cumulative IPC: 0.743347 (Simulation time: 1 hr 24 min 50 sec) 

Region of Interest Statistics
cpu0_DTLB TOTAL     ACCESS:     946543  HIT:     942477  MISS:       4066
cpu0_DTLB LOAD      ACCESS:     868035  HIT:     866070  MISS:       1965
cpu0_DTLB RFO       ACCESS:      78508  HIT:      76407  MISS:       2101
cpu0_DTLB PREFETCH  ACCESS:          0  HIT:          0  MISS:          0
cpu0_DTLB WRITEBACK ACCESS:          0  HIT:          0  MISS:          0
cpu0_ITLB TOTAL     ACCESS:      34510  HIT:      34510  MISS:          0
cpu0_ITLB LOAD      ACCESS:      34510  HIT:      34510  MISS:          0
cpu0_ITLB RFO       ACCESS:          0  HIT:          0  MISS:          0
cpu0_ITLB PREFETCH  ACCESS:          0  HIT:          0  MISS:          0
cpu0_ITLB WRITEBACK ACCESS:          0  HIT:          0  MISS:          0
cpu0_L1I TOTAL     ACCESS:     220732  HIT:     220732  MISS:          0
cpu0_L1I LOAD      ACCESS:     220732  HIT:     220732  MISS:          0
cpu0_L1I RFO       ACCESS:          0  HIT:          0  MISS:          0
cpu0_L1I PREFETCH  ACCESS:          0  HIT:          0  MISS:          0
cpu0_L1I WRITEBACK ACCESS:          0  HIT:          0  MISS:          0
cpu0_STLB TOTAL     ACCESS:       4066  HIT:       3875  MISS:        191
cpu0_STLB LOAD      ACCESS:       1965  HIT:       1774  MISS:        191
cpu0_STLB RFO       ACCESS:       2101  HIT:       2101  MISS:          0
cpu0_STLB PREFETCH  ACCESS:          0  HIT:          0  MISS:          0
cpu0_STLB WRITEBACK ACCESS:          0  HIT:          0  MISS:          0
cpu0_L1D TOTAL     ACCESS:    1103972  HIT:    1089592  MISS:      14380
cpu0_L1D LOAD      ACCESS:     985557  HIT:     971297  MISS:      14260
cpu0_L1D RFO       ACCESS:     118238  HIT:     118238  MISS:          0
cpu0_L1D PREFETCH  ACCESS:          0  HIT:          0  MISS:          0
cpu0_L1D WRITEBACK ACCESS:          0  HIT:          0  MISS:          0
cpu0_L2C TOTAL     ACCESS:      21842  HIT:       6936  MISS:      14906
cpu0_L2C LOAD      ACCESS:      14260  HIT:         79  MISS:      14181
cpu0_L2C RFO       ACCESS:          0  HIT:          0  MISS:          0
cpu0_L2C PREFETCH  ACCESS:          0  HIT:          0  MISS:          0
cpu0_L2C WRITEBACK ACCESS:       7462  HIT:       6789  MISS:        673
LLC TOTAL     ACCESS:      21809  HIT:       9360  MISS:      12449
LLC LOAD      ACCESS:      14181  HIT:       1732  MISS:      12449
LLC RFO       ACCESS:          0  HIT:          0  MISS:          0
LLC PREFETCH  ACCESS:          0  HIT:          0  MISS:          0
LLC WRITEBACK ACCESS:       7576  HIT:       7576  MISS:          0
Heartbeat CPU 0 instructions: 54000001 cycles: 33857675 heartbeat IPC: 0.728964 cumulative IPC: 0.736085 (Simulation time: 1 hr 29 min 29 sec) 

Region of Interest Statistics
cpu0_DTLB TOTAL     ACCESS:    1896179  HIT:    1870324  MISS:      25855
cpu0_DTLB LOAD      ACCESS:    1739836  HIT:    1726121  MISS:      13715
cpu0_DTLB RFO       ACCESS:     156343  HIT:     144203  MISS:      12140
cpu0_DTLB PREFETCH  ACCESS:          0  HIT:          0  MISS:          0
cpu0_DTLB WRITEBACK ACCESS:          0  HIT:          0  MISS:          0
cpu0_ITLB TOTAL     ACCESS:      69026  HIT:      69026  MISS:          0
cpu0_ITLB LOAD      ACCESS:      69026  HIT:      69026  MISS:          0
cpu0_ITLB RFO       ACCESS:          0  HIT:          0  MISS:          0
cpu0_ITLB PREFETCH  ACCESS:          0  HIT:          0  MISS:          0
cpu0_ITLB WRITEBACK ACCESS:          0  HIT:          0  MISS:          0
cpu0_L1I TOTAL     ACCESS:     443171  HIT:     443171  MISS:          0
cpu0_L1I LOAD      ACCESS:     443171  HIT:     443171  MISS:          0
cpu0_L1I RFO       ACCESS:          0  HIT:          0  MISS:          0
cpu0_L1I PREFETCH  ACCESS:          0  HIT:          0  MISS:          0
cpu0_L1I WRITEBACK ACCESS:          0  HIT:          0  MISS:          0
cpu0_STLB TOTAL     ACCESS:      25855  HIT:      25479  MISS:        376
cpu0_STLB LOAD      ACCESS:      13715  HIT:      13339  MISS:        376
cpu0_STLB RFO       ACCESS:      12140  HIT:      12140  MISS:          0
cpu0_STLB PREFETCH  ACCESS:          0  HIT:          0  MISS:          0
cpu0_STLB WRITEBACK ACCESS:          0  HIT:          0  MISS:          0
cpu0_L1D TOTAL     ACCESS:    2212022  HIT:    2183258  MISS:      28764
cpu0_L1D LOAD      ACCESS:    1975209  HIT:    1946689  MISS:      28520
cpu0_L1D RFO       ACCESS:     236461  HIT:     236461  MISS:          0
cpu0_L1D PREFETCH  ACCESS:          0  HIT:          0  MISS:          0
cpu0_L1D WRITEBACK ACCESS:          0  HIT:          0  MISS:          0
cpu0_L2C TOTAL     ACCESS:      43703  HIT:      13941  MISS:      29762
cpu0_L2C LOAD      ACCESS:      28520  HIT:        230  MISS:      28290
cpu0_L2C RFO       ACCESS:          0  HIT:          0  MISS:          0
cpu0_L2C PREFETCH  ACCESS:          0  HIT:          0  MISS:          0
cpu0_L2C WRITEBACK ACCESS:      14939  HIT:      13548  MISS:       1391
LLC TOTAL     ACCESS:      43334  HIT:      18216  MISS:      25118
LLC LOAD      ACCESS:      28290  HIT:       3175  MISS:      25115
LLC RFO       ACCESS:          0  HIT:          0  MISS:          0
LLC PREFETCH  ACCESS:          0  HIT:          0  MISS:          0
LLC WRITEBACK ACCESS:      14963  HIT:      14961  MISS:          2
Heartbeat CPU 0 instructions: 56000000 cycles: 36563157 heartbeat IPC: 0.739239 cumulative IPC: 0.737134 (Simulation time: 1 hr 33 min 59 sec) 

Region of Interest Statistics
cpu0_DTLB TOTAL     ACCESS:    2843555  HIT:    2815120  MISS:      28435
cpu0_DTLB LOAD      ACCESS:    2608681  HIT:    2593874  MISS:      14807
cpu0_DTLB RFO       ACCESS:     234874  HIT:     221246  MISS:      13628
cpu0_DTLB PREFETCH  ACCESS:          0  HIT:          0  MISS:          0
cpu0_DTLB WRITEBACK ACCESS:          0  HIT:          0  MISS:          0
cpu0_ITLB TOTAL     ACCESS:     103532  HIT:     103532  MISS:          0
cpu0_ITLB LOAD      ACCESS:     103532  HIT:     103532  MISS:          0
cpu0_ITLB RFO       ACCESS:          0  HIT:          0  MISS:          0
cpu0_ITLB PREFETCH  ACCESS:          0  HIT:          0  MISS:          0
cpu0_ITLB WRITEBACK ACCESS:          0  HIT:          0  MISS:          0
cpu0_L1I TOTAL     ACCESS:     663964  HIT:     663964  MISS:          0
cpu0_L1I LOAD      ACCESS:     663964  HIT:     663964  MISS:          0
cpu0_L1I RFO       ACCESS:          0  HIT:          0  MISS:          0
cpu0_L1I PREFETCH  ACCESS:          0  HIT:          0  MISS:          0
cpu0_L1I WRITEBACK ACCESS:          0  HIT:          0  MISS:          0
cpu0_STLB TOTAL     ACCESS:      28435  HIT:      27870  MISS:        565
cpu0_STLB LOAD      ACCESS:      14807  HIT:      14242  MISS:        565
cpu0_STLB RFO       ACCESS:      13628  HIT:      13628  MISS:          0
cpu0_STLB PREFETCH  ACCESS:          0  HIT:          0  MISS:          0
cpu0_STLB WRITEBACK ACCESS:          0  HIT:          0  MISS:          0
cpu0_L1D TOTAL     ACCESS:    3314365  HIT:    3271067  MISS:      43298
cpu0_L1D LOAD      ACCESS:    2959144  HIT:    2916217  MISS:      42927
cpu0_L1D RFO       ACCESS:     354691  HIT:     354691  MISS:          0
cpu0_L1D PREFETCH  ACCESS:          0  HIT:          0  MISS:          0
cpu0_L1D WRITEBACK ACCESS:          0  HIT:          0  MISS:          0
cpu0_L2C TOTAL     ACCESS:      65746  HIT:      21373  MISS:      44373
cpu0_L2C LOAD      ACCESS:      42927  HIT:        453  MISS:      42474
cpu0_L2C RFO       ACCESS:          0  HIT:          0  MISS:          0
cpu0_L2C PREFETCH  ACCESS:          0  HIT:          0  MISS:          0
cpu0_L2C WRITEBACK ACCESS:      22448  HIT:      20656  MISS:       1792
LLC TOTAL     ACCESS:      65001  HIT:      27144  MISS:      37857
LLC LOAD      ACCESS:      42474  HIT:       4620  MISS:      37854
LLC RFO       ACCESS:          0  HIT:          0  MISS:          0
LLC PREFETCH  ACCESS:          0  HIT:          0  MISS:          0
LLC WRITEBACK ACCESS:      22420  HIT:      22418  MISS:          2
Heartbeat CPU 0 instructions: 58000001 cycles: 39266502 heartbeat IPC: 0.739825 cumulative IPC: 0.737805 (Simulation time: 1 hr 38 min 37 sec) 

Region of Interest Statistics
cpu0_DTLB TOTAL     ACCESS:    3794505  HIT:    3753532  MISS:      40973
cpu0_DTLB LOAD      ACCESS:    3481378  HIT:    3460753  MISS:      20625
cpu0_DTLB RFO       ACCESS:     313127  HIT:     292779  MISS:      20348
cpu0_DTLB PREFETCH  ACCESS:          0  HIT:          0  MISS:          0
cpu0_DTLB WRITEBACK ACCESS:          0  HIT:          0  MISS:          0
cpu0_ITLB TOTAL     ACCESS:     138035  HIT:     138035  MISS:          0
cpu0_ITLB LOAD      ACCESS:     138035  HIT:     138035  MISS:          0
cpu0_ITLB RFO       ACCESS:          0  HIT:          0  MISS:          0
cpu0_ITLB PREFETCH  ACCESS:          0  HIT:          0  MISS:          0
cpu0_ITLB WRITEBACK ACCESS:          0  HIT:          0  MISS:          0
cpu0_L1I TOTAL     ACCESS:     885890  HIT:     885890  MISS:          0
cpu0_L1I LOAD      ACCESS:     885890  HIT:     885890  MISS:          0
cpu0_L1I RFO       ACCESS:          0  HIT:          0  MISS:          0
cpu0_L1I PREFETCH  ACCESS:          0  HIT:          0  MISS:          0
cpu0_L1I WRITEBACK ACCESS:          0  HIT:          0  MISS:          0
cpu0_STLB TOTAL     ACCESS:      40973  HIT:      40225  MISS:        748
cpu0_STLB LOAD      ACCESS:      20625  HIT:      19877  MISS:        748
cpu0_STLB RFO       ACCESS:      20348  HIT:      20348  MISS:          0
cpu0_STLB PREFETCH  ACCESS:          0  HIT:          0  MISS:          0
cpu0_STLB WRITEBACK ACCESS:          0  HIT:          0  MISS:          0
cpu0_L1D TOTAL     ACCESS:    4420979  HIT:    4363097  MISS:      57882
cpu0_L1D LOAD      ACCESS:    3947370  HIT:    3889976  MISS:      57394
cpu0_L1D RFO       ACCESS:     472907  HIT:     472907  MISS:          0
cpu0_L1D PREFETCH  ACCESS:          0  HIT:          0  MISS:          0
cpu0_L1D WRITEBACK ACCESS:          0  HIT:          0  MISS:          0
cpu0_L2C TOTAL     ACCESS:      87773  HIT:      28435  MISS:      59338
cpu0_L2C LOAD      ACCESS:      57394  HIT:        673  MISS:      56721
cpu0_L2C RFO       ACCESS:          0  HIT:          0  MISS:          0
cpu0_L2C PREFETCH  ACCESS:          0  HIT:          0  MISS:          0
cpu0_L2C WRITEBACK ACCESS:      29891  HIT:      27423  MISS:       2468
LLC TOTAL     ACCESS:      86789  HIT:      36663  MISS:      50126
LLC LOAD      ACCESS:      56721  HIT:       6598  MISS:      50123
LLC RFO       ACCESS:          0  HIT:          0  MISS:          0
LLC PREFETCH  ACCESS:          0  HIT:          0  MISS:          0
LLC WRITEBACK ACCESS:      29919  HIT:      29917  MISS:          2
Heartbeat CPU 0 instructions: 60000003 cycles: 41985920 heartbeat IPC: 0.735452 cumulative IPC: 0.737333 (Simulation time: 1 hr 43 min 4 sec) 

Region of Interest Statistics
cpu0_DTLB TOTAL     ACCESS:    4743358  HIT:    4690565  MISS:      52793
cpu0_DTLB LOAD      ACCESS:    4352227  HIT:    4324721  MISS:      27506
cpu0_DTLB RFO       ACCESS:     391131  HIT:     365844  MISS:      25287
cpu0_DTLB PREFETCH  ACCESS:          0  HIT:          0  MISS:          0
cpu0_DTLB WRITEBACK ACCESS:          0  HIT:          0  MISS:          0
cpu0_ITLB TOTAL     ACCESS:     172544  HIT:     172544  MISS:          0
cpu0_ITLB LOAD      ACCESS:     172544  HIT:     172544  MISS:          0
cpu0_ITLB RFO       ACCESS:          0  HIT:          0  MISS:          0
cpu0_ITLB PREFETCH  ACCESS:          0  HIT:          0  MISS:          0
cpu0_ITLB WRITEBACK ACCESS:          0  HIT:          0  MISS:          0
cpu0_L1I TOTAL     ACCESS:    1107431  HIT:    1107431  MISS:          0
cpu0_L1I LOAD      ACCESS:    1107431  HIT:    1107431  MISS:          0
cpu0_L1I RFO       ACCESS:          0  HIT:          0  MISS:          0
cpu0_L1I PREFETCH  ACCESS:          0  HIT:          0  MISS:          0
cpu0_L1I WRITEBACK ACCESS:          0  HIT:          0  MISS:          0
cpu0_STLB TOTAL     ACCESS:      52793  HIT:      51859  MISS:        934
cpu0_STLB LOAD      ACCESS:      27506  HIT:      26572  MISS:        934
cpu0_STLB RFO       ACCESS:      25287  HIT:      25287  MISS:          0
cpu0_STLB PREFETCH  ACCESS:          0  HIT:          0  MISS:          0
cpu0_STLB WRITEBACK ACCESS:          0  HIT:          0  MISS:          0
cpu0_L1D TOTAL     ACCESS:    5527667  HIT:    5455255  MISS:      72412
cpu0_L1D LOAD      ACCESS:    4935656  HIT:    4863850  MISS:      71806
cpu0_L1D RFO       ACCESS:     591131  HIT:     591131  MISS:          0
cpu0_L1D PREFETCH  ACCESS:          0  HIT:          0  MISS:          0
cpu0_L1D WRITEBACK ACCESS:          0  HIT:          0  MISS:          0
cpu0_L2C TOTAL     ACCESS:     109808  HIT:      34675  MISS:      75133
cpu0_L2C LOAD      ACCESS:      71806  HIT:        870  MISS:      70936
cpu0_L2C RFO       ACCESS:          0  HIT:          0  MISS:          0
cpu0_L2C PREFETCH  ACCESS:          0  HIT:          0  MISS:          0
cpu0_L2C WRITEBACK ACCESS:      37396  HIT:      33379  MISS:       4017
LLC TOTAL     ACCESS:     108561  HIT:      45916  MISS:      62645
LLC LOAD      ACCESS:      70936  HIT:       8295  MISS:      62641
LLC RFO       ACCESS:          0  HIT:          0  MISS:          0
LLC PREFETCH  ACCESS:          0  HIT:          0  MISS:          0
LLC WRITEBACK ACCESS:      37445  HIT:      37442  MISS:          3
Heartbeat CPU 0 instructions: 62000001 cycles: 44695649 heartbeat IPC: 0.73808 cumulative IPC: 0.737457 (Simulation time: 1 hr 47 min 42 sec) 

Region of Interest Statistics
cpu0_DTLB TOTAL     ACCESS:    5693607  HIT:    5625914  MISS:      67693
cpu0_DTLB LOAD      ACCESS:    5224815  HIT:    5188492  MISS:      36323
cpu0_DTLB RFO       ACCESS:     468792  HIT:     437422  MISS:      31370
cpu0_DTLB PREFETCH  ACCESS:          0  HIT:          0  MISS:          0
cpu0_DTLB WRITEBACK ACCESS:          0  HIT:          0  MISS:          0
cpu0_ITLB TOTAL     ACCESS:     207053  HIT:     207053  MISS:          0
cpu0_ITLB LOAD      ACCESS:     207053  HIT:     207053  MISS:          0
cpu0_ITLB RFO       ACCESS:          0  HIT:          0  MISS:          0
cpu0_ITLB PREFETCH  ACCESS:          0  HIT:          0  MISS:          0
cpu0_ITLB WRITEBACK ACCESS:          0  HIT:          0  MISS:          0
cpu0_L1I TOTAL     ACCESS:    1328998  HIT:    1328998  MISS:          0
cpu0_L1I LOAD      ACCESS:    1328998  HIT:    1328998  MISS:          0
cpu0_L1I RFO       ACCESS:          0  HIT:          0  MISS:          0
cpu0_L1I PREFETCH  ACCESS:          0  HIT:          0  MISS:          0
cpu0_L1I WRITEBACK ACCESS:          0  HIT:          0  MISS:          0
cpu0_STLB TOTAL     ACCESS:      67693  HIT:      66562  MISS:       1131
cpu0_STLB LOAD      ACCESS:      36323  HIT:      35192  MISS:       1131
cpu0_STLB RFO       ACCESS:      31370  HIT:      31370  MISS:          0
cpu0_STLB PREFETCH  ACCESS:          0  HIT:          0  MISS:          0
cpu0_STLB WRITEBACK ACCESS:          0  HIT:          0  MISS:          0
cpu0_L1D TOTAL     ACCESS:    6635111  HIT:    6548415  MISS:      86696
cpu0_L1D LOAD      ACCESS:    5924680  HIT:    5838710  MISS:      85970
cpu0_L1D RFO       ACCESS:     709369  HIT:     709369  MISS:          0
cpu0_L1D PREFETCH  ACCESS:          0  HIT:          0  MISS:          0
cpu0_L1D WRITEBACK ACCESS:          0  HIT:          0  MISS:          0
cpu0_L2C TOTAL     ACCESS:     131608  HIT:      40891  MISS:      90717
cpu0_L2C LOAD      ACCESS:      85970  HIT:        971  MISS:      84999
cpu0_L2C RFO       ACCESS:          0  HIT:          0  MISS:          0
cpu0_L2C PREFETCH  ACCESS:          0  HIT:          0  MISS:          0
cpu0_L2C WRITEBACK ACCESS:      44912  HIT:      39429  MISS:       5483
LLC TOTAL     ACCESS:     130098  HIT:      54984  MISS:      75114
LLC LOAD      ACCESS:      84999  HIT:       9890  MISS:      75109
LLC RFO       ACCESS:          0  HIT:          0  MISS:          0
LLC PREFETCH  ACCESS:          0  HIT:          0  MISS:          0
LLC WRITEBACK ACCESS:      44864  HIT:      44860  MISS:          4
Heartbeat CPU 0 instructions: 64000001 cycles: 47419227 heartbeat IPC: 0.734328 cumulative IPC: 0.737009 (Simulation time: 1 hr 52 min 17 sec) 

Region of Interest Statistics
cpu0_DTLB TOTAL     ACCESS:    6642957  HIT:    6560374  MISS:      82583
cpu0_DTLB LOAD      ACCESS:    6095853  HIT:    6052402  MISS:      43451
cpu0_DTLB RFO       ACCESS:     547104  HIT:     507972  MISS:      39132
cpu0_DTLB PREFETCH  ACCESS:          0  HIT:          0  MISS:          0
cpu0_DTLB WRITEBACK ACCESS:          0  HIT:          0  MISS:          0
cpu0_ITLB TOTAL     ACCESS:     241563  HIT:     241563  MISS:          0
cpu0_ITLB LOAD      ACCESS:     241563  HIT:     241563  MISS:          0
cpu0_ITLB RFO       ACCESS:          0  HIT:          0  MISS:          0
cpu0_ITLB PREFETCH  ACCESS:          0  HIT:          0  MISS:          0
cpu0_ITLB WRITEBACK ACCESS:          0  HIT:          0  MISS:          0
cpu0_L1I TOTAL     ACCESS:    1550997  HIT:    1550997  MISS:          0
cpu0_L1I LOAD      ACCESS:    1550997  HIT:    1550997  MISS:          0
cpu0_L1I RFO       ACCESS:          0  HIT:          0  MISS:          0
cpu0_L1I PREFETCH  ACCESS:          0  HIT:          0  MISS:          0
cpu0_L1I WRITEBACK ACCESS:          0  HIT:          0  MISS:          0
cpu0_STLB TOTAL     ACCESS:      82583  HIT:      81266  MISS:       1317
cpu0_STLB LOAD      ACCESS:      43451  HIT:      42134  MISS:       1317
cpu0_STLB RFO       ACCESS:      39132  HIT:      39132  MISS:          0
cpu0_STLB PREFETCH  ACCESS:          0  HIT:          0  MISS:          0
cpu0_STLB WRITEBACK ACCESS:          0  HIT:          0  MISS:          0
cpu0_L1D TOTAL     ACCESS:    7741923  HIT:    7640852  MISS:     101071
cpu0_L1D LOAD      ACCESS:    6913087  HIT:    6812869  MISS:     100218
cpu0_L1D RFO       ACCESS:     827598  HIT:     827598  MISS:          0
cpu0_L1D PREFETCH  ACCESS:          0  HIT:          0  MISS:          0
cpu0_L1D WRITEBACK ACCESS:          0  HIT:          0  MISS:          0
cpu0_L2C TOTAL     ACCESS:     153394  HIT:      48139  MISS:     105255
cpu0_L2C LOAD      ACCESS:     100218  HIT:       1107  MISS:      99111
cpu0_L2C RFO       ACCESS:          0  HIT:          0  MISS:          0
cpu0_L2C PREFETCH  ACCESS:          0  HIT:          0  MISS:          0
cpu0_L2C WRITEBACK ACCESS:      52323  HIT:      46442  MISS:       5881
LLC TOTAL     ACCESS:     151761  HIT:      63963  MISS:      87798
LLC LOAD      ACCESS:      99111  HIT:      11318  MISS:      87793
LLC RFO       ACCESS:          0  HIT:          0  MISS:          0
LLC PREFETCH  ACCESS:          0  HIT:          0  MISS:          0
LLC WRITEBACK ACCESS:      52387  HIT:      52383  MISS:          4
Heartbeat CPU 0 instructions: 66000000 cycles: 50115728 heartbeat IPC: 0.741702 cumulative IPC: 0.737592 (Simulation time: 1 hr 56 min 50 sec) 

Region of Interest Statistics
cpu0_DTLB TOTAL     ACCESS:    7591306  HIT:    7494623  MISS:      96683
cpu0_DTLB LOAD      ACCESS:    6966412  HIT:    6915156  MISS:      51256
cpu0_DTLB RFO       ACCESS:     624894  HIT:     579467  MISS:      45427
cpu0_DTLB PREFETCH  ACCESS:          0  HIT:          0  MISS:          0
cpu0_DTLB WRITEBACK ACCESS:          0  HIT:          0  MISS:          0
cpu0_ITLB TOTAL     ACCESS:     276075  HIT:     276075  MISS:          0
cpu0_ITLB LOAD      ACCESS:     276075  HIT:     276075  MISS:          0
cpu0_ITLB RFO       ACCESS:          0  HIT:          0  MISS:          0
cpu0_ITLB PREFETCH  ACCESS:          0  HIT:          0  MISS:          0
cpu0_ITLB WRITEBACK ACCESS:          0  HIT:          0  MISS:          0
cpu0_L1I TOTAL     ACCESS:    1772583  HIT:    1772583  MISS:          0
cpu0_L1I LOAD      ACCESS:    1772583  HIT:    1772583  MISS:          0
cpu0_L1I RFO       ACCESS:          0  HIT:          0  MISS:          0
cpu0_L1I PREFETCH  ACCESS:          0  HIT:          0  MISS:          0
cpu0_L1I WRITEBACK ACCESS:          0  HIT:          0  MISS:          0
cpu0_STLB TOTAL     ACCESS:      96683  HIT:      95183  MISS:       1500
cpu0_STLB LOAD      ACCESS:      51256  HIT:      49756  MISS:       1500
cpu0_STLB RFO       ACCESS:      45427  HIT:      45427  MISS:          0
cpu0_STLB PREFETCH  ACCESS:          0  HIT:          0  MISS:          0
cpu0_STLB WRITEBACK ACCESS:          0  HIT:          0  MISS:          0
cpu0_L1D TOTAL     ACCESS:    8847344  HIT:    8731809  MISS:     115535
cpu0_L1D LOAD      ACCESS:    7900111  HIT:    7785548  MISS:     114563
cpu0_L1D RFO       ACCESS:     945823  HIT:     945823  MISS:          0
cpu0_L1D PREFETCH  ACCESS:          0  HIT:          0  MISS:          0
cpu0_L1D WRITEBACK ACCESS:          0  HIT:          0  MISS:          0
cpu0_L2C TOTAL     ACCESS:     175376  HIT:      55740  MISS:     119636
cpu0_L2C LOAD      ACCESS:     114563  HIT:       1318  MISS:     113245
cpu0_L2C RFO       ACCESS:          0  HIT:          0  MISS:          0
cpu0_L2C PREFETCH  ACCESS:          0  HIT:          0  MISS:          0
cpu0_L2C WRITEBACK ACCESS:      59841  HIT:      53743  MISS:       6098
LLC TOTAL     ACCESS:     173366  HIT:      73144  MISS:     100222
LLC LOAD      ACCESS:     113245  HIT:      13028  MISS:     100217
LLC RFO       ACCESS:          0  HIT:          0  MISS:          0
LLC PREFETCH  ACCESS:          0  HIT:          0  MISS:          0
LLC WRITEBACK ACCESS:      59828  HIT:      59824  MISS:          4
Heartbeat CPU 0 instructions: 68000002 cycles: 52832151 heartbeat IPC: 0.736263 cumulative IPC: 0.737444 (Simulation time: 2 hr 1 min 21 sec) 

Region of Interest Statistics
cpu0_DTLB TOTAL     ACCESS:    8537753  HIT:    8426244  MISS:     111509
cpu0_DTLB LOAD      ACCESS:    7834501  HIT:    7774079  MISS:      60422
cpu0_DTLB RFO       ACCESS:     703252  HIT:     652165  MISS:      51087
cpu0_DTLB PREFETCH  ACCESS:          0  HIT:          0  MISS:          0
cpu0_DTLB WRITEBACK ACCESS:          0  HIT:          0  MISS:          0
cpu0_ITLB TOTAL     ACCESS:     310582  HIT:     310582  MISS:          0
cpu0_ITLB LOAD      ACCESS:     310582  HIT:     310582  MISS:          0
cpu0_ITLB RFO       ACCESS:          0  HIT:          0  MISS:          0
cpu0_ITLB PREFETCH  ACCESS:          0  HIT:          0  MISS:          0
cpu0_ITLB WRITEBACK ACCESS:          0  HIT:          0  MISS:          0
cpu0_L1I TOTAL     ACCESS:    1994213  HIT:    1994213  MISS:          0
cpu0_L1I LOAD      ACCESS:    1994213  HIT:    1994213  MISS:          0
cpu0_L1I RFO       ACCESS:          0  HIT:          0  MISS:          0
cpu0_L1I PREFETCH  ACCESS:          0  HIT:          0  MISS:          0
cpu0_L1I WRITEBACK ACCESS:          0  HIT:          0  MISS:          0
cpu0_STLB TOTAL     ACCESS:     111509  HIT:     109820  MISS:       1689
cpu0_STLB LOAD      ACCESS:      60422  HIT:      58733  MISS:       1689
cpu0_STLB RFO       ACCESS:      51087  HIT:      51087  MISS:          0
cpu0_STLB PREFETCH  ACCESS:          0  HIT:          0  MISS:          0
cpu0_STLB WRITEBACK ACCESS:          0  HIT:          0  MISS:          0
cpu0_L1D TOTAL     ACCESS:    9952755  HIT:    9822595  MISS:     130160
cpu0_L1D LOAD      ACCESS:    8887125  HIT:    8758063  MISS:     129062
cpu0_L1D RFO       ACCESS:    1064038  HIT:    1064038  MISS:          0
cpu0_L1D PREFETCH  ACCESS:          0  HIT:          0  MISS:          0
cpu0_L1D WRITEBACK ACCESS:          0  HIT:          0  MISS:          0
cpu0_L2C TOTAL     ACCESS:     197509  HIT:      63231  MISS:     134278
cpu0_L2C LOAD      ACCESS:     129062  HIT:       1641  MISS:     127421
cpu0_L2C RFO       ACCESS:          0  HIT:          0  MISS:          0
cpu0_L2C PREFETCH  ACCESS:          0  HIT:          0  MISS:          0
cpu0_L2C WRITEBACK ACCESS:      67349  HIT:      60813  MISS:       6536
LLC TOTAL     ACCESS:     195047  HIT:      82327  MISS:     112720
LLC LOAD      ACCESS:     127421  HIT:      14707  MISS:     112714
LLC RFO       ACCESS:          0  HIT:          0  MISS:          0
LLC PREFETCH  ACCESS:          0  HIT:          0  MISS:          0
LLC WRITEBACK ACCESS:      67305  HIT:      67300  MISS:          5
Heartbeat CPU 0 instructions: 70000004 cycles: 55544437 heartbeat IPC: 0.737386 cumulative IPC: 0.737438 (Simulation time: 2 hr 5 min 50 sec) 

Region of Interest Statistics
cpu0_DTLB TOTAL     ACCESS:    9485964  HIT:    9360713  MISS:     125251
cpu0_DTLB LOAD      ACCESS:    8704866  HIT:    8636251  MISS:      68615
cpu0_DTLB RFO       ACCESS:     781098  HIT:     724462  MISS:      56636
cpu0_DTLB PREFETCH  ACCESS:          0  HIT:          0  MISS:          0
cpu0_DTLB WRITEBACK ACCESS:          0  HIT:          0  MISS:          0
cpu0_ITLB TOTAL     ACCESS:     345096  HIT:     345096  MISS:          0
cpu0_ITLB LOAD      ACCESS:     345096  HIT:     345096  MISS:          0
cpu0_ITLB RFO       ACCESS:          0  HIT:          0  MISS:          0
cpu0_ITLB PREFETCH  ACCESS:          0  HIT:          0  MISS:          0
cpu0_ITLB WRITEBACK ACCESS:          0  HIT:          0  MISS:          0
cpu0_L1I TOTAL     ACCESS:    2216031  HIT:    2216031  MISS:          0
cpu0_L1I LOAD      ACCESS:    2216031  HIT:    2216031  MISS:          0
cpu0_L1I RFO       ACCESS:          0  HIT:          0  MISS:          0
cpu0_L1I PREFETCH  ACCESS:          0  HIT:          0  MISS:          0
cpu0_L1I WRITEBACK ACCESS:          0  HIT:          0  MISS:          0
cpu0_STLB TOTAL     ACCESS:     125251  HIT:     123371  MISS:       1880
cpu0_STLB LOAD      ACCESS:      68615  HIT:      66735  MISS:       1880
cpu0_STLB RFO       ACCESS:      56636  HIT:      56636  MISS:          0
cpu0_STLB PREFETCH  ACCESS:          0  HIT:          0  MISS:          0
cpu0_STLB WRITEBACK ACCESS:          0  HIT:          0  MISS:          0
cpu0_L1D TOTAL     ACCESS:   11060344  HIT:   10915622  MISS:     144722
cpu0_L1D LOAD      ACCESS:    9876287  HIT:    9732773  MISS:     143514
cpu0_L1D RFO       ACCESS:    1182290  HIT:    1182290  MISS:          0
cpu0_L1D PREFETCH  ACCESS:          0  HIT:          0  MISS:          0
cpu0_L1D WRITEBACK ACCESS:          0  HIT:          0  MISS:          0
cpu0_L2C TOTAL     ACCESS:     219549  HIT:      69980  MISS:     149569
cpu0_L2C LOAD      ACCESS:     143514  HIT:       1830  MISS:     141684
cpu0_L2C RFO       ACCESS:          0  HIT:          0  MISS:          0
cpu0_L2C PREFETCH  ACCESS:          0  HIT:          0  MISS:          0
cpu0_L2C WRITEBACK ACCESS:      74827  HIT:      67318  MISS:       7509
LLC TOTAL     ACCESS:     216904  HIT:      91671  MISS:     125233
LLC LOAD      ACCESS:     141684  HIT:      16457  MISS:     125227
LLC RFO       ACCESS:          0  HIT:          0  MISS:          0
LLC PREFETCH  ACCESS:          0  HIT:          0  MISS:          0
LLC WRITEBACK ACCESS:      74844  HIT:      74839  MISS:          5
Heartbeat CPU 0 instructions: 72000003 cycles: 58236980 heartbeat IPC: 0.742792 cumulative IPC: 0.737922 (Simulation time: 2 hr 10 min 19 sec) 

Region of Interest Statistics
cpu0_DTLB TOTAL     ACCESS:   10432009  HIT:   10303701  MISS:     128308
cpu0_DTLB LOAD      ACCESS:    9572374  HIT:    9502066  MISS:      70308
cpu0_DTLB RFO       ACCESS:     859635  HIT:     801635  MISS:      58000
cpu0_DTLB PREFETCH  ACCESS:          0  HIT:          0  MISS:          0
cpu0_DTLB WRITEBACK ACCESS:          0  HIT:          0  MISS:          0
cpu0_ITLB TOTAL     ACCESS:     379609  HIT:     379609  MISS:          0
cpu0_ITLB LOAD      ACCESS:     379609  HIT:     379609  MISS:          0
cpu0_ITLB RFO       ACCESS:          0  HIT:          0  MISS:          0
cpu0_ITLB PREFETCH  ACCESS:          0  HIT:          0  MISS:          0
cpu0_ITLB WRITEBACK ACCESS:          0  HIT:          0  MISS:          0
cpu0_L1I TOTAL     ACCESS:    2436529  HIT:    2436529  MISS:          0
cpu0_L1I LOAD      ACCESS:    2436529  HIT:    2436529  MISS:          0
cpu0_L1I RFO       ACCESS:          0  HIT:          0  MISS:          0
cpu0_L1I PREFETCH  ACCESS:          0  HIT:          0  MISS:          0
cpu0_L1I WRITEBACK ACCESS:          0  HIT:          0  MISS:          0
cpu0_STLB TOTAL     ACCESS:     128308  HIT:     126242  MISS:       2066
cpu0_STLB LOAD      ACCESS:      70308  HIT:      68242  MISS:       2066
cpu0_STLB RFO       ACCESS:      58000  HIT:      58000  MISS:          0
cpu0_STLB PREFETCH  ACCESS:          0  HIT:          0  MISS:          0
cpu0_STLB WRITEBACK ACCESS:          0  HIT:          0  MISS:          0
cpu0_L1D TOTAL     ACCESS:   12162917  HIT:   12004078  MISS:     158839
cpu0_L1D LOAD      ACCESS:   10860460  HIT:   10702957  MISS:     157503
cpu0_L1D RFO       ACCESS:    1300514  HIT:    1300514  MISS:          0
cpu0_L1D PREFETCH  ACCESS:          0  HIT:          0  MISS:          0
cpu0_L1D WRITEBACK ACCESS:          0  HIT:          0  MISS:          0
cpu0_L2C TOTAL     ACCESS:     241152  HIT:      77238  MISS:     163914
cpu0_L2C LOAD      ACCESS:     157503  HIT:       1900  MISS:     155603
cpu0_L2C RFO       ACCESS:          0  HIT:          0  MISS:          0
cpu0_L2C PREFETCH  ACCESS:          0  HIT:          0  MISS:          0
cpu0_L2C WRITEBACK ACCESS:      82313  HIT:      74419  MISS:       7894
LLC TOTAL     ACCESS:     238311  HIT:     100769  MISS:     137542
LLC LOAD      ACCESS:     155603  HIT:      18068  MISS:     137535
LLC RFO       ACCESS:          0  HIT:          0  MISS:          0
LLC PREFETCH  ACCESS:          0  HIT:          0  MISS:          0
LLC WRITEBACK ACCESS:      82291  HIT:      82285  MISS:          6
Heartbeat CPU 0 instructions: 74000000 cycles: 60943961 heartbeat IPC: 0.738829 cumulative IPC: 0.737997 (Simulation time: 2 hr 14 min 52 sec) 

Region of Interest Statistics
cpu0_DTLB TOTAL     ACCESS:   11378499  HIT:   11231531  MISS:     146968
cpu0_DTLB LOAD      ACCESS:   10440908  HIT:   10359297  MISS:      81611
cpu0_DTLB RFO       ACCESS:     937591  HIT:     872234  MISS:      65357
cpu0_DTLB PREFETCH  ACCESS:          0  HIT:          0  MISS:          0
cpu0_DTLB WRITEBACK ACCESS:          0  HIT:          0  MISS:          0
cpu0_ITLB TOTAL     ACCESS:     414118  HIT:     414118  MISS:          0
cpu0_ITLB LOAD      ACCESS:     414118  HIT:     414118  MISS:          0
cpu0_ITLB RFO       ACCESS:          0  HIT:          0  MISS:          0
cpu0_ITLB PREFETCH  ACCESS:          0  HIT:          0  MISS:          0
cpu0_ITLB WRITEBACK ACCESS:          0  HIT:          0  MISS:          0
cpu0_L1I TOTAL     ACCESS:    2658659  HIT:    2658659  MISS:          0
cpu0_L1I LOAD      ACCESS:    2658659  HIT:    2658659  MISS:          0
cpu0_L1I RFO       ACCESS:          0  HIT:          0  MISS:          0
cpu0_L1I PREFETCH  ACCESS:          0  HIT:          0  MISS:          0
cpu0_L1I WRITEBACK ACCESS:          0  HIT:          0  MISS:          0
cpu0_STLB TOTAL     ACCESS:     146968  HIT:     144719  MISS:       2249
cpu0_STLB LOAD      ACCESS:      81611  HIT:      79362  MISS:       2249
cpu0_STLB RFO       ACCESS:      65357  HIT:      65357  MISS:          0
cpu0_STLB PREFETCH  ACCESS:          0  HIT:          0  MISS:          0
cpu0_STLB WRITEBACK ACCESS:          0  HIT:          0  MISS:          0
cpu0_L1D TOTAL     ACCESS:   13269784  HIT:   13096660  MISS:     173124
cpu0_L1D LOAD      ACCESS:   11848939  HIT:   11677280  MISS:     171659
cpu0_L1D RFO       ACCESS:    1418730  HIT:    1418730  MISS:          0
cpu0_L1D PREFETCH  ACCESS:          0  HIT:          0  MISS:          0
cpu0_L1D WRITEBACK ACCESS:          0  HIT:          0  MISS:          0
cpu0_L2C TOTAL     ACCESS:     262878  HIT:      84292  MISS:     178586
cpu0_L2C LOAD      ACCESS:     171659  HIT:       1994  MISS:     169665
cpu0_L2C RFO       ACCESS:          0  HIT:          0  MISS:          0
cpu0_L2C PREFETCH  ACCESS:          0  HIT:          0  MISS:          0
cpu0_L2C WRITEBACK ACCESS:      89754  HIT:      81270  MISS:       8484
LLC TOTAL     ACCESS:     259884  HIT:     110032  MISS:     149852
LLC LOAD      ACCESS:     169665  HIT:      19821  MISS:     149844
LLC RFO       ACCESS:          0  HIT:          0  MISS:          0
LLC PREFETCH  ACCESS:          0  HIT:          0  MISS:          0
LLC WRITEBACK ACCESS:      89782  HIT:      89775  MISS:          7
Heartbeat CPU 0 instructions: 76000000 cycles: 63700601 heartbeat IPC: 0.725521 cumulative IPC: 0.737022 (Simulation time: 2 hr 19 min 25 sec) 

Region of Interest Statistics
cpu0_DTLB TOTAL     ACCESS:   12330332  HIT:   12158209  MISS:     172123
cpu0_DTLB LOAD      ACCESS:   11315270  HIT:   11221025  MISS:      94245
cpu0_DTLB RFO       ACCESS:    1015062  HIT:     937184  MISS:      77878
cpu0_DTLB PREFETCH  ACCESS:          0  HIT:          0  MISS:          0
cpu0_DTLB WRITEBACK ACCESS:          0  HIT:          0  MISS:          0
cpu0_ITLB TOTAL     ACCESS:     448636  HIT:     448636  MISS:          0
cpu0_ITLB LOAD      ACCESS:     448636  HIT:     448636  MISS:          0
cpu0_ITLB RFO       ACCESS:          0  HIT:          0  MISS:          0
cpu0_ITLB PREFETCH  ACCESS:          0  HIT:          0  MISS:          0
cpu0_ITLB WRITEBACK ACCESS:          0  HIT:          0  MISS:          0
cpu0_L1I TOTAL     ACCESS:    2881527  HIT:    2881527  MISS:          0
cpu0_L1I LOAD      ACCESS:    2881527  HIT:    2881527  MISS:          0
cpu0_L1I RFO       ACCESS:          0  HIT:          0  MISS:          0
cpu0_L1I PREFETCH  ACCESS:          0  HIT:          0  MISS:          0
cpu0_L1I WRITEBACK ACCESS:          0  HIT:          0  MISS:          0
cpu0_STLB TOTAL     ACCESS:     172123  HIT:     169682  MISS:       2441
cpu0_STLB LOAD      ACCESS:      94245  HIT:      91804  MISS:       2441
cpu0_STLB RFO       ACCESS:      77878  HIT:      77878  MISS:          0
cpu0_STLB PREFETCH  ACCESS:          0  HIT:          0  MISS:          0
cpu0_STLB WRITEBACK ACCESS:          0  HIT:          0  MISS:          0
cpu0_L1D TOTAL     ACCESS:   14379102  HIT:   14191556  MISS:     187546
cpu0_L1D LOAD      ACCESS:   12839845  HIT:   12653891  MISS:     185954
cpu0_L1D RFO       ACCESS:    1536960  HIT:    1536960  MISS:          0
cpu0_L1D PREFETCH  ACCESS:          0  HIT:          0  MISS:          0
cpu0_L1D WRITEBACK ACCESS:          0  HIT:          0  MISS:          0
cpu0_L2C TOTAL     ACCESS:     284756  HIT:      91548  MISS:     193208
cpu0_L2C LOAD      ACCESS:     185954  HIT:       2156  MISS:     183798
cpu0_L2C RFO       ACCESS:          0  HIT:          0  MISS:          0
cpu0_L2C PREFETCH  ACCESS:          0  HIT:          0  MISS:          0
cpu0_L2C WRITEBACK ACCESS:      97210  HIT:      88270  MISS:       8940
LLC TOTAL     ACCESS:     281452  HIT:     119102  MISS:     162350
LLC LOAD      ACCESS:     183798  HIT:      21457  MISS:     162341
LLC RFO       ACCESS:          0  HIT:          0  MISS:          0
LLC PREFETCH  ACCESS:          0  HIT:          0  MISS:          0
LLC WRITEBACK ACCESS:      97184  HIT:      97177  MISS:          7
Heartbeat CPU 0 instructions: 78000003 cycles: 66382591 heartbeat IPC: 0.745716 cumulative IPC: 0.737637 (Simulation time: 2 hr 24 min 2 sec) 

Region of Interest Statistics
cpu0_DTLB TOTAL     ACCESS:   13276742  HIT:   13093808  MISS:     182934
cpu0_DTLB LOAD      ACCESS:   12183394  HIT:   12083278  MISS:     100116
cpu0_DTLB RFO       ACCESS:    1093348  HIT:    1010530  MISS:      82818
cpu0_DTLB PREFETCH  ACCESS:          0  HIT:          0  MISS:          0
cpu0_DTLB WRITEBACK ACCESS:          0  HIT:          0  MISS:          0
cpu0_ITLB TOTAL     ACCESS:     483144  HIT:     483144  MISS:          0
cpu0_ITLB LOAD      ACCESS:     483144  HIT:     483144  MISS:          0
cpu0_ITLB RFO       ACCESS:          0  HIT:          0  MISS:          0
cpu0_ITLB PREFETCH  ACCESS:          0  HIT:          0  MISS:          0
cpu0_ITLB WRITEBACK ACCESS:          0  HIT:          0  MISS:          0
cpu0_L1I TOTAL     ACCESS:    3102876  HIT:    3102876  MISS:          0
cpu0_L1I LOAD      ACCESS:    3102876  HIT:    3102876  MISS:          0
cpu0_L1I RFO       ACCESS:          0  HIT:          0  MISS:          0
cpu0_L1I PREFETCH  ACCESS:          0  HIT:          0  MISS:          0
cpu0_L1I WRITEBACK ACCESS:          0  HIT:          0  MISS:          0
cpu0_STLB TOTAL     ACCESS:     182934  HIT:     180310  MISS:       2624
cpu0_STLB LOAD      ACCESS:     100116  HIT:      97492  MISS:       2624
cpu0_STLB RFO       ACCESS:      82818  HIT:      82818  MISS:          0
cpu0_STLB PREFETCH  ACCESS:          0  HIT:          0  MISS:          0
cpu0_STLB WRITEBACK ACCESS:          0  HIT:          0  MISS:          0
cpu0_L1D TOTAL     ACCESS:   15483714  HIT:   15281564  MISS:     202150
cpu0_L1D LOAD      ACCESS:   13826070  HIT:   13625630  MISS:     200440
cpu0_L1D RFO       ACCESS:    1655175  HIT:    1655175  MISS:          0
cpu0_L1D PREFETCH  ACCESS:          0  HIT:          0  MISS:          0
cpu0_L1D WRITEBACK ACCESS:          0  HIT:          0  MISS:          0
cpu0_L2C TOTAL     ACCESS:     306863  HIT:      98948  MISS:     207915
cpu0_L2C LOAD      ACCESS:     200440  HIT:       2425  MISS:     198015
cpu0_L2C RFO       ACCESS:          0  HIT:          0  MISS:          0
cpu0_L2C PREFETCH  ACCESS:          0  HIT:          0  MISS:          0
cpu0_L2C WRITEBACK ACCESS:     104713  HIT:      95314  MISS:       9399
LLC TOTAL     ACCESS:     303163  HIT:     128464  MISS:     174699
LLC LOAD      ACCESS:     198015  HIT:      23325  MISS:     174690
LLC RFO       ACCESS:          0  HIT:          0  MISS:          0
LLC PREFETCH  ACCESS:          0  HIT:          0  MISS:          0
LLC WRITEBACK ACCESS:     104647  HIT:     104640  MISS:          7
Heartbeat CPU 0 instructions: 80000003 cycles: 69113477 heartbeat IPC: 0.732363 cumulative IPC: 0.737283 (Simulation time: 2 hr 28 min 35 sec) 

Region of Interest Statistics
cpu0_DTLB TOTAL     ACCESS:   14226091  HIT:   14025035  MISS:     201056
cpu0_DTLB LOAD      ACCESS:   13054854  HIT:   12945891  MISS:     108963
cpu0_DTLB RFO       ACCESS:    1171237  HIT:    1079144  MISS:      92093
cpu0_DTLB PREFETCH  ACCESS:          0  HIT:          0  MISS:          0
cpu0_DTLB WRITEBACK ACCESS:          0  HIT:          0  MISS:          0
cpu0_ITLB TOTAL     ACCESS:     517661  HIT:     517661  MISS:          0
cpu0_ITLB LOAD      ACCESS:     517661  HIT:     517661  MISS:          0
cpu0_ITLB RFO       ACCESS:          0  HIT:          0  MISS:          0
cpu0_ITLB PREFETCH  ACCESS:          0  HIT:          0  MISS:          0
cpu0_ITLB WRITEBACK ACCESS:          0  HIT:          0  MISS:          0
cpu0_L1I TOTAL     ACCESS:    3325126  HIT:    3325126  MISS:          0
cpu0_L1I LOAD      ACCESS:    3325126  HIT:    3325126  MISS:          0
cpu0_L1I RFO       ACCESS:          0  HIT:          0  MISS:          0
cpu0_L1I PREFETCH  ACCESS:          0  HIT:          0  MISS:          0
cpu0_L1I WRITEBACK ACCESS:          0  HIT:          0  MISS:          0
cpu0_STLB TOTAL     ACCESS:     201056  HIT:     198237  MISS:       2819
cpu0_STLB LOAD      ACCESS:     108963  HIT:     106144  MISS:       2819
cpu0_STLB RFO       ACCESS:      92093  HIT:      92093  MISS:          0
cpu0_STLB PREFETCH  ACCESS:          0  HIT:          0  MISS:          0
cpu0_STLB WRITEBACK ACCESS:          0  HIT:          0  MISS:          0
cpu0_L1D TOTAL     ACCESS:   16591159  HIT:   16374649  MISS:     216510
cpu0_L1D LOAD      ACCESS:   14815088  HIT:   14600409  MISS:     214679
cpu0_L1D RFO       ACCESS:    1773421  HIT:    1773421  MISS:          0
cpu0_L1D PREFETCH  ACCESS:          0  HIT:          0  MISS:          0
cpu0_L1D WRITEBACK ACCESS:          0  HIT:          0  MISS:          0
cpu0_L2C TOTAL     ACCESS:     328714  HIT:     106275  MISS:     222439
cpu0_L2C LOAD      ACCESS:     214679  HIT:       2578  MISS:     212101
cpu0_L2C RFO       ACCESS:          0  HIT:          0  MISS:          0
cpu0_L2C PREFETCH  ACCESS:          0  HIT:          0  MISS:          0
cpu0_L2C WRITEBACK ACCESS:     112204  HIT:     102400  MISS:       9804
LLC TOTAL     ACCESS:     324791  HIT:     137752  MISS:     187039
LLC LOAD      ACCESS:     212101  HIT:      25073  MISS:     187028
LLC RFO       ACCESS:          0  HIT:          0  MISS:          0
LLC PREFETCH  ACCESS:          0  HIT:          0  MISS:          0
LLC WRITEBACK ACCESS:     112156  HIT:     112148  MISS:          8
Heartbeat CPU 0 instructions: 82000004 cycles: 71826103 heartbeat IPC: 0.737293 cumulative IPC: 0.737283 (Simulation time: 2 hr 33 min 15 sec) 

Region of Interest Statistics
cpu0_DTLB TOTAL     ACCESS:   15174476  HIT:   14957686  MISS:     216790
cpu0_DTLB LOAD      ACCESS:   13925193  HIT:   13807883  MISS:     117310
cpu0_DTLB RFO       ACCESS:    1249283  HIT:    1149803  MISS:      99480
cpu0_DTLB PREFETCH  ACCESS:          0  HIT:          0  MISS:          0
cpu0_DTLB WRITEBACK ACCESS:          0  HIT:          0  MISS:          0
cpu0_ITLB TOTAL     ACCESS:     552169  HIT:     552169  MISS:          0
cpu0_ITLB LOAD      ACCESS:     552169  HIT:     552169  MISS:          0
cpu0_ITLB RFO       ACCESS:          0  HIT:          0  MISS:          0
cpu0_ITLB PREFETCH  ACCESS:          0  HIT:          0  MISS:          0
cpu0_ITLB WRITEBACK ACCESS:          0  HIT:          0  MISS:          0
cpu0_L1I TOTAL     ACCESS:    3547215  HIT:    3547215  MISS:          0
cpu0_L1I LOAD      ACCESS:    3547215  HIT:    3547215  MISS:          0
cpu0_L1I RFO       ACCESS:          0  HIT:          0  MISS:          0
cpu0_L1I PREFETCH  ACCESS:          0  HIT:          0  MISS:          0
cpu0_L1I WRITEBACK ACCESS:          0  HIT:          0  MISS:          0
cpu0_STLB TOTAL     ACCESS:     216790  HIT:     213785  MISS:       3005
cpu0_STLB LOAD      ACCESS:     117310  HIT:     114305  MISS:       3005
cpu0_STLB RFO       ACCESS:      99480  HIT:      99480  MISS:          0
cpu0_STLB PREFETCH  ACCESS:          0  HIT:          0  MISS:          0
cpu0_STLB WRITEBACK ACCESS:          0  HIT:          0  MISS:          0
cpu0_L1D TOTAL     ACCESS:   17696818  HIT:   17466250  MISS:     230568
cpu0_L1D LOAD      ACCESS:   15802344  HIT:   15573733  MISS:     228611
cpu0_L1D RFO       ACCESS:    1891651  HIT:    1891651  MISS:          0
cpu0_L1D PREFETCH  ACCESS:          0  HIT:          0  MISS:          0
cpu0_L1D WRITEBACK ACCESS:          0  HIT:          0  MISS:          0
cpu0_L2C TOTAL     ACCESS:     350248  HIT:     113132  MISS:     237116
cpu0_L2C LOAD      ACCESS:     228611  HIT:       2634  MISS:     225977
cpu0_L2C RFO       ACCESS:          0  HIT:          0  MISS:          0
cpu0_L2C PREFETCH  ACCESS:          0  HIT:          0  MISS:          0
cpu0_L2C WRITEBACK ACCESS:     119680  HIT:     109113  MISS:      10567
LLC TOTAL     ACCESS:     346229  HIT:     146755  MISS:     199474
LLC LOAD      ACCESS:     225977  HIT:      26514  MISS:     199463
LLC RFO       ACCESS:          0  HIT:          0  MISS:          0
LLC PREFETCH  ACCESS:          0  HIT:          0  MISS:          0
LLC WRITEBACK ACCESS:     119680  HIT:     119672  MISS:          8
Heartbeat CPU 0 instructions: 84000000 cycles: 74494788 heartbeat IPC: 0.749431 cumulative IPC: 0.737987 (Simulation time: 2 hr 37 min 49 sec) 

Region of Interest Statistics
cpu0_DTLB TOTAL     ACCESS:   16125501  HIT:   15895883  MISS:     229618
cpu0_DTLB LOAD      ACCESS:   14798269  HIT:   14676106  MISS:     122163
cpu0_DTLB RFO       ACCESS:    1327232  HIT:    1219777  MISS:     107455
cpu0_DTLB PREFETCH  ACCESS:          0  HIT:          0  MISS:          0
cpu0_DTLB WRITEBACK ACCESS:          0  HIT:          0  MISS:          0
cpu0_ITLB TOTAL     ACCESS:     586677  HIT:     586677  MISS:          0
cpu0_ITLB LOAD      ACCESS:     586677  HIT:     586677  MISS:          0
cpu0_ITLB RFO       ACCESS:          0  HIT:          0  MISS:          0
cpu0_ITLB PREFETCH  ACCESS:          0  HIT:          0  MISS:          0
cpu0_ITLB WRITEBACK ACCESS:          0  HIT:          0  MISS:          0
cpu0_L1I TOTAL     ACCESS:    3769063  HIT:    3769063  MISS:          0
cpu0_L1I LOAD      ACCESS:    3769063  HIT:    3769063  MISS:          0
cpu0_L1I RFO       ACCESS:          0  HIT:          0  MISS:          0
cpu0_L1I PREFETCH  ACCESS:          0  HIT:          0  MISS:          0
cpu0_L1I WRITEBACK ACCESS:          0  HIT:          0  MISS:          0
cpu0_STLB TOTAL     ACCESS:     229618  HIT:     226427  MISS:       3191
cpu0_STLB LOAD      ACCESS:     122163  HIT:     118972  MISS:       3191
cpu0_STLB RFO       ACCESS:     107455  HIT:     107455  MISS:          0
cpu0_STLB PREFETCH  ACCESS:          0  HIT:          0  MISS:          0
cpu0_STLB WRITEBACK ACCESS:          0  HIT:          0  MISS:          0
cpu0_L1D TOTAL     ACCESS:   18803277  HIT:   18558529  MISS:     244748
cpu0_L1D LOAD      ACCESS:   16790412  HIT:   16547751  MISS:     242661
cpu0_L1D RFO       ACCESS:    2009867  HIT:    2009867  MISS:          0
cpu0_L1D PREFETCH  ACCESS:          0  HIT:          0  MISS:          0
cpu0_L1D WRITEBACK ACCESS:          0  HIT:          0  MISS:          0
cpu0_L2C TOTAL     ACCESS:     371908  HIT:     119702  MISS:     252206
cpu0_L2C LOAD      ACCESS:     242661  HIT:       2726  MISS:     239935
cpu0_L2C RFO       ACCESS:          0  HIT:          0  MISS:          0
cpu0_L2C PREFETCH  ACCESS:          0  HIT:          0  MISS:          0
cpu0_L2C WRITEBACK ACCESS:     127160  HIT:     115507  MISS:      11653
LLC TOTAL     ACCESS:     367685  HIT:     156244  MISS:     211441
LLC LOAD      ACCESS:     239935  HIT:      28506  MISS:     211429
LLC RFO       ACCESS:          0  HIT:          0  MISS:          0
LLC PREFETCH  ACCESS:          0  HIT:          0  MISS:          0
LLC WRITEBACK ACCESS:     127132  HIT:     127123  MISS:          9
Heartbeat CPU 0 instructions: 86000002 cycles: 77209386 heartbeat IPC: 0.736758 cumulative IPC: 0.737919 (Simulation time: 2 hr 42 min 18 sec) 

Region of Interest Statistics
cpu0_DTLB TOTAL     ACCESS:   17073396  HIT:   16836632  MISS:     236764
cpu0_DTLB LOAD      ACCESS:   15667679  HIT:   15542968  MISS:     124711
cpu0_DTLB RFO       ACCESS:    1405717  HIT:    1293664  MISS:     112053
cpu0_DTLB PREFETCH  ACCESS:          0  HIT:          0  MISS:          0
cpu0_DTLB WRITEBACK ACCESS:          0  HIT:          0  MISS:          0
cpu0_ITLB TOTAL     ACCESS:     621188  HIT:     621188  MISS:          0
cpu0_ITLB LOAD      ACCESS:     621188  HIT:     621188  MISS:          0
cpu0_ITLB RFO       ACCESS:          0  HIT:          0  MISS:          0
cpu0_ITLB PREFETCH  ACCESS:          0  HIT:          0  MISS:          0
cpu0_ITLB WRITEBACK ACCESS:          0  HIT:          0  MISS:          0
cpu0_L1I TOTAL     ACCESS:    3990410  HIT:    3990410  MISS:          0
cpu0_L1I LOAD      ACCESS:    3990410  HIT:    3990410  MISS:          0
cpu0_L1I RFO       ACCESS:          0  HIT:          0  MISS:          0
cpu0_L1I PREFETCH  ACCESS:          0  HIT:          0  MISS:          0
cpu0_L1I WRITEBACK ACCESS:          0  HIT:          0  MISS:          0
cpu0_STLB TOTAL     ACCESS:     236764  HIT:     233390  MISS:       3374
cpu0_STLB LOAD      ACCESS:     124711  HIT:     121337  MISS:       3374
cpu0_STLB RFO       ACCESS:     112053  HIT:     112053  MISS:          0
cpu0_STLB PREFETCH  ACCESS:          0  HIT:          0  MISS:          0
cpu0_STLB WRITEBACK ACCESS:          0  HIT:          0  MISS:          0
cpu0_L1D TOTAL     ACCESS:   19907269  HIT:   19648133  MISS:     259136
cpu0_L1D LOAD      ACCESS:   17776008  HIT:   17519084  MISS:     256924
cpu0_L1D RFO       ACCESS:    2128091  HIT:    2128091  MISS:          0
cpu0_L1D PREFETCH  ACCESS:          0  HIT:          0  MISS:          0
cpu0_L1D WRITEBACK ACCESS:          0  HIT:          0  MISS:          0
cpu0_L2C TOTAL     ACCESS:     393722  HIT:     126994  MISS:     266728
cpu0_L2C LOAD      ACCESS:     256924  HIT:       2876  MISS:     254048
cpu0_L2C RFO       ACCESS:          0  HIT:          0  MISS:          0
cpu0_L2C PREFETCH  ACCESS:          0  HIT:          0  MISS:          0
cpu0_L2C WRITEBACK ACCESS:     134586  HIT:     122563  MISS:      12023
LLC TOTAL     ACCESS:     389297  HIT:     165109  MISS:     224188
LLC LOAD      ACCESS:     254048  HIT:      29873  MISS:     224175
LLC RFO       ACCESS:          0  HIT:          0  MISS:          0
LLC PREFETCH  ACCESS:          0  HIT:          0  MISS:          0
LLC WRITEBACK ACCESS:     134592  HIT:     134582  MISS:         10
Heartbeat CPU 0 instructions: 88000000 cycles: 79924026 heartbeat IPC: 0.736745 cumulative IPC: 0.737857 (Simulation time: 2 hr 46 min 45 sec) 

Region of Interest Statistics
cpu0_DTLB TOTAL     ACCESS:   18021581  HIT:   17768441  MISS:     253140
cpu0_DTLB LOAD      ACCESS:   16537590  HIT:   16404859  MISS:     132731
cpu0_DTLB RFO       ACCESS:    1483991  HIT:    1363582  MISS:     120409
cpu0_DTLB PREFETCH  ACCESS:          0  HIT:          0  MISS:          0
cpu0_DTLB WRITEBACK ACCESS:          0  HIT:          0  MISS:          0
cpu0_ITLB TOTAL     ACCESS:     655699  HIT:     655699  MISS:          0
cpu0_ITLB LOAD      ACCESS:     655699  HIT:     655699  MISS:          0
cpu0_ITLB RFO       ACCESS:          0  HIT:          0  MISS:          0
cpu0_ITLB PREFETCH  ACCESS:          0  HIT:          0  MISS:          0
cpu0_ITLB WRITEBACK ACCESS:          0  HIT:          0  MISS:          0
cpu0_L1I TOTAL     ACCESS:    4212408  HIT:    4212408  MISS:          0
cpu0_L1I LOAD      ACCESS:    4212408  HIT:    4212408  MISS:          0
cpu0_L1I RFO       ACCESS:          0  HIT:          0  MISS:          0
cpu0_L1I PREFETCH  ACCESS:          0  HIT:          0  MISS:          0
cpu0_L1I WRITEBACK ACCESS:          0  HIT:          0  MISS:          0
cpu0_STLB TOTAL     ACCESS:     253140  HIT:     249572  MISS:       3568
cpu0_STLB LOAD      ACCESS:     132731  HIT:     129163  MISS:       3568
cpu0_STLB RFO       ACCESS:     120409  HIT:     120409  MISS:          0
cpu0_STLB PREFETCH  ACCESS:          0  HIT:          0  MISS:          0
cpu0_STLB WRITEBACK ACCESS:          0  HIT:          0  MISS:          0
cpu0_L1D TOTAL     ACCESS:   21014495  HIT:   20740795  MISS:     273700
cpu0_L1D LOAD      ACCESS:   18764812  HIT:   18493442  MISS:     271370
cpu0_L1D RFO       ACCESS:    2246329  HIT:    2246329  MISS:          0
cpu0_L1D PREFETCH  ACCESS:          0  HIT:          0  MISS:          0
cpu0_L1D WRITEBACK ACCESS:          0  HIT:          0  MISS:          0
cpu0_L2C TOTAL     ACCESS:     415803  HIT:     134386  MISS:     281417
cpu0_L2C LOAD      ACCESS:     271370  HIT:       3114  MISS:     268256
cpu0_L2C RFO       ACCESS:          0  HIT:          0  MISS:          0
cpu0_L2C PREFETCH  ACCESS:          0  HIT:          0  MISS:          0
cpu0_L2C WRITEBACK ACCESS:     142103  HIT:     129654  MISS:      12449
LLC TOTAL     ACCESS:     410983  HIT:     174404  MISS:     236579
LLC LOAD      ACCESS:     268256  HIT:      31690  MISS:     236566
LLC RFO       ACCESS:          0  HIT:          0  MISS:          0
LLC PREFETCH  ACCESS:          0  HIT:          0  MISS:          0
LLC WRITEBACK ACCESS:     142015  HIT:     142005  MISS:         10
Heartbeat CPU 0 instructions: 90000003 cycles: 82629156 heartbeat IPC: 0.739337 cumulative IPC: 0.737931 (Simulation time: 2 hr 51 min 14 sec) 

Region of Interest Statistics
cpu0_DTLB TOTAL     ACCESS:   18968367  HIT:   18709427  MISS:     258940
cpu0_DTLB LOAD      ACCESS:   17405883  HIT:   17270908  MISS:     134975
cpu0_DTLB RFO       ACCESS:    1562484  HIT:    1438519  MISS:     123965
cpu0_DTLB PREFETCH  ACCESS:          0  HIT:          0  MISS:          0
cpu0_DTLB WRITEBACK ACCESS:          0  HIT:          0  MISS:          0
cpu0_ITLB TOTAL     ACCESS:     690206  HIT:     690206  MISS:          0
cpu0_ITLB LOAD      ACCESS:     690206  HIT:     690206  MISS:          0
cpu0_ITLB RFO       ACCESS:          0  HIT:          0  MISS:          0
cpu0_ITLB PREFETCH  ACCESS:          0  HIT:          0  MISS:          0
cpu0_ITLB WRITEBACK ACCESS:          0  HIT:          0  MISS:          0
cpu0_L1I TOTAL     ACCESS:    4433496  HIT:    4433496  MISS:          0
cpu0_L1I LOAD      ACCESS:    4433496  HIT:    4433496  MISS:          0
cpu0_L1I RFO       ACCESS:          0  HIT:          0  MISS:          0
cpu0_L1I PREFETCH  ACCESS:          0  HIT:          0  MISS:          0
cpu0_L1I WRITEBACK ACCESS:          0  HIT:          0  MISS:          0
cpu0_STLB TOTAL     ACCESS:     258940  HIT:     255186  MISS:       3754
cpu0_STLB LOAD      ACCESS:     134975  HIT:     131221  MISS:       3754
cpu0_STLB RFO       ACCESS:     123965  HIT:     123965  MISS:          0
cpu0_STLB PREFETCH  ACCESS:          0  HIT:          0  MISS:          0
cpu0_STLB WRITEBACK ACCESS:          0  HIT:          0  MISS:          0
cpu0_L1D TOTAL     ACCESS:   22117560  HIT:   21829909  MISS:     287651
cpu0_L1D LOAD      ACCESS:   19749474  HIT:   19464281  MISS:     285193
cpu0_L1D RFO       ACCESS:    2364558  HIT:    2364558  MISS:          0
cpu0_L1D PREFETCH  ACCESS:          0  HIT:          0  MISS:          0
cpu0_L1D WRITEBACK ACCESS:          0  HIT:          0  MISS:          0
cpu0_L2C TOTAL     ACCESS:     437211  HIT:     140881  MISS:     296330
cpu0_L2C LOAD      ACCESS:     285193  HIT:       3120  MISS:     282073
cpu0_L2C RFO       ACCESS:          0  HIT:          0  MISS:          0
cpu0_L2C PREFETCH  ACCESS:          0  HIT:          0  MISS:          0
cpu0_L2C WRITEBACK ACCESS:     149560  HIT:     136066  MISS:      13494
LLC TOTAL     ACCESS:     432311  HIT:     183319  MISS:     248992
LLC LOAD      ACCESS:     282073  HIT:      33094  MISS:     248979
LLC RFO       ACCESS:          0  HIT:          0  MISS:          0
LLC PREFETCH  ACCESS:          0  HIT:          0  MISS:          0
LLC WRITEBACK ACCESS:     149475  HIT:     149465  MISS:         10
Heartbeat CPU 0 instructions: 92000002 cycles: 85341812 heartbeat IPC: 0.737284 cumulative IPC: 0.7379 (Simulation time: 2 hr 55 min 45 sec) 

Region of Interest Statistics
cpu0_DTLB TOTAL     ACCESS:   19916994  HIT:   19645920  MISS:     271074
cpu0_DTLB LOAD      ACCESS:   18276117  HIT:   18135234  MISS:     140883
cpu0_DTLB RFO       ACCESS:    1640877  HIT:    1510686  MISS:     130191
cpu0_DTLB PREFETCH  ACCESS:          0  HIT:          0  MISS:          0
cpu0_DTLB WRITEBACK ACCESS:          0  HIT:          0  MISS:          0
cpu0_ITLB TOTAL     ACCESS:     724711  HIT:     724711  MISS:          0
cpu0_ITLB LOAD      ACCESS:     724711  HIT:     724711  MISS:          0
cpu0_ITLB RFO       ACCESS:          0  HIT:          0  MISS:          0
cpu0_ITLB PREFETCH  ACCESS:          0  HIT:          0  MISS:          0
cpu0_ITLB WRITEBACK ACCESS:          0  HIT:          0  MISS:          0
cpu0_L1I TOTAL     ACCESS:    4655235  HIT:    4655235  MISS:          0
cpu0_L1I LOAD      ACCESS:    4655235  HIT:    4655235  MISS:          0
cpu0_L1I RFO       ACCESS:          0  HIT:          0  MISS:          0
cpu0_L1I PREFETCH  ACCESS:          0  HIT:          0  MISS:          0
cpu0_L1I WRITEBACK ACCESS:          0  HIT:          0  MISS:          0
cpu0_STLB TOTAL     ACCESS:     271074  HIT:     267134  MISS:       3940
cpu0_STLB LOAD      ACCESS:     140883  HIT:     136943  MISS:       3940
cpu0_STLB RFO       ACCESS:     130191  HIT:     130191  MISS:          0
cpu0_STLB PREFETCH  ACCESS:          0  HIT:          0  MISS:          0
cpu0_STLB WRITEBACK ACCESS:          0  HIT:          0  MISS:          0
cpu0_L1D TOTAL     ACCESS:   23223252  HIT:   22921576  MISS:     301676
cpu0_L1D LOAD      ACCESS:   20736767  HIT:   20437676  MISS:     299091
cpu0_L1D RFO       ACCESS:    2482782  HIT:    2482782  MISS:          0
cpu0_L1D PREFETCH  ACCESS:          0  HIT:          0  MISS:          0
cpu0_L1D WRITEBACK ACCESS:          0  HIT:          0  MISS:          0
cpu0_L2C TOTAL     ACCESS:     458714  HIT:     147392  MISS:     311322
cpu0_L2C LOAD      ACCESS:     299091  HIT:       3196  MISS:     295895
cpu0_L2C RFO       ACCESS:          0  HIT:          0  MISS:          0
cpu0_L2C PREFETCH  ACCESS:          0  HIT:          0  MISS:          0
cpu0_L2C WRITEBACK ACCESS:     157038  HIT:     142393  MISS:      14645
LLC TOTAL     ACCESS:     453682  HIT:     191995  MISS:     261687
LLC LOAD      ACCESS:     295895  HIT:      34222  MISS:     261673
LLC RFO       ACCESS:          0  HIT:          0  MISS:          0
LLC PREFETCH  ACCESS:          0  HIT:          0  MISS:          0
LLC WRITEBACK ACCESS:     157005  HIT:     156994  MISS:         11
Heartbeat CPU 0 instructions: 94000004 cycles: 88033414 heartbeat IPC: 0.743053 cumulative IPC: 0.738133 (Simulation time: 3 hr 0 min 14 sec) 

Region of Interest Statistics
cpu0_DTLB TOTAL     ACCESS:   20865950  HIT:   20585682  MISS:     280268
cpu0_DTLB LOAD      ACCESS:   19147296  HIT:   19000329  MISS:     146967
cpu0_DTLB RFO       ACCESS:    1718654  HIT:    1585353  MISS:     133301
cpu0_DTLB PREFETCH  ACCESS:          0  HIT:          0  MISS:          0
cpu0_DTLB WRITEBACK ACCESS:          0  HIT:          0  MISS:          0
cpu0_ITLB TOTAL     ACCESS:     759217  HIT:     759217  MISS:          0
cpu0_ITLB LOAD      ACCESS:     759217  HIT:     759217  MISS:          0
cpu0_ITLB RFO       ACCESS:          0  HIT:          0  MISS:          0
cpu0_ITLB PREFETCH  ACCESS:          0  HIT:          0  MISS:          0
cpu0_ITLB WRITEBACK ACCESS:          0  HIT:          0  MISS:          0
cpu0_L1I TOTAL     ACCESS:    4876167  HIT:    4876167  MISS:          0
cpu0_L1I LOAD      ACCESS:    4876167  HIT:    4876167  MISS:          0
cpu0_L1I RFO       ACCESS:          0  HIT:          0  MISS:          0
cpu0_L1I PREFETCH  ACCESS:          0  HIT:          0  MISS:          0
cpu0_L1I WRITEBACK ACCESS:          0  HIT:          0  MISS:          0
cpu0_STLB TOTAL     ACCESS:     280268  HIT:     276142  MISS:       4126
cpu0_STLB LOAD      ACCESS:     146967  HIT:     142841  MISS:       4126
cpu0_STLB RFO       ACCESS:     133301  HIT:     133301  MISS:          0
cpu0_STLB PREFETCH  ACCESS:          0  HIT:          0  MISS:          0
cpu0_STLB WRITEBACK ACCESS:          0  HIT:          0  MISS:          0
cpu0_L1D TOTAL     ACCESS:   24327260  HIT:   24011486  MISS:     315774
cpu0_L1D LOAD      ACCESS:   21722382  HIT:   21409316  MISS:     313066
cpu0_L1D RFO       ACCESS:    2600998  HIT:    2600998  MISS:          0
cpu0_L1D PREFETCH  ACCESS:          0  HIT:          0  MISS:          0
cpu0_L1D WRITEBACK ACCESS:          0  HIT:          0  MISS:          0
cpu0_L2C TOTAL     ACCESS:     480270  HIT:     154844  MISS:     325426
cpu0_L2C LOAD      ACCESS:     313066  HIT:       3270  MISS:     309796
cpu0_L2C RFO       ACCESS:          0  HIT:          0  MISS:          0
cpu0_L2C PREFETCH  ACCESS:          0  HIT:          0  MISS:          0
cpu0_L2C WRITEBACK ACCESS:     164496  HIT:     149669  MISS:      14827
LLC TOTAL     ACCESS:     475049  HIT:     201060  MISS:     273989
LLC LOAD      ACCESS:     309796  HIT:      35822  MISS:     273974
LLC RFO       ACCESS:          0  HIT:          0  MISS:          0
LLC PREFETCH  ACCESS:          0  HIT:          0  MISS:          0
LLC WRITEBACK ACCESS:     164450  HIT:     164438  MISS:         12
Heartbeat CPU 0 instructions: 96000000 cycles: 90731461 heartbeat IPC: 0.741275 cumulative IPC: 0.738269 (Simulation time: 3 hr 4 min 49 sec) 

Region of Interest Statistics
cpu0_DTLB TOTAL     ACCESS:   21812502  HIT:   21525511  MISS:     286991
cpu0_DTLB LOAD      ACCESS:   20015390  HIT:   19864412  MISS:     150978
cpu0_DTLB RFO       ACCESS:    1797112  HIT:    1661099  MISS:     136013
cpu0_DTLB PREFETCH  ACCESS:          0  HIT:          0  MISS:          0
cpu0_DTLB WRITEBACK ACCESS:          0  HIT:          0  MISS:          0
cpu0_ITLB TOTAL     ACCESS:     793726  HIT:     793726  MISS:          0
cpu0_ITLB LOAD      ACCESS:     793726  HIT:     793726  MISS:          0
cpu0_ITLB RFO       ACCESS:          0  HIT:          0  MISS:          0
cpu0_ITLB PREFETCH  ACCESS:          0  HIT:          0  MISS:          0
cpu0_ITLB WRITEBACK ACCESS:          0  HIT:          0  MISS:          0
cpu0_L1I TOTAL     ACCESS:    5097245  HIT:    5097245  MISS:          0
cpu0_L1I LOAD      ACCESS:    5097245  HIT:    5097245  MISS:          0
cpu0_L1I RFO       ACCESS:          0  HIT:          0  MISS:          0
cpu0_L1I PREFETCH  ACCESS:          0  HIT:          0  MISS:          0
cpu0_L1I WRITEBACK ACCESS:          0  HIT:          0  MISS:          0
cpu0_STLB TOTAL     ACCESS:     286991  HIT:     282676  MISS:       4315
cpu0_STLB LOAD      ACCESS:     150978  HIT:     146663  MISS:       4315
cpu0_STLB RFO       ACCESS:     136013  HIT:     136013  MISS:          0
cpu0_STLB PREFETCH  ACCESS:          0  HIT:          0  MISS:          0
cpu0_STLB WRITEBACK ACCESS:          0  HIT:          0  MISS:          0
cpu0_L1D TOTAL     ACCESS:   25431099  HIT:   25101068  MISS:     330031
cpu0_L1D LOAD      ACCESS:   22707814  HIT:   22380619  MISS:     327195
cpu0_L1D RFO       ACCESS:    2719227  HIT:    2719227  MISS:          0
cpu0_L1D PREFETCH  ACCESS:          0  HIT:          0  MISS:          0
cpu0_L1D WRITEBACK ACCESS:          0  HIT:          0  MISS:          0
cpu0_L2C TOTAL     ACCESS:     501997  HIT:     162019  MISS:     339978
cpu0_L2C LOAD      ACCESS:     327195  HIT:       3374  MISS:     323821
cpu0_L2C RFO       ACCESS:          0  HIT:          0  MISS:          0
cpu0_L2C PREFETCH  ACCESS:          0  HIT:          0  MISS:          0
cpu0_L2C WRITEBACK ACCESS:     171966  HIT:     156649  MISS:      15317
LLC TOTAL     ACCESS:     496617  HIT:     210103  MISS:     286514
LLC LOAD      ACCESS:     323821  HIT:      37323  MISS:     286498
LLC RFO       ACCESS:          0  HIT:          0  MISS:          0
LLC PREFETCH  ACCESS:          0  HIT:          0  MISS:          0
LLC WRITEBACK ACCESS:     171956  HIT:     171943  MISS:         13
Heartbeat CPU 0 instructions: 98000000 cycles: 93443993 heartbeat IPC: 0.737319 cumulative IPC: 0.738229 (Simulation time: 3 hr 9 min 25 sec) 

Region of Interest Statistics
cpu0_DTLB TOTAL     ACCESS:   22760430  HIT:   22453497  MISS:     306933
cpu0_DTLB LOAD      ACCESS:   20885694  HIT:   20721927  MISS:     163767
cpu0_DTLB RFO       ACCESS:    1874736  HIT:    1731570  MISS:     143166
cpu0_DTLB PREFETCH  ACCESS:          0  HIT:          0  MISS:          0
cpu0_DTLB WRITEBACK ACCESS:          0  HIT:          0  MISS:          0
cpu0_ITLB TOTAL     ACCESS:     828242  HIT:     828242  MISS:          0
cpu0_ITLB LOAD      ACCESS:     828242  HIT:     828242  MISS:          0
cpu0_ITLB RFO       ACCESS:          0  HIT:          0  MISS:          0
cpu0_ITLB PREFETCH  ACCESS:          0  HIT:          0  MISS:          0
cpu0_ITLB WRITEBACK ACCESS:          0  HIT:          0  MISS:          0
cpu0_L1I TOTAL     ACCESS:    5318909  HIT:    5318909  MISS:          0
cpu0_L1I LOAD      ACCESS:    5318909  HIT:    5318909  MISS:          0
cpu0_L1I RFO       ACCESS:          0  HIT:          0  MISS:          0
cpu0_L1I PREFETCH  ACCESS:          0  HIT:          0  MISS:          0
cpu0_L1I WRITEBACK ACCESS:          0  HIT:          0  MISS:          0
cpu0_STLB TOTAL     ACCESS:     306933  HIT:     302430  MISS:       4503
cpu0_STLB LOAD      ACCESS:     163767  HIT:     159264  MISS:       4503
cpu0_STLB RFO       ACCESS:     143166  HIT:     143166  MISS:          0
cpu0_STLB PREFETCH  ACCESS:          0  HIT:          0  MISS:          0
cpu0_STLB WRITEBACK ACCESS:          0  HIT:          0  MISS:          0
cpu0_L1D TOTAL     ACCESS:   26537821  HIT:   26193534  MISS:     344287
cpu0_L1D LOAD      ACCESS:   23696113  HIT:   23354778  MISS:     341335
cpu0_L1D RFO       ACCESS:    2837474  HIT:    2837474  MISS:          0
cpu0_L1D PREFETCH  ACCESS:          0  HIT:          0  MISS:          0
cpu0_L1D WRITEBACK ACCESS:          0  HIT:          0  MISS:          0
cpu0_L2C TOTAL     ACCESS:     523710  HIT:     168894  MISS:     354816
cpu0_L2C LOAD      ACCESS:     341335  HIT:       3455  MISS:     337880
cpu0_L2C RFO       ACCESS:          0  HIT:          0  MISS:          0
cpu0_L2C PREFETCH  ACCESS:          0  HIT:          0  MISS:          0
cpu0_L2C WRITEBACK ACCESS:     179423  HIT:     163361  MISS:      16062
LLC TOTAL     ACCESS:     518148  HIT:     219312  MISS:     298836
LLC LOAD      ACCESS:     337880  HIT:      39060  MISS:     298820
LLC RFO       ACCESS:          0  HIT:          0  MISS:          0
LLC PREFETCH  ACCESS:          0  HIT:          0  MISS:          0
LLC WRITEBACK ACCESS:     179394  HIT:     179381  MISS:         13
Heartbeat CPU 0 instructions: 100000002 cycles: 96133645 heartbeat IPC: 0.743591 cumulative IPC: 0.738442 (Simulation time: 3 hr 13 min 57 sec) 

Region of Interest Statistics
cpu0_DTLB TOTAL     ACCESS:   23707234  HIT:   23396739  MISS:     310495
cpu0_DTLB LOAD      ACCESS:   21754114  HIT:   21588166  MISS:     165948
cpu0_DTLB RFO       ACCESS:    1953120  HIT:    1808573  MISS:     144547
cpu0_DTLB PREFETCH  ACCESS:          0  HIT:          0  MISS:          0
cpu0_DTLB WRITEBACK ACCESS:          0  HIT:          0  MISS:          0
cpu0_ITLB TOTAL     ACCESS:     862751  HIT:     862751  MISS:          0
cpu0_ITLB LOAD      ACCESS:     862751  HIT:     862751  MISS:          0
cpu0_ITLB RFO       ACCESS:          0  HIT:          0  MISS:          0
cpu0_ITLB PREFETCH  ACCESS:          0  HIT:          0  MISS:          0
cpu0_ITLB WRITEBACK ACCESS:          0  HIT:          0  MISS:          0
cpu0_L1I TOTAL     ACCESS:    5539366  HIT:    5539366  MISS:          0
cpu0_L1I LOAD      ACCESS:    5539366  HIT:    5539366  MISS:          0
cpu0_L1I RFO       ACCESS:          0  HIT:          0  MISS:          0
cpu0_L1I PREFETCH  ACCESS:          0  HIT:          0  MISS:          0
cpu0_L1I WRITEBACK ACCESS:          0  HIT:          0  MISS:          0
cpu0_STLB TOTAL     ACCESS:     310495  HIT:     305806  MISS:       4689
cpu0_STLB LOAD      ACCESS:     165948  HIT:     161259  MISS:       4689
cpu0_STLB RFO       ACCESS:     144547  HIT:     144547  MISS:          0
cpu0_STLB PREFETCH  ACCESS:          0  HIT:          0  MISS:          0
cpu0_STLB WRITEBACK ACCESS:          0  HIT:          0  MISS:          0
cpu0_L1D TOTAL     ACCESS:   27641444  HIT:   27283173  MISS:     358271
cpu0_L1D LOAD      ACCESS:   24681349  HIT:   24326159  MISS:     355190
cpu0_L1D RFO       ACCESS:    2955689  HIT:    2955689  MISS:          0
cpu0_L1D PREFETCH  ACCESS:          0  HIT:          0  MISS:          0
cpu0_L1D WRITEBACK ACCESS:          0  HIT:          0  MISS:          0
cpu0_L2C TOTAL     ACCESS:     545171  HIT:     175570  MISS:     369601
cpu0_L2C LOAD      ACCESS:     355190  HIT:       3458  MISS:     351732
cpu0_L2C RFO       ACCESS:          0  HIT:          0  MISS:          0
cpu0_L2C PREFETCH  ACCESS:          0  HIT:          0  MISS:          0
cpu0_L2C WRITEBACK ACCESS:     186900  HIT:     169937  MISS:      16963
LLC TOTAL     ACCESS:     539464  HIT:     228200  MISS:     311264
LLC LOAD      ACCESS:     351732  HIT:      40484  MISS:     311248
LLC RFO       ACCESS:          0  HIT:          0  MISS:          0
LLC PREFETCH  ACCESS:          0  HIT:          0  MISS:          0
LLC WRITEBACK ACCESS:     186826  HIT:     186813  MISS:         13
Heartbeat CPU 0 instructions: 102000003 cycles: 98895599 heartbeat IPC: 0.724125 cumulative IPC: 0.737881 (Simulation time: 3 hr 18 min 31 sec) 

Region of Interest Statistics
cpu0_DTLB TOTAL     ACCESS:   24651602  HIT:   24313420  MISS:     338182
cpu0_DTLB LOAD      ACCESS:   22620442  HIT:   22437101  MISS:     183341
cpu0_DTLB RFO       ACCESS:    2031160  HIT:    1876319  MISS:     154841
cpu0_DTLB PREFETCH  ACCESS:          0  HIT:          0  MISS:          0
cpu0_DTLB WRITEBACK ACCESS:          0  HIT:          0  MISS:          0
cpu0_ITLB TOTAL     ACCESS:     897263  HIT:     897263  MISS:          0
cpu0_ITLB LOAD      ACCESS:     897263  HIT:     897263  MISS:          0
cpu0_ITLB RFO       ACCESS:          0  HIT:          0  MISS:          0
cpu0_ITLB PREFETCH  ACCESS:          0  HIT:          0  MISS:          0
cpu0_ITLB WRITEBACK ACCESS:          0  HIT:          0  MISS:          0
cpu0_L1I TOTAL     ACCESS:    5761749  HIT:    5761749  MISS:          0
cpu0_L1I LOAD      ACCESS:    5761749  HIT:    5761749  MISS:          0
cpu0_L1I RFO       ACCESS:          0  HIT:          0  MISS:          0
cpu0_L1I PREFETCH  ACCESS:          0  HIT:          0  MISS:          0
cpu0_L1I WRITEBACK ACCESS:          0  HIT:          0  MISS:          0
cpu0_STLB TOTAL     ACCESS:     338182  HIT:     333307  MISS:       4875
cpu0_STLB LOAD      ACCESS:     183341  HIT:     178466  MISS:       4875
cpu0_STLB RFO       ACCESS:     154841  HIT:     154841  MISS:          0
cpu0_STLB PREFETCH  ACCESS:          0  HIT:          0  MISS:          0
cpu0_STLB WRITEBACK ACCESS:          0  HIT:          0  MISS:          0
cpu0_L1D TOTAL     ACCESS:   28747610  HIT:   28375355  MISS:     372255
cpu0_L1D LOAD      ACCESS:   25669108  HIT:   25300058  MISS:     369050
cpu0_L1D RFO       ACCESS:    3073919  HIT:    3073919  MISS:          0
cpu0_L1D PREFETCH  ACCESS:          0  HIT:          0  MISS:          0
cpu0_L1D WRITEBACK ACCESS:          0  HIT:          0  MISS:          0
cpu0_L2C TOTAL     ACCESS:     566665  HIT:     182742  MISS:     383923
cpu0_L2C LOAD      ACCESS:     369050  HIT:       3502  MISS:     365548
cpu0_L2C RFO       ACCESS:          0  HIT:          0  MISS:          0
cpu0_L2C PREFETCH  ACCESS:          0  HIT:          0  MISS:          0
cpu0_L2C WRITEBACK ACCESS:     194410  HIT:     176971  MISS:      17439
LLC TOTAL     ACCESS:     560828  HIT:     237031  MISS:     323797
LLC LOAD      ACCESS:     365548  HIT:      41767  MISS:     323781
LLC RFO       ACCESS:          0  HIT:          0  MISS:          0
LLC PREFETCH  ACCESS:          0  HIT:          0  MISS:          0
LLC WRITEBACK ACCESS:     194344  HIT:     194331  MISS:         13
Heartbeat CPU 0 instructions: 104000003 cycles: 101629739 heartbeat IPC: 0.731491 cumulative IPC: 0.737642 (Simulation time: 3 hr 22 min 59 sec) 

Region of Interest Statistics
cpu0_DTLB TOTAL     ACCESS:   25602659  HIT:   25247914  MISS:     354745
cpu0_DTLB LOAD      ACCESS:   23493783  HIT:   23301186  MISS:     192597
cpu0_DTLB RFO       ACCESS:    2108876  HIT:    1946728  MISS:     162148
cpu0_DTLB PREFETCH  ACCESS:          0  HIT:          0  MISS:          0
cpu0_DTLB WRITEBACK ACCESS:          0  HIT:          0  MISS:          0
cpu0_ITLB TOTAL     ACCESS:     931769  HIT:     931769  MISS:          0
cpu0_ITLB LOAD      ACCESS:     931769  HIT:     931769  MISS:          0
cpu0_ITLB RFO       ACCESS:          0  HIT:          0  MISS:          0
cpu0_ITLB PREFETCH  ACCESS:          0  HIT:          0  MISS:          0
cpu0_ITLB WRITEBACK ACCESS:          0  HIT:          0  MISS:          0
cpu0_L1I TOTAL     ACCESS:    5984119  HIT:    5984119  MISS:          0
cpu0_L1I LOAD      ACCESS:    5984119  HIT:    5984119  MISS:          0
cpu0_L1I RFO       ACCESS:          0  HIT:          0  MISS:          0
cpu0_L1I PREFETCH  ACCESS:          0  HIT:          0  MISS:          0
cpu0_L1I WRITEBACK ACCESS:          0  HIT:          0  MISS:          0
cpu0_STLB TOTAL     ACCESS:     354745  HIT:     349684  MISS:       5061
cpu0_STLB LOAD      ACCESS:     192597  HIT:     187536  MISS:       5061
cpu0_STLB RFO       ACCESS:     162148  HIT:     162148  MISS:          0
cpu0_STLB PREFETCH  ACCESS:          0  HIT:          0  MISS:          0
cpu0_STLB WRITEBACK ACCESS:          0  HIT:          0  MISS:          0
cpu0_L1D TOTAL     ACCESS:   29854604  HIT:   29468308  MISS:     386296
cpu0_L1D LOAD      ACCESS:   26657714  HIT:   26274749  MISS:     382965
cpu0_L1D RFO       ACCESS:    3192135  HIT:    3192135  MISS:          0
cpu0_L1D PREFETCH  ACCESS:          0  HIT:          0  MISS:          0
cpu0_L1D WRITEBACK ACCESS:          0  HIT:          0  MISS:          0
cpu0_L2C TOTAL     ACCESS:     588153  HIT:     190000  MISS:     398153
cpu0_L2C LOAD      ACCESS:     382965  HIT:       3575  MISS:     379390
cpu0_L2C RFO       ACCESS:          0  HIT:          0  MISS:          0
cpu0_L2C PREFETCH  ACCESS:          0  HIT:          0  MISS:          0
cpu0_L2C WRITEBACK ACCESS:     201857  HIT:     184065  MISS:      17792
LLC TOTAL     ACCESS:     582158  HIT:     245865  MISS:     336293
LLC LOAD      ACCESS:     379390  HIT:      43113  MISS:     336277
LLC RFO       ACCESS:          0  HIT:          0  MISS:          0
LLC PREFETCH  ACCESS:          0  HIT:          0  MISS:          0
LLC WRITEBACK ACCESS:     201797  HIT:     201784  MISS:         13
Heartbeat CPU 0 instructions: 106000000 cycles: 104370461 heartbeat IPC: 0.729734 cumulative IPC: 0.737357 (Simulation time: 3 hr 27 min 52 sec) 

Region of Interest Statistics
cpu0_DTLB TOTAL     ACCESS:   26552320  HIT:   26169936  MISS:     382384
cpu0_DTLB LOAD      ACCESS:   24365739  HIT:   24157401  MISS:     208338
cpu0_DTLB RFO       ACCESS:    2186581  HIT:    2012535  MISS:     174046
cpu0_DTLB PREFETCH  ACCESS:          0  HIT:          0  MISS:          0
cpu0_DTLB WRITEBACK ACCESS:          0  HIT:          0  MISS:          0
cpu0_ITLB TOTAL     ACCESS:     966286  HIT:     966286  MISS:          0
cpu0_ITLB LOAD      ACCESS:     966286  HIT:     966286  MISS:          0
cpu0_ITLB RFO       ACCESS:          0  HIT:          0  MISS:          0
cpu0_ITLB PREFETCH  ACCESS:          0  HIT:          0  MISS:          0
cpu0_ITLB WRITEBACK ACCESS:          0  HIT:          0  MISS:          0
cpu0_L1I TOTAL     ACCESS:    6206467  HIT:    6206467  MISS:          0
cpu0_L1I LOAD      ACCESS:    6206467  HIT:    6206467  MISS:          0
cpu0_L1I RFO       ACCESS:          0  HIT:          0  MISS:          0
cpu0_L1I PREFETCH  ACCESS:          0  HIT:          0  MISS:          0
cpu0_L1I WRITEBACK ACCESS:          0  HIT:          0  MISS:          0
cpu0_STLB TOTAL     ACCESS:     382384  HIT:     377135  MISS:       5249
cpu0_STLB LOAD      ACCESS:     208338  HIT:     203089  MISS:       5249
cpu0_STLB RFO       ACCESS:     174046  HIT:     174046  MISS:          0
cpu0_STLB PREFETCH  ACCESS:          0  HIT:          0  MISS:          0
cpu0_STLB WRITEBACK ACCESS:          0  HIT:          0  MISS:          0
cpu0_L1D TOTAL     ACCESS:   30962115  HIT:   30561580  MISS:     400535
cpu0_L1D LOAD      ACCESS:   27646805  HIT:   27249723  MISS:     397082
cpu0_L1D RFO       ACCESS:    3310381  HIT:    3310381  MISS:          0
cpu0_L1D PREFETCH  ACCESS:          0  HIT:          0  MISS:          0
cpu0_L1D WRITEBACK ACCESS:          0  HIT:          0  MISS:          0
cpu0_L2C TOTAL     ACCESS:     609878  HIT:     197112  MISS:     412766
cpu0_L2C LOAD      ACCESS:     397082  HIT:       3658  MISS:     393424
cpu0_L2C RFO       ACCESS:          0  HIT:          0  MISS:          0
cpu0_L2C PREFETCH  ACCESS:          0  HIT:          0  MISS:          0
[...]
LLC TOTAL     ACCESS:   35738671  HIT:   21335716  MISS:   14402955
LLC LOAD      ACCESS:   26966956  HIT:   12586715  MISS:   14380241
LLC RFO       ACCESS:     175339  HIT:     153392  MISS:      21947
LLC PREFETCH  ACCESS:          0  HIT:          0  MISS:          0
LLC WRITEBACK ACCESS:    8541338  HIT:    8541176  MISS:        162
Finished CPU 0 instructions: 1500000000 cycles: 2258698841 cumulative IPC: 0.664099 (Simulation time: 25 hr 56 min 8 sec) 

ChampSim completed all CPUs

Region of Interest Statistics

CPU 0 cumulative IPC: 0.664099 instructions: 1500000000 cycles: 2258698841
cpu0_DTLB TOTAL     ACCESS:  575103029  HIT:  565261800  MISS:    9841229
cpu0_DTLB LOAD      ACCESS:  514660095  HIT:  506354143  MISS:    8305952
cpu0_DTLB RFO       ACCESS:   60442934  HIT:   58907657  MISS:    1535277
cpu0_DTLB PREFETCH  ACCESS:          0  HIT:          0  MISS:          0
cpu0_DTLB WRITEBACK ACCESS:          0  HIT:          0  MISS:          0
cpu0_DTLB TRANSLATION ACCESS:          0  HIT:          0  MISS:          0
cpu0_DTLB PREFETCH  REQUESTED:          0  ISSUED:          0  USEFUL:          0  USELESS:          0
cpu0_DTLB AVERAGE MISS LATENCY: 15.4921 cycles
cpu0_ITLB TOTAL     ACCESS:   23547467  HIT:   23547434  MISS:         33
cpu0_ITLB LOAD      ACCESS:   23547467  HIT:   23547434  MISS:         33
cpu0_ITLB RFO       ACCESS:          0  HIT:          0  MISS:          0
cpu0_ITLB PREFETCH  ACCESS:          0  HIT:          0  MISS:          0
cpu0_ITLB WRITEBACK ACCESS:          0  HIT:          0  MISS:          0
cpu0_ITLB TRANSLATION ACCESS:          0  HIT:          0  MISS:          0
cpu0_ITLB PREFETCH  REQUESTED:          0  ISSUED:          0  USEFUL:          0  USELESS:          0
cpu0_ITLB AVERAGE MISS LATENCY: 248.333 cycles
cpu0_L1I TOTAL     ACCESS:  113983686  HIT:  113982796  MISS:        890
cpu0_L1I LOAD      ACCESS:  113983686  HIT:  113982796  MISS:        890
cpu0_L1I RFO       ACCESS:          0  HIT:          0  MISS:          0
cpu0_L1I PREFETCH  ACCESS:          0  HIT:          0  MISS:          0
cpu0_L1I WRITEBACK ACCESS:          0  HIT:          0  MISS:          0
cpu0_L1I TRANSLATION ACCESS:          0  HIT:          0  MISS:          0
cpu0_L1I PREFETCH  REQUESTED:          0  ISSUED:          0  USEFUL:          0  USELESS:          0
cpu0_L1I AVERAGE MISS LATENCY: 331.755 cycles
cpu0_STLB TOTAL     ACCESS:    9841262  HIT:    8811952  MISS:    1029310
cpu0_STLB LOAD      ACCESS:    8305985  HIT:    7279277  MISS:    1026708
cpu0_STLB RFO       ACCESS:    1535277  HIT:    1532675  MISS:       2602
cpu0_STLB PREFETCH  ACCESS:          0  HIT:          0  MISS:          0
cpu0_STLB WRITEBACK ACCESS:          0  HIT:          0  MISS:          0
cpu0_STLB TRANSLATION ACCESS:          0  HIT:          0  MISS:          0
cpu0_STLB PREFETCH  REQUESTED:          0  ISSUED:          0  USEFUL:          0  USELESS:          0
cpu0_STLB AVERAGE MISS LATENCY: 62.0029 cycles
cpu0_L1D TOTAL     ACCESS:  642351434  HIT:  615069124  MISS:   27282310
cpu0_L1D LOAD      ACCESS:  550066891  HIT:  523036150  MISS:   27030741
cpu0_L1D RFO       ACCESS:   91295737  HIT:   91120398  MISS:     175339
cpu0_L1D PREFETCH  ACCESS:          0  HIT:          0  MISS:          0
cpu0_L1D WRITEBACK ACCESS:          0  HIT:          0  MISS:          0
cpu0_L1D TRANSLATION ACCESS:     988806  HIT:     912576  MISS:      76230
cpu0_L1D PREFETCH  REQUESTED:          0  ISSUED:          0  USEFUL:          0  USELESS:          0
cpu0_L1D AVERAGE MISS LATENCY: 249.831 cycles
cpu0_L2C TOTAL     ACCESS:   35826988  HIT:    6561103  MISS:   29265885
cpu0_L2C LOAD      ACCESS:   27031631  HIT:      64649  MISS:   26966982
cpu0_L2C RFO       ACCESS:     175339  HIT:          0  MISS:     175339
cpu0_L2C PREFETCH  ACCESS:          0  HIT:          0  MISS:          0
cpu0_L2C WRITEBACK ACCESS:    8543788  HIT:    6475262  MISS:    2068526
cpu0_L2C TRANSLATION ACCESS:      76230  HIT:      21192  MISS:      55038
cpu0_L2C PREFETCH  REQUESTED:          0  ISSUED:          0  USEFUL:          0  USELESS:          0
cpu0_L2C AVERAGE MISS LATENCY: 222.629 cycles
LLC TOTAL     ACCESS:   35738671  HIT:   21335716  MISS:   14402955
LLC LOAD      ACCESS:   26966956  HIT:   12586715  MISS:   14380241
LLC RFO       ACCESS:     175339  HIT:     153392  MISS:      21947
LLC PREFETCH  ACCESS:          0  HIT:          0  MISS:          0
LLC WRITEBACK ACCESS:    8541338  HIT:    8541176  MISS:        162
LLC TRANSLATION ACCESS:      55038  HIT:      54433  MISS:        605
LLC PREFETCH  REQUESTED:          0  ISSUED:          0  USEFUL:          0  USELESS:          0
LLC AVERAGE MISS LATENCY: 412.709 cycles
~~~~~~~~~~Reuse Distance Profiler output~~~~~~~~~~
0	25713136	2932656
1	10469440	6825984
2	10921024	9086944
3	15294688	13124112
4	15589808	13216560
5	18436880	15175760
6	24572288	19108112
7	26718704	20867248
8	24007536	19051120
9	22939520	19322848
10	20169824	18446160
11	16241536	15000032
12	15299616	14250496
13	14611872	13766576
14	14177840	13600304
15	12401552	11743696
16	10407776	9894160
17	8679296	8166864
18	8280960	7837952
19	8315168	7842320
20	7256960	6818896
21	6693024	6206864
22	6003296	5552400
23	6827280	6121632
24	5834720	5236656
25	4859456	4404880
26	4778144	4378576
27	4691248	4328800
28	4600640	4235120
29	4614992	4291472
30	4520880	4202048
31	4319776	4011808
32	3990448	3630304
33	3970192	3559008
34	3728656	3318256
35	3514592	3109088
36	3262960	2801424
37	3120832	2719552
38	3007312	2614000
39	2947568	2529728
40	2910976	2480496
41	2641808	2265040
42	2684544	2210896
43	2444000	2028608
44	2199616	1766160
45	2197008	1763376
46	2098192	1727264
47	2069024	1705376
48	2024352	1674352
49	2139856	1768640
50	2060608	1684832
51	2074832	1718672
52	2212736	1868192
53	2217312	1885392
54	2297872	1994048
55	2287680	2012032
56	2318896	2042672
57	2310176	2058528
58	2316880	2081728
59	2317328	2111536
60	2246048	2043248
61	2294816	2107200
62	2081408	1930608
63	2119952	1952880
64	4196064	3900624
66	4182752	3865136
68	4092192	3773584
70	4036128	3757088
72	4089184	3793616
74	4164064	3849568
76	4334448	3987232
78	4244016	3996816
80	4272864	4018064
82	4474608	4230688
84	4536832	4266288
86	4458128	4147328
88	4393888	4109504
90	4565840	4295696
92	4650320	4349744
94	4911872	4588112
96	5201968	4786752
98	5556336	5042256
100	6052128	5422352
102	6596128	5780080
104	6846576	6023952
106	6356368	5508576
108	6007456	5135216
110	5625984	4848944
112	4991104	4295936
114	4312144	3757840
116	3345344	2970384
118	2780896	2480768
120	2220256	1990768
122	1682176	1522928
124	1356496	1219056
126	1201184	1038960
128	2143840	1906288
132	1734656	1546576
136	1437824	1310848
140	1384816	1298688
144	1303552	1260368
148	1194976	1163600
152	1145312	1123248
156	1056000	1023408
160	966656	950048
164	906384	879664
168	878176	866992
172	814144	801040
176	841456	783712
180	789504	736512
184	720432	683840
188	689920	679360
192	628656	625760
196	633472	631696
200	597584	597280
204	562384	562192
208	590064	590032
212	530592	530480
216	442960	442752
220	358192	358176
224	292880	292864
228	258304	258256
232	208272	208272
236	164128	164112
240	140688	140624
244	112928	112896
248	86384	86352
252	65632	65632
256	77808	77808
264	45904	45904
272	34800	34800
280	21888	21888
288	17200	17200
296	8080	8080
304	3664	3664
312	720	720
320	656	656
328	432	432
336	496	496
344	176	176
352	32	32
360	48	48
368	0	0
376	0	0
384	16	16
392	16	16
400	48	48
408	1024	1024
416	304	304
424	1808	1808
432	5120	5120
440	6304	6304
448	8544	8544
456	14032	14032
464	18144	18144
472	23872	23872
480	21088	21088
488	13568	13568
496	8704	8704
504	7280	7280
512	15632	15632
528	28992	28992
544	66288	66288
560	75728	75728
576	42944	42944
592	40528	40528
608	29136	29136
624	10608	10608
640	7344	7344
656	19152	19152
672	34256	34256
688	25552	25552
704	12336	12336
720	11040	11040
736	5360	5360
752	8480	8480
768	10304	10304
784	16928	16928
800	47168	47168
816	27344	27344
832	35728	35728
848	53344	53344
864	26032	26032
880	27952	27952
896	21072	21072
912	9120	9120
928	16016	16016
944	15824	15824
960	12048	12048
976	10048	10048
992	12784	12784
1008	9744	9744
1024	30112	30112
1056	109120	109120
1088	80064	80064
1120	42592	42592
1152	26688	26688
1184	27152	27152
1216	40912	40912
1248	76176	76176
1280	160896	160896
1312	93808	93808
1344	102672	102672
1376	353216	353216
1408	252000	251920
1440	9136	8976
1472	336	336
1504	48	48
1536	0	0
1568	16	16
1600	32	32
1632	384	384
1664	1280	1280
1696	4512	4512
1728	19168	19168
1760	39184	39184
1792	52112	52112
1824	84016	84016
1856	161520	161520
1888	374208	374208
1920	460624	460624
1952	377008	377008
1984	230080	230080
2016	194384	194384
2048	436464	436464
2112	149616	149616
2176	26992	26992
2240	144	144
2304	0	0
2368	0	0
2432	0	0
2496	0	0
2560	0	0
2624	0	0
2688	0	0
2752	0	0
2816	0	0
2880	0	0
2944	0	0
3008	0	0
3072	0	0
3136	0	0
3200	0	0
3264	0	0
3328	0	0
3392	0	0
3456	0	0
3520	0	0
3584	0	0
3648	0	0
3712	0	0
3776	0	0
3840	0	0
3904	0	0
3968	0	0
4032	0	0
4096	0	0
4224	0	0
4352	0	0
4480	3632	3632
4608	5360	5360
4736	0	0
4864	0	0
4992	16	16
5120	0	0
5248	0	0
5376	0	0
5504	144	144
5632	0	0
5760	16	0
5888	0	0
6016	0	0
6144	16	16
6272	1136	1136
6400	8560	8544
6528	22880	22864
6656	16704	16672
6784	8480	8480
6912	4176	4176
7040	3792	3792
7168	1840	1840
7296	704	704
7424	240	224
7552	304	288
7680	240	224
7808	144	144
7936	592	592
8064	8288	8272
8192	26064	26032
8448	22400	22384
8704	32	16
8960	16	16
9216	16	16
9472	0	0
9728	16	0
9984	16	0
10240	32	32
10496	32	16
10752	32	16
11008	16	0
11264	16	0
11520	0	0
11776	32	16
12032	32	16
12288	32	0
12544	32	0
12800	16	0
13056	16	16
13312	16	0
13568	32	16
13824	48	32
14080	32	16
14336	0	0
14592	64	32
14848	16	0
15104	48	16
15360	16	0
15616	16	16
15872	32	32
16128	16	0
16384	64	16
16896	32	16
17408	64	32
17920	80	48
18432	48	0
18944	32	0
19456	64	16
19968	16	16
20480	48	0
20992	2512	2448
21504	57904	57888
22016	476016	476016
22528	971344	971232
23040	242320	242320
23552	54576	54544
24064	2640	2608
24576	368	320
25088	128	64
25600	48	16
26112	32	0
26624	48	0
27136	16	16
27648	80	16
28160	48	0
28672	16	0
29184	64	16
29696	16	0
30208	241104	241024
30720	1595200	1594784
31232	833776	833216
31744	2812800	2812272
32256	921600	920928
32768	7312	6240
33792	1408	48
34816	1248	80
35840	1088	64
36864	1040	0
37888	992	48
38912	1040	64
39936	1264	144
40960	2193296	2192288
41984	625296	624272
43008	1072	80
44032	976	32
45056	1296	112
46080	1264	48
47104	1024	96
48128	1296	112
49152	1200	112
50176	1392	80
51200	976	48
52224	1008	48
53248	1024	64
54272	1184	96
55296	992	112
56320	1008	48
57344	1088	80
58368	1008	16
59392	1440	112
60416	1152	128
61440	832	80
62464	1168	48
63488	1088	80
64512	1264	32
65536	2160	80
67584	2400	144
69632	2640	224
71680	2272	304
73728	1920	400
75776	960	304
77824	1056	416
79872	832	128
81920	960	288
83968	864	96
86016	960	240
88064	816	128
90112	1008	304
92160	1680	1024
94208	1408	928
96256	960	240
98304	1040	192
100352	1232	416
102400	1072	336
104448	800	144
106496	640	32
108544	656	208
110592	752	352
112640	624	336
114688	208	128
116736	384	176
118784	400	208
120832	544	176
122880	352	112
124928	384	256
126976	688	352
129024	608	256
131072	1216	960
135168	1200	896
139264	1392	1008
143360	624	384
147456	816	496
151552	992	576
155648	976	352
159744	1264	560
163840	1472	896
167936	656	304
172032	1120	800
176128	1072	656
180224	1168	656
184320	2384	2096
188416	1504	912
192512	1008	240
196608	576	288
200704	944	336
204800	1504	912
208896	976	464
212992	1184	272
217088	976	352
221184	1456	560
225280	992	704
229376	704	416
233472	1488	912
237568	1200	432
241664	1392	1088
245760	8048	7744
249856	14160	13904
253952	54656	54272
258048	71232	70624
262144	1392	800
270336	50752	49744
278528	128992	128048
286720	1600	640
294912	2384	1728
303104	1568	912
311296	30320	29104
319488	291792	291136
327680	262448	261104
335872	1936	944
344064	2656	1376
352256	1536	960
360448	1872	1168
368640	1712	912
376832	1632	1008
385024	2288	1184
393216	2160	1040
401408	4112	2992
409600	6656	5776
417792	87248	86384
425984	2291456	2290016
434176	1360	592
442368	1792	736
450560	2064	1184
458752	2288	752
466944	1760	1056
475136	2048	1472
483328	1600	1056
491520	1472	864
499712	3200	2144
507904	2320	1072
516096	2512	1504
524288	3600	1808
540672	4144	1872
557056	3904	1632
573440	4048	2080
589824	3456	1824
606208	4272	2304
622592	4736	2992
638976	3984	2112
655360	4080	2144
671744	4256	1968
688128	4320	2080
704512	3792	1920
720896	4032	2208
737280	3920	2016
753664	4336	2464
770048	3888	1984
786432	3824	2016
802816	4496	2336
819200	3808	1856
835584	4416	2544
851968	3696	1888
868352	3904	1952
884736	3200	1472
901120	1136	208
917504	880	80
933888	736	16
950272	512	48
966656	352	32
983040	48	48
999424	96	64
1015808	32	32
1032192	16	16
1048576	32	16
1081344	0	0
1114112	32	32
1146880	0	0
1179648	16	16
1212416	16	16
1245184	0	0
1277952	32	32
1310720	0	0
1343488	0	0
1376256	0	0
1409024	6096	6096
1441792	32	32
1474560	32	32
1507328	96	96
1540096	64	64
1572864	144	144
1605632	80	80
1638400	32	32
1671168	48	48
1703936	64	64
1736704	80	80
1769472	80	80
1802240	80	80
1835008	16	16
1867776	96	96
1900544	16	16
1933312	240	240
1966080	96	96
1998848	208	192
2031616	32	32
2064384	192	192
2097152	128	128
2162688	80	80
2228224	112	112
2293760	192	192
2359296	304	304
2424832	512	512
2490368	416	416
2555904	256	256
2621440	272	272
2686976	208	208
2752512	144	144
2818048	336	336
2883584	224	224
2949120	192	192
3014656	336	336
3080192	864	864
3145728	288	288
3211264	240	240
3276800	336	336
3342336	208	208
3407872	224	224
3473408	240	240
3538944	368	368
3604480	384	384
3670016	272	272
3735552	368	368
3801088	304	304
3866624	192	192
3932160	272	272
3997696	352	352
4063232	256	256
4128768	224	224
4194304	1376	1376
4325376	704	704
4456448	528	528
4587520	1792	1792
4718592	2064	2064
4849664	216544	216544
4980736	24080	24080
5111808	4128	4128
5242880	7968	7968
5373952	3552	3552
5505024	6544	6544
5636096	624	608
5767168	1104	1104
5898240	1136	1136
6029312	784	784
6160384	880	880
6291456	912	912
6422528	960	960
6553600	688	688
6684672	480	480
6815744	3008	3008
6946816	3744	3744
7077888	736	736
7208960	5200	5200
7340032	672	672
7471104	1504	1504
7602176	416	416
7733248	480	480
7864320	800	800
7995392	768	768
8126464	736	736
8257536	656	656
8388608	1296	1296
8650752	1488	1488
8912896	1536	1536
9175040	1504	1504
9437184	1216	1216
9699328	1744	1744
9961472	2416	2416
10223616	2016	2016
10485760	2064	2064
10747904	1792	1792
11010048	1824	1824
11272192	2240	2240
11534336	2432	2432
11796480	1632	1632
12058624	1872	1872
12320768	2016	2016
12582912	2256	2256
12845056	2032	2032
13107200	1920	1920
13369344	2032	2032
13631488	1824	1824
13893632	2016	2016
14155776	1776	1776
14417920	1792	1792
14680064	1792	1792
14942208	1968	1968
15204352	2400	2400
15466496	1552	1552
15728640	1552	1552
15990784	1152	1152
16252928	1296	1296
16515072	1632	1632
16777216	5600	5600
17301504	4032	4032
17825792	3872	3872
18350080	4096	4096
18874368	3984	3984
19398656	4176	4176
19922944	3584	3584
20447232	4416	4416
20971520	3088	3088
21495808	2304	2304
22020096	1824	1824
22544384	2128	2128
23068672	1424	1424
23592960	1744	1744
24117248	1872	1872
24641536	1312	1312
25165824	1232	1232
25690112	1648	1648
26214400	2160	2160
26738688	1696	1696
27262976	1600	1600
27787264	2016	2016
28311552	1728	1728
28835840	1376	1376
29360128	1904	1904
29884416	1504	1504
30408704	2064	2064
30932992	1872	1872
31457280	1728	1728
31981568	1840	1840
32505856	1680	1680
33030144	1440	1440
33554432	3120	3120
34603008	4064	4064
35651584	4352	4352
36700160	4112	4112
37748736	995312	995312
38797312	5584	5584
39845888	5984	5984
40894464	6320	6320
41943040	6576	6576
42991616	6928	6928
44040192	6912	6912
45088768	7040	7040
46137344	6864	6864
47185920	6768	6768
48234496	7280	7280
49283072	7120	7120
50331648	6768	6768
51380224	6192	6192
52428800	6512	6512
53477376	7680	7680
54525952	10496	10496
55574528	10432	10432
56623104	10384	10384
57671680	7040	7040
58720256	6752	6752
59768832	7088	7088
60817408	6704	6704
61865984	6832	6832
62914560	6992	6976
63963136	6512	6512
65011712	6672	6672
66060288	7088	7088
67108864	15488	15488
69206016	16320	16320
71303168	16640	16640
73400320	33328	33328
75497472	34048	34048
77594624	292720	292720
79691776	31904	31904
81788928	32336	32336
83886080	34800	34800
85983232	32256	32256
88080384	33728	33728
90177536	34736	34736
92274688	30704	30704
94371840	10208	10208
96468992	11408	11408
98566144	8912	8912
100663296	8128	8128
102760448	7904	7904
104857600	7312	7312
106954752	7552	7552
109051904	7568	7568
111149056	6368	6368
113246208	5072	5072
115343360	3712	3712
117440512	2608	2608
119537664	1136	1136
121634816	176	176
123731968	272	272
125829120	336	336
127926272	256	256
130023424	176	176
132120576	384	384
134217728	4736	4736
138412032	5760	5760
142606336	5600	5600
146800640	5936	5936
150994944	41200	41184
155189248	51728	51728
159383552	48048	48048
163577856	47792	47792
167772160	51344	51328
171966464	20688	20688
176160768	6240	6240
180355072	6192	6192
184549376	6544	6544
188743680	7808	7808
192937984	8768	8768
197132288	9504	9504
201326592	8880	8880
205520896	6400	6400
209715200	6480	6480
213909504	11488	11488
218103808	11936	11936
222298112	27360	27360
226492416	18432	18432
230686720	8400	8400
234881024	10160	10160
239075328	13840	13840
243269632	7808	7792
247463936	2688	2688
251658240	320	320
255852544	304	304
260046848	160	160
264241152	336	336
268435456	640	640
276824064	576	576
285212672	1536	1536
293601280	3536	3536
301989888	11936	11936
310378496	16512	16512
318767104	1840	1840
327155712	3280	3280
335544320	4832	4832
343932928	4384	4384
352321536	4576	4576
360710144	4544	4544
369098752	8320	8320
377487360	1520	1520
385875968	512	512
394264576	880	880
402653184	1760	1760
411041792	3936	3936
419430400	3472	3472
427819008	4048	4048
436207616	3824	3824
444596224	7648	7648
452984832	1872	1872
461373440	240	240
469762048	0	0
478150656	224	224
486539264	400	400
494927872	448	448
503316480	320	320
511705088	496	496
520093696	3760	3760
528482304	464	464
536870912	0	0
553648128	0	0
570425344	0	0
587202560	944	944
603979776	0	0
620756992	0	0
637534208	0	0
654311424	41952	41952
671088640	0	0
687865856	0	0
704643072	0	0
721420288	0	0
738197504	0	0
754974720	0	0
771751936	0	0
788529152	0	0
805306368	0	0
822083584	0	0
838860800	0	0
855638016	0	0
872415232	0	0
889192448	0	0
905969664	0	0
922746880	0	0
939524096	0	0
956301312	0	0
973078528	0	0
989855744	0	0
1006632960	0	0
1023410176	0	0
1040187392	0	0
1056964608	0	0
1073741824	0	0
1107296256	0	0
1140850688	0	0
1174405120	0	0
1207959552	0	0
1241513984	0	0
1275068416	0	0
1308622848	0	0
1342177280	0	0
1375731712	0	0
1409286144	0	0
1442840576	0	0
1476395008	0	0
1509949440	0	0
1543503872	0	0
1577058304	0	0
1610612736	0	0
1644167168	0	0
1677721600	0	0
1711276032	0	0
1744830464	0	0
1778384896	0	0
1811939328	0	0
1845493760	0	0
1879048192	0	0
1912602624	0	0
1946157056	0	0
1979711488	0	0
2013265920	0	0
2046820352	0	0
2080374784	0	0
2113929216	0	0
2147483648	0	0
2214592512	0	0
2281701376	0	0
2348810240	0	0
2415919104	0	0
2483027968	0	0
2550136832	0	0
2617245696	0	0
2684354560	0	0
2751463424	0	0
2818572288	0	0
2885681152	0	0
2952790016	0	0
3019898880	0	0
3087007744	0	0
3154116608	0	0
3221225472	0	0
3288334336	0	0
3355443200	0	0
3422552064	0	0
3489660928	0	0
3556769792	0	0
3623878656	0	0
3690987520	0	0
3758096384	0	0
3825205248	0	0
3892314112	0	0
3959422976	0	0
4026531840	0	0
4093640704	0	0
4160749568	0	0
4227858432	0	0
~~~~~~~~~~Reuse Distance Profiler output end~~~~~~~~~~

Sampler size:729591

DRAM Statistics
 CHANNEL 0
 RQ ROW_BUFFER_HIT:      51177  ROW_BUFFER_MISS:   14351581
 DBUS AVG_CONGESTED_CYCLE:    3.98519
 WQ ROW_BUFFER_HIT:     382724  ROW_BUFFER_MISS:    6307888  FULL:          0


CPU 0 Branch Prediction Accuracy: 98.5289% MPKI: 0.23875 Average ROB Occupancy at Mispredict: 341.237
Branch type MPKI
BRANCH_DIRECT_JUMP: 2e-05
BRANCH_INDIRECT: 2e-06
BRANCH_CONDITIONAL: 0.238595
BRANCH_DIRECT_CALL: 6.73333e-05
BRANCH_INDIRECT_CALL: 0
BRANCH_RETURN: 6.53333e-05

