
*** ChampSim Multicore Out-of-Order Simulator ***

Warmup Instructions: 50000000
Simulation Instructions: 1500000000
Number of CPUs: 1
Off-chip DRAM Size: 4 GiB Channels: 1 Width: 64-bit Data Rate: 3200 MT/s

VirtualMemory physical capacity: 8588881920 num_ppages: 2096895
VirtualMemory page size: 4096 log2_page_size: 12

CPU 0 runs /s/traces/champsim_traces/464.h264ref-64B.champsimtrace.xz
CPU 0 Bimodal branch predictor
Basic BTB sets: 1024 ways: 8 indirect buffer size: 4096 RAS size: 64
Initializing LRU.
Initializing LRU.
Initializing LRU.
Initializing LRU.
Initializing rdLRU.
Initializing LRU.
Initializing LRU.
Heartbeat CPU 0 instructions: 2000000 cycles: 531148 heartbeat IPC: 3.76543 cumulative IPC: 3.76543 (Simulation time: 0 hr 0 min 44 sec) 
Heartbeat CPU 0 instructions: 4000003 cycles: 1042089 heartbeat IPC: 3.91435 cumulative IPC: 3.83845 (Simulation time: 0 hr 1 min 22 sec) 
Heartbeat CPU 0 instructions: 6000000 cycles: 1544106 heartbeat IPC: 3.98392 cumulative IPC: 3.88574 (Simulation time: 0 hr 2 min 0 sec) 
Heartbeat CPU 0 instructions: 8000002 cycles: 2053245 heartbeat IPC: 3.9282 cumulative IPC: 3.89627 (Simulation time: 0 hr 2 min 40 sec) 
Heartbeat CPU 0 instructions: 10000002 cycles: 2561875 heartbeat IPC: 3.93213 cumulative IPC: 3.90339 (Simulation time: 0 hr 3 min 22 sec) 
Heartbeat CPU 0 instructions: 12000002 cycles: 3072890 heartbeat IPC: 3.91378 cumulative IPC: 3.90512 (Simulation time: 0 hr 4 min 4 sec) 
Heartbeat CPU 0 instructions: 14000001 cycles: 3598375 heartbeat IPC: 3.80601 cumulative IPC: 3.89065 (Simulation time: 0 hr 4 min 52 sec) 
Heartbeat CPU 0 instructions: 16000003 cycles: 4152788 heartbeat IPC: 3.60742 cumulative IPC: 3.85283 (Simulation time: 0 hr 5 min 47 sec) 
Heartbeat CPU 0 instructions: 18000000 cycles: 4700081 heartbeat IPC: 3.65434 cumulative IPC: 3.82972 (Simulation time: 0 hr 6 min 36 sec) 
Heartbeat CPU 0 instructions: 20000003 cycles: 5307055 heartbeat IPC: 3.29504 cumulative IPC: 3.76857 (Simulation time: 0 hr 7 min 32 sec) 
Heartbeat CPU 0 instructions: 22000000 cycles: 5972488 heartbeat IPC: 3.00556 cumulative IPC: 3.68356 (Simulation time: 0 hr 8 min 34 sec) 
Heartbeat CPU 0 instructions: 24000002 cycles: 6614004 heartbeat IPC: 3.11762 cumulative IPC: 3.62866 (Simulation time: 0 hr 9 min 32 sec) 
Heartbeat CPU 0 instructions: 26000003 cycles: 7263762 heartbeat IPC: 3.07807 cumulative IPC: 3.57941 (Simulation time: 0 hr 10 min 35 sec) 
Heartbeat CPU 0 instructions: 28000004 cycles: 7923832 heartbeat IPC: 3.02998 cumulative IPC: 3.53364 (Simulation time: 0 hr 11 min 35 sec) 
Heartbeat CPU 0 instructions: 30000001 cycles: 8568556 heartbeat IPC: 3.1021 cumulative IPC: 3.50117 (Simulation time: 0 hr 12 min 36 sec) 
Heartbeat CPU 0 instructions: 32000003 cycles: 9231194 heartbeat IPC: 3.01824 cumulative IPC: 3.46651 (Simulation time: 0 hr 13 min 39 sec) 
Heartbeat CPU 0 instructions: 34000000 cycles: 9879598 heartbeat IPC: 3.08449 cumulative IPC: 3.44144 (Simulation time: 0 hr 14 min 40 sec) 
Heartbeat CPU 0 instructions: 36000000 cycles: 10529449 heartbeat IPC: 3.07763 cumulative IPC: 3.41898 (Simulation time: 0 hr 15 min 42 sec) 
Heartbeat CPU 0 instructions: 38000002 cycles: 11186042 heartbeat IPC: 3.04603 cumulative IPC: 3.39709 (Simulation time: 0 hr 16 min 47 sec) 
Heartbeat CPU 0 instructions: 40000001 cycles: 11836368 heartbeat IPC: 3.07538 cumulative IPC: 3.37942 (Simulation time: 0 hr 17 min 46 sec) 
Heartbeat CPU 0 instructions: 42000003 cycles: 12498909 heartbeat IPC: 3.01868 cumulative IPC: 3.36029 (Simulation time: 0 hr 18 min 50 sec) 
Heartbeat CPU 0 instructions: 44000002 cycles: 13138239 heartbeat IPC: 3.12827 cumulative IPC: 3.349 (Simulation time: 0 hr 19 min 40 sec) 
Heartbeat CPU 0 instructions: 46000001 cycles: 13797810 heartbeat IPC: 3.03227 cumulative IPC: 3.33386 (Simulation time: 0 hr 20 min 40 sec) 
Heartbeat CPU 0 instructions: 48000004 cycles: 14453849 heartbeat IPC: 3.0486 cumulative IPC: 3.32091 (Simulation time: 0 hr 21 min 47 sec) 
Heartbeat CPU 0 instructions: 50000001 cycles: 15102255 heartbeat IPC: 3.08448 cumulative IPC: 3.31076 (Simulation time: 0 hr 22 min 52 sec) 

Warmup complete CPU 0 instructions: 50000001 cycles: 15102255 (Simulation time: 0 hr 22 min 52 sec) 

Heartbeat CPU 0 instructions: 52000000 cycles: 16231741 heartbeat IPC: 1.77072 cumulative IPC: 1.77072 (Simulation time: 0 hr 23 min 42 sec) 

Region of Interest Statistics
cpu0_DTLB TOTAL     ACCESS:     444609  HIT:     444606  MISS:          3
cpu0_DTLB LOAD      ACCESS:     344475  HIT:     344472  MISS:          3
cpu0_DTLB RFO       ACCESS:     100134  HIT:     100134  MISS:          0
cpu0_DTLB PREFETCH  ACCESS:          0  HIT:          0  MISS:          0
cpu0_DTLB WRITEBACK ACCESS:          0  HIT:          0  MISS:          0
cpu0_ITLB TOTAL     ACCESS:     183535  HIT:     183535  MISS:          0
cpu0_ITLB LOAD      ACCESS:     183535  HIT:     183535  MISS:          0
cpu0_ITLB RFO       ACCESS:          0  HIT:          0  MISS:          0
cpu0_ITLB PREFETCH  ACCESS:          0  HIT:          0  MISS:          0
cpu0_ITLB WRITEBACK ACCESS:          0  HIT:          0  MISS:          0
cpu0_L1I TOTAL     ACCESS:       9640  HIT:       9640  MISS:          0
cpu0_L1I LOAD      ACCESS:       9640  HIT:       9640  MISS:          0
cpu0_L1I RFO       ACCESS:          0  HIT:          0  MISS:          0
cpu0_L1I PREFETCH  ACCESS:          0  HIT:          0  MISS:          0
cpu0_L1I WRITEBACK ACCESS:          0  HIT:          0  MISS:          0
cpu0_STLB TOTAL     ACCESS:          3  HIT:          2  MISS:          1
cpu0_STLB LOAD      ACCESS:          3  HIT:          2  MISS:          1
cpu0_STLB RFO       ACCESS:          0  HIT:          0  MISS:          0
cpu0_STLB PREFETCH  ACCESS:          0  HIT:          0  MISS:          0
cpu0_STLB WRITEBACK ACCESS:          0  HIT:          0  MISS:          0
cpu0_L1D TOTAL     ACCESS:     470949  HIT:     470101  MISS:        848
cpu0_L1D LOAD      ACCESS:     334462  HIT:     334326  MISS:        136
cpu0_L1D RFO       ACCESS:     136486  HIT:     135774  MISS:        712
cpu0_L1D PREFETCH  ACCESS:          0  HIT:          0  MISS:          0
cpu0_L1D WRITEBACK ACCESS:          0  HIT:          0  MISS:          0
cpu0_L2C TOTAL     ACCESS:       1352  HIT:        199  MISS:       1153
cpu0_L2C LOAD      ACCESS:        136  HIT:          0  MISS:        136
cpu0_L2C RFO       ACCESS:        712  HIT:          0  MISS:        712
cpu0_L2C PREFETCH  ACCESS:          0  HIT:          0  MISS:          0
cpu0_L2C WRITEBACK ACCESS:        504  HIT:        199  MISS:        305
LLC TOTAL     ACCESS:       1331  HIT:        791  MISS:        540
LLC LOAD      ACCESS:        136  HIT:         89  MISS:         47
LLC RFO       ACCESS:        712  HIT:        219  MISS:        493
LLC PREFETCH  ACCESS:          0  HIT:          0  MISS:          0
LLC WRITEBACK ACCESS:        483  HIT:        483  MISS:          0
Heartbeat CPU 0 instructions: 54000000 cycles: 17096255 heartbeat IPC: 2.31344 cumulative IPC: 2.00602 (Simulation time: 0 hr 24 min 30 sec) 

Region of Interest Statistics
cpu0_DTLB TOTAL     ACCESS:     791482  HIT:     790870  MISS:        612
cpu0_DTLB LOAD      ACCESS:     612119  HIT:     611560  MISS:        559
cpu0_DTLB RFO       ACCESS:     179363  HIT:     179310  MISS:         53
cpu0_DTLB PREFETCH  ACCESS:          0  HIT:          0  MISS:          0
cpu0_DTLB WRITEBACK ACCESS:          0  HIT:          0  MISS:          0
cpu0_ITLB TOTAL     ACCESS:     334754  HIT:     334754  MISS:          0
cpu0_ITLB LOAD      ACCESS:     334754  HIT:     334754  MISS:          0
cpu0_ITLB RFO       ACCESS:          0  HIT:          0  MISS:          0
cpu0_ITLB PREFETCH  ACCESS:          0  HIT:          0  MISS:          0
cpu0_ITLB WRITEBACK ACCESS:          0  HIT:          0  MISS:          0
cpu0_L1I TOTAL     ACCESS:     154089  HIT:     154032  MISS:         57
cpu0_L1I LOAD      ACCESS:     154089  HIT:     154032  MISS:         57
cpu0_L1I RFO       ACCESS:          0  HIT:          0  MISS:          0
cpu0_L1I PREFETCH  ACCESS:          0  HIT:          0  MISS:          0
cpu0_L1I WRITEBACK ACCESS:          0  HIT:          0  MISS:          0
cpu0_STLB TOTAL     ACCESS:        612  HIT:        586  MISS:         26
cpu0_STLB LOAD      ACCESS:        559  HIT:        540  MISS:         19
cpu0_STLB RFO       ACCESS:         53  HIT:         46  MISS:          7
cpu0_STLB PREFETCH  ACCESS:          0  HIT:          0  MISS:          0
cpu0_STLB WRITEBACK ACCESS:          0  HIT:          0  MISS:          0
cpu0_L1D TOTAL     ACCESS:     857439  HIT:     848678  MISS:       8761
cpu0_L1D LOAD      ACCESS:     563884  HIT:     557938  MISS:       5946
cpu0_L1D RFO       ACCESS:     293532  HIT:     290721  MISS:       2811
cpu0_L1D PREFETCH  ACCESS:          0  HIT:          0  MISS:          0
cpu0_L1D WRITEBACK ACCESS:          0  HIT:          0  MISS:          0
cpu0_L2C TOTAL     ACCESS:      11957  HIT:       2152  MISS:       9805
cpu0_L2C LOAD      ACCESS:       6003  HIT:        518  MISS:       5485
cpu0_L2C RFO       ACCESS:       2811  HIT:          3  MISS:       2808
cpu0_L2C PREFETCH  ACCESS:          0  HIT:          0  MISS:          0
cpu0_L2C WRITEBACK ACCESS:       3139  HIT:       1631  MISS:       1508
LLC TOTAL     ACCESS:      11740  HIT:       9167  MISS:       2573
LLC LOAD      ACCESS:       5485  HIT:       4787  MISS:        698
LLC RFO       ACCESS:       2808  HIT:        935  MISS:       1873
LLC PREFETCH  ACCESS:          0  HIT:          0  MISS:          0
LLC WRITEBACK ACCESS:       3443  HIT:       3443  MISS:          0
Heartbeat CPU 0 instructions: 56000000 cycles: 17939972 heartbeat IPC: 2.37046 cumulative IPC: 2.11438 (Simulation time: 0 hr 25 min 19 sec) 

Region of Interest Statistics
cpu0_DTLB TOTAL     ACCESS:    1124541  HIT:    1122695  MISS:       1846
cpu0_DTLB LOAD      ACCESS:     866057  HIT:     864287  MISS:       1770
cpu0_DTLB RFO       ACCESS:     258484  HIT:     258408  MISS:         76
cpu0_DTLB PREFETCH  ACCESS:          0  HIT:          0  MISS:          0
cpu0_DTLB WRITEBACK ACCESS:          0  HIT:          0  MISS:          0
cpu0_ITLB TOTAL     ACCESS:     503154  HIT:     503154  MISS:          0
cpu0_ITLB LOAD      ACCESS:     503154  HIT:     503154  MISS:          0
cpu0_ITLB RFO       ACCESS:          0  HIT:          0  MISS:          0
cpu0_ITLB PREFETCH  ACCESS:          0  HIT:          0  MISS:          0
cpu0_ITLB WRITEBACK ACCESS:          0  HIT:          0  MISS:          0
cpu0_L1I TOTAL     ACCESS:     337002  HIT:     336918  MISS:         84
cpu0_L1I LOAD      ACCESS:     337002  HIT:     336918  MISS:         84
cpu0_L1I RFO       ACCESS:          0  HIT:          0  MISS:          0
cpu0_L1I PREFETCH  ACCESS:          0  HIT:          0  MISS:          0
cpu0_L1I WRITEBACK ACCESS:          0  HIT:          0  MISS:          0
cpu0_STLB TOTAL     ACCESS:       1846  HIT:       1814  MISS:         32
cpu0_STLB LOAD      ACCESS:       1770  HIT:       1745  MISS:         25
cpu0_STLB RFO       ACCESS:         76  HIT:         69  MISS:          7
cpu0_STLB PREFETCH  ACCESS:          0  HIT:          0  MISS:          0
cpu0_STLB WRITEBACK ACCESS:          0  HIT:          0  MISS:          0
cpu0_L1D TOTAL     ACCESS:    1263140  HIT:    1248214  MISS:      14926
cpu0_L1D LOAD      ACCESS:     778627  HIT:     766824  MISS:      11803
cpu0_L1D RFO       ACCESS:     484484  HIT:     481368  MISS:       3116
cpu0_L1D PREFETCH  ACCESS:          0  HIT:          0  MISS:          0
cpu0_L1D WRITEBACK ACCESS:          0  HIT:          0  MISS:          0
cpu0_L2C TOTAL     ACCESS:      18456  HIT:       2414  MISS:      16042
cpu0_L2C LOAD      ACCESS:      11887  HIT:        526  MISS:      11361
cpu0_L2C RFO       ACCESS:       3116  HIT:         10  MISS:       3106
cpu0_L2C PREFETCH  ACCESS:          0  HIT:          0  MISS:          0
cpu0_L2C WRITEBACK ACCESS:       3446  HIT:       1878  MISS:       1568
LLC TOTAL     ACCESS:      18220  HIT:      15133  MISS:       3087
LLC LOAD      ACCESS:      11361  HIT:      10247  MISS:       1114
LLC RFO       ACCESS:       3106  HIT:       1135  MISS:       1971
LLC PREFETCH  ACCESS:          0  HIT:          0  MISS:          0
LLC WRITEBACK ACCESS:       3746  HIT:       3746  MISS:          0
Heartbeat CPU 0 instructions: 58000001 cycles: 19095647 heartbeat IPC: 1.73059 cumulative IPC: 2.00331 (Simulation time: 0 hr 26 min 12 sec) 

Region of Interest Statistics
cpu0_DTLB TOTAL     ACCESS:    1469288  HIT:    1466371  MISS:       2917
cpu0_DTLB LOAD      ACCESS:    1147029  HIT:    1144217  MISS:       2812
cpu0_DTLB RFO       ACCESS:     322259  HIT:     322154  MISS:        105
cpu0_DTLB PREFETCH  ACCESS:          0  HIT:          0  MISS:          0
cpu0_DTLB WRITEBACK ACCESS:          0  HIT:          0  MISS:          0
cpu0_ITLB TOTAL     ACCESS:     674940  HIT:     674939  MISS:          1
cpu0_ITLB LOAD      ACCESS:     674940  HIT:     674939  MISS:          1
cpu0_ITLB RFO       ACCESS:          0  HIT:          0  MISS:          0
cpu0_ITLB PREFETCH  ACCESS:          0  HIT:          0  MISS:          0
cpu0_ITLB WRITEBACK ACCESS:          0  HIT:          0  MISS:          0
cpu0_L1I TOTAL     ACCESS:     479131  HIT:     478874  MISS:        257
cpu0_L1I LOAD      ACCESS:     479131  HIT:     478874  MISS:        257
cpu0_L1I RFO       ACCESS:          0  HIT:          0  MISS:          0
cpu0_L1I PREFETCH  ACCESS:          0  HIT:          0  MISS:          0
cpu0_L1I WRITEBACK ACCESS:          0  HIT:          0  MISS:          0
cpu0_STLB TOTAL     ACCESS:       2918  HIT:       2877  MISS:         41
cpu0_STLB LOAD      ACCESS:       2813  HIT:       2781  MISS:         32
cpu0_STLB RFO       ACCESS:        105  HIT:         96  MISS:          9
cpu0_STLB PREFETCH  ACCESS:          0  HIT:          0  MISS:          0
cpu0_STLB WRITEBACK ACCESS:          0  HIT:          0  MISS:          0
cpu0_L1D TOTAL     ACCESS:    1629687  HIT:    1606490  MISS:      23197
cpu0_L1D LOAD      ACCESS:     993214  HIT:     973513  MISS:      19701
cpu0_L1D RFO       ACCESS:     636435  HIT:     632953  MISS:       3482
cpu0_L1D PREFETCH  ACCESS:          0  HIT:          0  MISS:          0
cpu0_L1D WRITEBACK ACCESS:          0  HIT:          0  MISS:          0
cpu0_L2C TOTAL     ACCESS:      27267  HIT:       2781  MISS:      24486
cpu0_L2C LOAD      ACCESS:      19958  HIT:        590  MISS:      19368
cpu0_L2C RFO       ACCESS:       3482  HIT:         12  MISS:       3470
cpu0_L2C PREFETCH  ACCESS:          0  HIT:          0  MISS:          0
cpu0_L2C WRITEBACK ACCESS:       3813  HIT:       2179  MISS:       1634
LLC TOTAL     ACCESS:      26994  HIT:      22273  MISS:       4721
LLC LOAD      ACCESS:      19368  HIT:      16767  MISS:       2601
LLC RFO       ACCESS:       3470  HIT:       1353  MISS:       2117
LLC PREFETCH  ACCESS:          0  HIT:          0  MISS:          0
LLC WRITEBACK ACCESS:       4142  HIT:       4142  MISS:          0
Heartbeat CPU 0 instructions: 60000003 cycles: 20390109 heartbeat IPC: 1.54505 cumulative IPC: 1.89113 (Simulation time: 0 hr 27 min 8 sec) 

Region of Interest Statistics
cpu0_DTLB TOTAL     ACCESS:    1836815  HIT:    1832747  MISS:       4068
cpu0_DTLB LOAD      ACCESS:    1440384  HIT:    1436445  MISS:       3939
cpu0_DTLB RFO       ACCESS:     396431  HIT:     396302  MISS:        129
cpu0_DTLB PREFETCH  ACCESS:          0  HIT:          0  MISS:          0
cpu0_DTLB WRITEBACK ACCESS:          0  HIT:          0  MISS:          0
cpu0_ITLB TOTAL     ACCESS:     858434  HIT:     858433  MISS:          1
cpu0_ITLB LOAD      ACCESS:     858434  HIT:     858433  MISS:          1
cpu0_ITLB RFO       ACCESS:          0  HIT:          0  MISS:          0
cpu0_ITLB PREFETCH  ACCESS:          0  HIT:          0  MISS:          0
cpu0_ITLB WRITEBACK ACCESS:          0  HIT:          0  MISS:          0
cpu0_L1I TOTAL     ACCESS:     589602  HIT:     589330  MISS:        272
cpu0_L1I LOAD      ACCESS:     589602  HIT:     589330  MISS:        272
cpu0_L1I RFO       ACCESS:          0  HIT:          0  MISS:          0
cpu0_L1I PREFETCH  ACCESS:          0  HIT:          0  MISS:          0
cpu0_L1I WRITEBACK ACCESS:          0  HIT:          0  MISS:          0
cpu0_STLB TOTAL     ACCESS:       4069  HIT:       4027  MISS:         42
cpu0_STLB LOAD      ACCESS:       3940  HIT:       3907  MISS:         33
cpu0_STLB RFO       ACCESS:        129  HIT:        120  MISS:          9
cpu0_STLB PREFETCH  ACCESS:          0  HIT:          0  MISS:          0
cpu0_STLB WRITEBACK ACCESS:          0  HIT:          0  MISS:          0
cpu0_L1D TOTAL     ACCESS:    2030487  HIT:    1999539  MISS:      30948
cpu0_L1D LOAD      ACCESS:    1225355  HIT:    1198270  MISS:      27085
cpu0_L1D RFO       ACCESS:     805093  HIT:     801245  MISS:       3848
cpu0_L1D PREFETCH  ACCESS:          0  HIT:          0  MISS:          0
cpu0_L1D WRITEBACK ACCESS:          0  HIT:          0  MISS:          0
cpu0_L2C TOTAL     ACCESS:      35396  HIT:       3136  MISS:      32260
cpu0_L2C LOAD      ACCESS:      27357  HIT:        639  MISS:      26718
cpu0_L2C RFO       ACCESS:       3848  HIT:         13  MISS:       3835
cpu0_L2C PREFETCH  ACCESS:          0  HIT:          0  MISS:          0
cpu0_L2C WRITEBACK ACCESS:       4176  HIT:       2484  MISS:       1692
LLC TOTAL     ACCESS:      35058  HIT:      29130  MISS:       5928
LLC LOAD      ACCESS:      26718  HIT:      23016  MISS:       3702
LLC RFO       ACCESS:       3835  HIT:       1612  MISS:       2223
LLC PREFETCH  ACCESS:          0  HIT:          0  MISS:          0
LLC WRITEBACK ACCESS:       4490  HIT:       4490  MISS:          0
Heartbeat CPU 0 instructions: 62000002 cycles: 21787003 heartbeat IPC: 1.43175 cumulative IPC: 1.79513 (Simulation time: 0 hr 27 min 59 sec) 

Region of Interest Statistics
cpu0_DTLB TOTAL     ACCESS:    2196913  HIT:    2191704  MISS:       5209
cpu0_DTLB LOAD      ACCESS:    1737022  HIT:    1731961  MISS:       5061
cpu0_DTLB RFO       ACCESS:     459891  HIT:     459743  MISS:        148
cpu0_DTLB PREFETCH  ACCESS:          0  HIT:          0  MISS:          0
cpu0_DTLB WRITEBACK ACCESS:          0  HIT:          0  MISS:          0
cpu0_ITLB TOTAL     ACCESS:    1027014  HIT:    1027013  MISS:          1
cpu0_ITLB LOAD      ACCESS:    1027014  HIT:    1027013  MISS:          1
cpu0_ITLB RFO       ACCESS:          0  HIT:          0  MISS:          0
cpu0_ITLB PREFETCH  ACCESS:          0  HIT:          0  MISS:          0
cpu0_ITLB WRITEBACK ACCESS:          0  HIT:          0  MISS:          0
cpu0_L1I TOTAL     ACCESS:     715876  HIT:     715548  MISS:        328
cpu0_L1I LOAD      ACCESS:     715876  HIT:     715548  MISS:        328
cpu0_L1I RFO       ACCESS:          0  HIT:          0  MISS:          0
cpu0_L1I PREFETCH  ACCESS:          0  HIT:          0  MISS:          0
cpu0_L1I WRITEBACK ACCESS:          0  HIT:          0  MISS:          0
cpu0_STLB TOTAL     ACCESS:       5210  HIT:       5163  MISS:         47
cpu0_STLB LOAD      ACCESS:       5062  HIT:       5025  MISS:         37
cpu0_STLB RFO       ACCESS:        148  HIT:        138  MISS:         10
cpu0_STLB PREFETCH  ACCESS:          0  HIT:          0  MISS:          0
cpu0_STLB WRITEBACK ACCESS:          0  HIT:          0  MISS:          0
cpu0_L1D TOTAL     ACCESS:    2414223  HIT:    2375461  MISS:      38762
cpu0_L1D LOAD      ACCESS:    1460650  HIT:    1426121  MISS:      34529
cpu0_L1D RFO       ACCESS:     953529  HIT:     949315  MISS:       4214
cpu0_L1D PREFETCH  ACCESS:          0  HIT:          0  MISS:          0
cpu0_L1D WRITEBACK ACCESS:          0  HIT:          0  MISS:          0
cpu0_L2C TOTAL     ACCESS:      43628  HIT:       3519  MISS:      40109
cpu0_L2C LOAD      ACCESS:      34857  HIT:        727  MISS:      34130
cpu0_L2C RFO       ACCESS:       4214  HIT:         17  MISS:       4197
cpu0_L2C PREFETCH  ACCESS:          0  HIT:          0  MISS:          0
cpu0_L2C WRITEBACK ACCESS:       4538  HIT:       2775  MISS:       1763
LLC TOTAL     ACCESS:      43183  HIT:      35570  MISS:       7613
LLC LOAD      ACCESS:      34130  HIT:      28874  MISS:       5256
LLC RFO       ACCESS:       4197  HIT:       1843  MISS:       2354
LLC PREFETCH  ACCESS:          0  HIT:          0  MISS:          0
LLC WRITEBACK ACCESS:       4837  HIT:       4837  MISS:          0
Heartbeat CPU 0 instructions: 64000002 cycles: 22807872 heartbeat IPC: 1.95912 cumulative IPC: 1.81686 (Simulation time: 0 hr 28 min 56 sec) 

Region of Interest Statistics
cpu0_DTLB TOTAL     ACCESS:    2538725  HIT:    2532262  MISS:       6463
cpu0_DTLB LOAD      ACCESS:    2012171  HIT:    2005878  MISS:       6293
cpu0_DTLB RFO       ACCESS:     526554  HIT:     526384  MISS:        170
cpu0_DTLB PREFETCH  ACCESS:          0  HIT:          0  MISS:          0
cpu0_DTLB WRITEBACK ACCESS:          0  HIT:          0  MISS:          0
cpu0_ITLB TOTAL     ACCESS:    1164927  HIT:    1164926  MISS:          1
cpu0_ITLB LOAD      ACCESS:    1164927  HIT:    1164926  MISS:          1
cpu0_ITLB RFO       ACCESS:          0  HIT:          0  MISS:          0
cpu0_ITLB PREFETCH  ACCESS:          0  HIT:          0  MISS:          0
cpu0_ITLB WRITEBACK ACCESS:          0  HIT:          0  MISS:          0
cpu0_L1I TOTAL     ACCESS:     845645  HIT:     845274  MISS:        371
cpu0_L1I LOAD      ACCESS:     845645  HIT:     845274  MISS:        371
cpu0_L1I RFO       ACCESS:          0  HIT:          0  MISS:          0
cpu0_L1I PREFETCH  ACCESS:          0  HIT:          0  MISS:          0
cpu0_L1I WRITEBACK ACCESS:          0  HIT:          0  MISS:          0
cpu0_STLB TOTAL     ACCESS:       6464  HIT:       6407  MISS:         57
cpu0_STLB LOAD      ACCESS:       6294  HIT:       6248  MISS:         46
cpu0_STLB RFO       ACCESS:        170  HIT:        159  MISS:         11
cpu0_STLB PREFETCH  ACCESS:          0  HIT:          0  MISS:          0
cpu0_STLB WRITEBACK ACCESS:          0  HIT:          0  MISS:          0
cpu0_L1D TOTAL     ACCESS:    2771488  HIT:    2724291  MISS:      47197
cpu0_L1D LOAD      ACCESS:    1661473  HIT:    1618904  MISS:      42569
cpu0_L1D RFO       ACCESS:    1109961  HIT:    1105358  MISS:       4603
cpu0_L1D PREFETCH  ACCESS:          0  HIT:          0  MISS:          0
cpu0_L1D WRITEBACK ACCESS:          0  HIT:          0  MISS:          0
cpu0_L2C TOTAL     ACCESS:      52476  HIT:       3897  MISS:      48579
cpu0_L2C LOAD      ACCESS:      42940  HIT:        790  MISS:      42150
cpu0_L2C RFO       ACCESS:       4603  HIT:         20  MISS:       4583
cpu0_L2C PREFETCH  ACCESS:          0  HIT:          0  MISS:          0
cpu0_L2C WRITEBACK ACCESS:       4908  HIT:       3086  MISS:       1822
LLC TOTAL     ACCESS:      51937  HIT:      42299  MISS:       9638
LLC LOAD      ACCESS:      42150  HIT:      34954  MISS:       7196
LLC RFO       ACCESS:       4583  HIT:       2144  MISS:       2439
LLC PREFETCH  ACCESS:          0  HIT:          0  MISS:          0
LLC WRITEBACK ACCESS:       5180  HIT:       5180  MISS:          0
Heartbeat CPU 0 instructions: 66000003 cycles: 24143093 heartbeat IPC: 1.49788 cumulative IPC: 1.76975 (Simulation time: 0 hr 29 min 51 sec) 

Region of Interest Statistics
cpu0_DTLB TOTAL     ACCESS:    2903477  HIT:    2895746  MISS:       7731
cpu0_DTLB LOAD      ACCESS:    2308503  HIT:    2300971  MISS:       7532
cpu0_DTLB RFO       ACCESS:     594974  HIT:     594775  MISS:        199
cpu0_DTLB PREFETCH  ACCESS:          0  HIT:          0  MISS:          0
cpu0_DTLB WRITEBACK ACCESS:          0  HIT:          0  MISS:          0
cpu0_ITLB TOTAL     ACCESS:    1327592  HIT:    1327591  MISS:          1
cpu0_ITLB LOAD      ACCESS:    1327592  HIT:    1327591  MISS:          1
cpu0_ITLB RFO       ACCESS:          0  HIT:          0  MISS:          0
cpu0_ITLB PREFETCH  ACCESS:          0  HIT:          0  MISS:          0
cpu0_ITLB WRITEBACK ACCESS:          0  HIT:          0  MISS:          0
cpu0_L1I TOTAL     ACCESS:     942047  HIT:     941670  MISS:        377
cpu0_L1I LOAD      ACCESS:     942047  HIT:     941670  MISS:        377
cpu0_L1I RFO       ACCESS:          0  HIT:          0  MISS:          0
cpu0_L1I PREFETCH  ACCESS:          0  HIT:          0  MISS:          0
cpu0_L1I WRITEBACK ACCESS:          0  HIT:          0  MISS:          0
cpu0_STLB TOTAL     ACCESS:       7732  HIT:       7675  MISS:         57
cpu0_STLB LOAD      ACCESS:       7533  HIT:       7487  MISS:         46
cpu0_STLB RFO       ACCESS:        199  HIT:        188  MISS:         11
cpu0_STLB PREFETCH  ACCESS:          0  HIT:          0  MISS:          0
cpu0_STLB WRITEBACK ACCESS:          0  HIT:          0  MISS:          0
cpu0_L1D TOTAL     ACCESS:    3148817  HIT:    3093073  MISS:      55744
cpu0_L1D LOAD      ACCESS:    1883718  HIT:    1832985  MISS:      50733
cpu0_L1D RFO       ACCESS:    1265045  HIT:    1260059  MISS:       4986
cpu0_L1D PREFETCH  ACCESS:          0  HIT:          0  MISS:          0
cpu0_L1D WRITEBACK ACCESS:          0  HIT:          0  MISS:          0
cpu0_L2C TOTAL     ACCESS:      61389  HIT:       4361  MISS:      57028
cpu0_L2C LOAD      ACCESS:      51110  HIT:        927  MISS:      50183
cpu0_L2C RFO       ACCESS:       4986  HIT:         33  MISS:       4953
cpu0_L2C PREFETCH  ACCESS:          0  HIT:          0  MISS:          0
cpu0_L2C WRITEBACK ACCESS:       5268  HIT:       3400  MISS:       1868
LLC TOTAL     ACCESS:      60733  HIT:      48175  MISS:      12558
LLC LOAD      ACCESS:      50183  HIT:      40193  MISS:       9990
LLC RFO       ACCESS:       4953  HIT:       2388  MISS:       2565
LLC PREFETCH  ACCESS:          0  HIT:          0  MISS:          0
LLC WRITEBACK ACCESS:       5573  HIT:       5573  MISS:          0
Heartbeat CPU 0 instructions: 68000001 cycles: 25929539 heartbeat IPC: 1.11954 cumulative IPC: 1.66247 (Simulation time: 0 hr 30 min 44 sec) 

Region of Interest Statistics
cpu0_DTLB TOTAL     ACCESS:    3396382  HIT:    3387849  MISS:       8533
cpu0_DTLB LOAD      ACCESS:    2681218  HIT:    2672943  MISS:       8275
cpu0_DTLB RFO       ACCESS:     715164  HIT:     714906  MISS:        258
cpu0_DTLB PREFETCH  ACCESS:          0  HIT:          0  MISS:          0
cpu0_DTLB WRITEBACK ACCESS:          0  HIT:          0  MISS:          0
cpu0_ITLB TOTAL     ACCESS:    1472378  HIT:    1472374  MISS:          4
cpu0_ITLB LOAD      ACCESS:    1472378  HIT:    1472374  MISS:          4
cpu0_ITLB RFO       ACCESS:          0  HIT:          0  MISS:          0
cpu0_ITLB PREFETCH  ACCESS:          0  HIT:          0  MISS:          0
cpu0_ITLB WRITEBACK ACCESS:          0  HIT:          0  MISS:          0
cpu0_L1I TOTAL     ACCESS:    1047663  HIT:    1046007  MISS:       1656
cpu0_L1I LOAD      ACCESS:    1047663  HIT:    1046007  MISS:       1656
cpu0_L1I RFO       ACCESS:          0  HIT:          0  MISS:          0
cpu0_L1I PREFETCH  ACCESS:          0  HIT:          0  MISS:          0
cpu0_L1I WRITEBACK ACCESS:          0  HIT:          0  MISS:          0
cpu0_STLB TOTAL     ACCESS:       8537  HIT:       8474  MISS:         63
cpu0_STLB LOAD      ACCESS:       8279  HIT:       8228  MISS:         51
cpu0_STLB RFO       ACCESS:        258  HIT:        246  MISS:         12
cpu0_STLB PREFETCH  ACCESS:          0  HIT:          0  MISS:          0
cpu0_STLB WRITEBACK ACCESS:          0  HIT:          0  MISS:          0
cpu0_L1D TOTAL     ACCESS:    3716805  HIT:    3658100  MISS:      58705
cpu0_L1D LOAD      ACCESS:    2249455  HIT:    2196627  MISS:      52828
cpu0_L1D RFO       ACCESS:    1467290  HIT:    1461441  MISS:       5849
cpu0_L1D PREFETCH  ACCESS:          0  HIT:          0  MISS:          0
cpu0_L1D WRITEBACK ACCESS:          0  HIT:          0  MISS:          0
cpu0_L2C TOTAL     ACCESS:      66267  HIT:       5454  MISS:      60813
cpu0_L2C LOAD      ACCESS:      54484  HIT:       1436  MISS:      53048
cpu0_L2C RFO       ACCESS:       5849  HIT:        214  MISS:       5635
cpu0_L2C PREFETCH  ACCESS:          0  HIT:          0  MISS:          0
cpu0_L2C WRITEBACK ACCESS:       5906  HIT:       3803  MISS:       2103
LLC TOTAL     ACCESS:      64729  HIT:      50769  MISS:      13960
LLC LOAD      ACCESS:      53048  HIT:      42013  MISS:      11035
LLC RFO       ACCESS:       5635  HIT:       2727  MISS:       2908
LLC PREFETCH  ACCESS:          0  HIT:          0  MISS:          0
LLC WRITEBACK ACCESS:       6019  HIT:       6006  MISS:         13
Heartbeat CPU 0 instructions: 70000004 cycles: 27526716 heartbeat IPC: 1.25221 cumulative IPC: 1.60973 (Simulation time: 0 hr 32 min 5 sec) 

Region of Interest Statistics
cpu0_DTLB TOTAL     ACCESS:    3913148  HIT:    3904409  MISS:       8739
cpu0_DTLB LOAD      ACCESS:    3109746  HIT:    3101301  MISS:       8445
cpu0_DTLB RFO       ACCESS:     803402  HIT:     803108  MISS:        294
cpu0_DTLB PREFETCH  ACCESS:          0  HIT:          0  MISS:          0
cpu0_DTLB WRITEBACK ACCESS:          0  HIT:          0  MISS:          0
cpu0_ITLB TOTAL     ACCESS:    1596447  HIT:    1596440  MISS:          7
cpu0_ITLB LOAD      ACCESS:    1596447  HIT:    1596440  MISS:          7
cpu0_ITLB RFO       ACCESS:          0  HIT:          0  MISS:          0
cpu0_ITLB PREFETCH  ACCESS:          0  HIT:          0  MISS:          0
cpu0_ITLB WRITEBACK ACCESS:          0  HIT:          0  MISS:          0
cpu0_L1I TOTAL     ACCESS:    1117851  HIT:    1115798  MISS:       2053
cpu0_L1I LOAD      ACCESS:    1117851  HIT:    1115798  MISS:       2053
cpu0_L1I RFO       ACCESS:          0  HIT:          0  MISS:          0
cpu0_L1I PREFETCH  ACCESS:          0  HIT:          0  MISS:          0
cpu0_L1I WRITEBACK ACCESS:          0  HIT:          0  MISS:          0
cpu0_STLB TOTAL     ACCESS:       8746  HIT:       8680  MISS:         66
cpu0_STLB LOAD      ACCESS:       8452  HIT:       8400  MISS:         52
cpu0_STLB RFO       ACCESS:        294  HIT:        280  MISS:         14
cpu0_STLB PREFETCH  ACCESS:          0  HIT:          0  MISS:          0
cpu0_STLB WRITEBACK ACCESS:          0  HIT:          0  MISS:          0
cpu0_L1D TOTAL     ACCESS:    4314832  HIT:    4254836  MISS:      59996
cpu0_L1D LOAD      ACCESS:    2699145  HIT:    2645860  MISS:      53285
cpu0_L1D RFO       ACCESS:    1615624  HIT:    1608943  MISS:       6681
cpu0_L1D PREFETCH  ACCESS:          0  HIT:          0  MISS:          0
cpu0_L1D WRITEBACK ACCESS:          0  HIT:          0  MISS:          0
cpu0_L2C TOTAL     ACCESS:      68652  HIT:       5829  MISS:      62823
cpu0_L2C LOAD      ACCESS:      55338  HIT:       1559  MISS:      53779
cpu0_L2C RFO       ACCESS:       6681  HIT:        233  MISS:       6448
cpu0_L2C PREFETCH  ACCESS:          0  HIT:          0  MISS:          0
cpu0_L2C WRITEBACK ACCESS:       6603  HIT:       4036  MISS:       2567
LLC TOTAL     ACCESS:      66725  HIT:      52324  MISS:      14401
LLC LOAD      ACCESS:      53779  HIT:      42395  MISS:      11384
LLC RFO       ACCESS:       6448  HIT:       3451  MISS:       2997
LLC PREFETCH  ACCESS:          0  HIT:          0  MISS:          0
LLC WRITEBACK ACCESS:       6469  HIT:       6453  MISS:         16
Heartbeat CPU 0 instructions: 72000001 cycles: 28781232 heartbeat IPC: 1.59424 cumulative IPC: 1.60831 (Simulation time: 0 hr 33 min 41 sec) 

Region of Interest Statistics
cpu0_DTLB TOTAL     ACCESS:    4395854  HIT:    4386978  MISS:       8876
cpu0_DTLB LOAD      ACCESS:    3541316  HIT:    3532791  MISS:       8525
cpu0_DTLB RFO       ACCESS:     854538  HIT:     854187  MISS:        351
cpu0_DTLB PREFETCH  ACCESS:          0  HIT:          0  MISS:          0
cpu0_DTLB WRITEBACK ACCESS:          0  HIT:          0  MISS:          0
cpu0_ITLB TOTAL     ACCESS:    1708992  HIT:    1708985  MISS:          7
cpu0_ITLB LOAD      ACCESS:    1708992  HIT:    1708985  MISS:          7
cpu0_ITLB RFO       ACCESS:          0  HIT:          0  MISS:          0
cpu0_ITLB PREFETCH  ACCESS:          0  HIT:          0  MISS:          0
cpu0_ITLB WRITEBACK ACCESS:          0  HIT:          0  MISS:          0
cpu0_L1I TOTAL     ACCESS:    1152603  HIT:    1150459  MISS:       2144
cpu0_L1I LOAD      ACCESS:    1152603  HIT:    1150459  MISS:       2144
cpu0_L1I RFO       ACCESS:          0  HIT:          0  MISS:          0
cpu0_L1I PREFETCH  ACCESS:          0  HIT:          0  MISS:          0
cpu0_L1I WRITEBACK ACCESS:          0  HIT:          0  MISS:          0
cpu0_STLB TOTAL     ACCESS:       8883  HIT:       8817  MISS:         66
cpu0_STLB LOAD      ACCESS:       8532  HIT:       8480  MISS:         52
cpu0_STLB RFO       ACCESS:        351  HIT:        337  MISS:         14
cpu0_STLB PREFETCH  ACCESS:          0  HIT:          0  MISS:          0
cpu0_STLB WRITEBACK ACCESS:          0  HIT:          0  MISS:          0
cpu0_L1D TOTAL     ACCESS:    4839973  HIT:    4773940  MISS:      66033
cpu0_L1D LOAD      ACCESS:    3141074  HIT:    3084524  MISS:      56550
cpu0_L1D RFO       ACCESS:    1698836  HIT:    1689383  MISS:       9453
cpu0_L1D PREFETCH  ACCESS:          0  HIT:          0  MISS:          0
cpu0_L1D WRITEBACK ACCESS:          0  HIT:          0  MISS:          0
cpu0_L2C TOTAL     ACCESS:      77593  HIT:       7610  MISS:      69983
cpu0_L2C LOAD      ACCESS:      58694  HIT:       1981  MISS:      56713
cpu0_L2C RFO       ACCESS:       9453  HIT:        235  MISS:       9218
cpu0_L2C PREFETCH  ACCESS:          0  HIT:          0  MISS:          0
cpu0_L2C WRITEBACK ACCESS:       9416  HIT:       5393  MISS:       4023
LLC TOTAL     ACCESS:      75260  HIT:      60066  MISS:      15194
LLC LOAD      ACCESS:      56713  HIT:      45038  MISS:      11675
LLC RFO       ACCESS:       9218  HIT:       5729  MISS:       3489
LLC PREFETCH  ACCESS:          0  HIT:          0  MISS:          0
LLC WRITEBACK ACCESS:       9300  HIT:       9274  MISS:         26
Heartbeat CPU 0 instructions: 74000000 cycles: 30030571 heartbeat IPC: 1.60085 cumulative IPC: 1.60768 (Simulation time: 0 hr 35 min 22 sec) 

Region of Interest Statistics
cpu0_DTLB TOTAL     ACCESS:    4878757  HIT:    4869743  MISS:       9014
cpu0_DTLB LOAD      ACCESS:    3973414  HIT:    3964807  MISS:       8607
cpu0_DTLB RFO       ACCESS:     905343  HIT:     904936  MISS:        407
cpu0_DTLB PREFETCH  ACCESS:          0  HIT:          0  MISS:          0
cpu0_DTLB WRITEBACK ACCESS:          0  HIT:          0  MISS:          0
cpu0_ITLB TOTAL     ACCESS:    1821176  HIT:    1821169  MISS:          7
cpu0_ITLB LOAD      ACCESS:    1821176  HIT:    1821169  MISS:          7
cpu0_ITLB RFO       ACCESS:          0  HIT:          0  MISS:          0
cpu0_ITLB PREFETCH  ACCESS:          0  HIT:          0  MISS:          0
cpu0_ITLB WRITEBACK ACCESS:          0  HIT:          0  MISS:          0
cpu0_L1I TOTAL     ACCESS:    1186768  HIT:    1184623  MISS:       2145
cpu0_L1I LOAD      ACCESS:    1186768  HIT:    1184623  MISS:       2145
cpu0_L1I RFO       ACCESS:          0  HIT:          0  MISS:          0
cpu0_L1I PREFETCH  ACCESS:          0  HIT:          0  MISS:          0
cpu0_L1I WRITEBACK ACCESS:          0  HIT:          0  MISS:          0
cpu0_STLB TOTAL     ACCESS:       9021  HIT:       8954  MISS:         67
cpu0_STLB LOAD      ACCESS:       8614  HIT:       8561  MISS:         53
cpu0_STLB RFO       ACCESS:        407  HIT:        393  MISS:         14
cpu0_STLB PREFETCH  ACCESS:          0  HIT:          0  MISS:          0
cpu0_STLB WRITEBACK ACCESS:          0  HIT:          0  MISS:          0
cpu0_L1D TOTAL     ACCESS:    5364903  HIT:    5292815  MISS:      72088
cpu0_L1D LOAD      ACCESS:    3583687  HIT:    3523857  MISS:      59830
cpu0_L1D RFO       ACCESS:    1781152  HIT:    1768925  MISS:      12227
cpu0_L1D PREFETCH  ACCESS:          0  HIT:          0  MISS:          0
cpu0_L1D WRITEBACK ACCESS:          0  HIT:          0  MISS:          0
cpu0_L2C TOTAL     ACCESS:      86494  HIT:       9916  MISS:      76578
cpu0_L2C LOAD      ACCESS:      61975  HIT:       2412  MISS:      59563
cpu0_L2C RFO       ACCESS:      12227  HIT:        239  MISS:      11988
cpu0_L2C PREFETCH  ACCESS:          0  HIT:          0  MISS:          0
cpu0_L2C WRITEBACK ACCESS:      12261  HIT:       7264  MISS:       4997
LLC TOTAL     ACCESS:      83739  HIT:      67693  MISS:      16046
LLC LOAD      ACCESS:      59563  HIT:      47680  MISS:      11883
LLC RFO       ACCESS:      11988  HIT:       7855  MISS:       4133
LLC PREFETCH  ACCESS:          0  HIT:          0  MISS:          0
LLC WRITEBACK ACCESS:      12158  HIT:      12132  MISS:         26
Heartbeat CPU 0 instructions: 76000004 cycles: 31277050 heartbeat IPC: 1.60452 cumulative IPC: 1.60744 (Simulation time: 0 hr 36 min 57 sec) 

Region of Interest Statistics
cpu0_DTLB TOTAL     ACCESS:    5360918  HIT:    5351760  MISS:       9158
cpu0_DTLB LOAD      ACCESS:    4404437  HIT:    4395744  MISS:       8693
cpu0_DTLB RFO       ACCESS:     956481  HIT:     956016  MISS:        465
cpu0_DTLB PREFETCH  ACCESS:          0  HIT:          0  MISS:          0
cpu0_DTLB WRITEBACK ACCESS:          0  HIT:          0  MISS:          0
cpu0_ITLB TOTAL     ACCESS:    1933997  HIT:    1933990  MISS:          7
cpu0_ITLB LOAD      ACCESS:    1933997  HIT:    1933990  MISS:          7
cpu0_ITLB RFO       ACCESS:          0  HIT:          0  MISS:          0
cpu0_ITLB PREFETCH  ACCESS:          0  HIT:          0  MISS:          0
cpu0_ITLB WRITEBACK ACCESS:          0  HIT:          0  MISS:          0
cpu0_L1I TOTAL     ACCESS:    1221674  HIT:    1219528  MISS:       2146
cpu0_L1I LOAD      ACCESS:    1221674  HIT:    1219528  MISS:       2146
cpu0_L1I RFO       ACCESS:          0  HIT:          0  MISS:          0
cpu0_L1I PREFETCH  ACCESS:          0  HIT:          0  MISS:          0
cpu0_L1I WRITEBACK ACCESS:          0  HIT:          0  MISS:          0
cpu0_STLB TOTAL     ACCESS:       9165  HIT:       9097  MISS:         68
cpu0_STLB LOAD      ACCESS:       8700  HIT:       8647  MISS:         53
cpu0_STLB RFO       ACCESS:        465  HIT:        450  MISS:         15
cpu0_STLB PREFETCH  ACCESS:          0  HIT:          0  MISS:          0
cpu0_STLB WRITEBACK ACCESS:          0  HIT:          0  MISS:          0
cpu0_L1D TOTAL     ACCESS:    5888921  HIT:    5810789  MISS:      78132
cpu0_L1D LOAD      ACCESS:    4024668  HIT:    3961567  MISS:      63101
cpu0_L1D RFO       ACCESS:    1864188  HIT:    1849189  MISS:      14999
cpu0_L1D PREFETCH  ACCESS:          0  HIT:          0  MISS:          0
cpu0_L1D WRITEBACK ACCESS:          0  HIT:          0  MISS:          0
cpu0_L2C TOTAL     ACCESS:      95387  HIT:      11884  MISS:      83503
cpu0_L2C LOAD      ACCESS:      65247  HIT:       2830  MISS:      62417
cpu0_L2C RFO       ACCESS:      14999  HIT:        243  MISS:      14756
cpu0_L2C PREFETCH  ACCESS:          0  HIT:          0  MISS:          0
cpu0_L2C WRITEBACK ACCESS:      15109  HIT:       8810  MISS:       6299
LLC TOTAL     ACCESS:      92150  HIT:      75101  MISS:      17049
LLC LOAD      ACCESS:      62417  HIT:      50320  MISS:      12097
LLC RFO       ACCESS:      14756  HIT:       9834  MISS:       4922
LLC PREFETCH  ACCESS:          0  HIT:          0  MISS:          0
LLC WRITEBACK ACCESS:      14946  HIT:      14920  MISS:         26
Heartbeat CPU 0 instructions: 78000002 cycles: 32524871 heartbeat IPC: 1.60279 cumulative IPC: 1.60711 (Simulation time: 0 hr 38 min 37 sec) 

Region of Interest Statistics
cpu0_DTLB TOTAL     ACCESS:    5843364  HIT:    5834062  MISS:       9302
cpu0_DTLB LOAD      ACCESS:    4835773  HIT:    4826994  MISS:       8779
cpu0_DTLB RFO       ACCESS:    1007591  HIT:    1007068  MISS:        523
cpu0_DTLB PREFETCH  ACCESS:          0  HIT:          0  MISS:          0
cpu0_DTLB WRITEBACK ACCESS:          0  HIT:          0  MISS:          0
cpu0_ITLB TOTAL     ACCESS:    2047438  HIT:    2047431  MISS:          7
cpu0_ITLB LOAD      ACCESS:    2047438  HIT:    2047431  MISS:          7
cpu0_ITLB RFO       ACCESS:          0  HIT:          0  MISS:          0
cpu0_ITLB PREFETCH  ACCESS:          0  HIT:          0  MISS:          0
cpu0_ITLB WRITEBACK ACCESS:          0  HIT:          0  MISS:          0
cpu0_L1I TOTAL     ACCESS:    1256350  HIT:    1254204  MISS:       2146
cpu0_L1I LOAD      ACCESS:    1256350  HIT:    1254204  MISS:       2146
cpu0_L1I RFO       ACCESS:          0  HIT:          0  MISS:          0
cpu0_L1I PREFETCH  ACCESS:          0  HIT:          0  MISS:          0
cpu0_L1I WRITEBACK ACCESS:          0  HIT:          0  MISS:          0
cpu0_STLB TOTAL     ACCESS:       9309  HIT:       9241  MISS:         68
cpu0_STLB LOAD      ACCESS:       8786  HIT:       8733  MISS:         53
cpu0_STLB RFO       ACCESS:        523  HIT:        508  MISS:         15
cpu0_STLB PREFETCH  ACCESS:          0  HIT:          0  MISS:          0
cpu0_STLB WRITEBACK ACCESS:          0  HIT:          0  MISS:          0
cpu0_L1D TOTAL     ACCESS:    6412840  HIT:    6328676  MISS:      84164
cpu0_L1D LOAD      ACCESS:    4466005  HIT:    4399643  MISS:      66362
cpu0_L1D RFO       ACCESS:    1946770  HIT:    1929000  MISS:      17770
cpu0_L1D PREFETCH  ACCESS:          0  HIT:          0  MISS:          0
cpu0_L1D WRITEBACK ACCESS:          0  HIT:          0  MISS:          0
cpu0_L2C TOTAL     ACCESS:     104273  HIT:      13797  MISS:      90476
cpu0_L2C LOAD      ACCESS:      68508  HIT:       3364  MISS:      65144
cpu0_L2C RFO       ACCESS:      17770  HIT:        246  MISS:      17524
cpu0_L2C PREFETCH  ACCESS:          0  HIT:          0  MISS:          0
cpu0_L2C WRITEBACK ACCESS:      17963  HIT:      10186  MISS:       7777
LLC TOTAL     ACCESS:     100498  HIT:      82515  MISS:      17983
LLC LOAD      ACCESS:      65144  HIT:      52810  MISS:      12334
LLC RFO       ACCESS:      17524  HIT:      11905  MISS:       5619
LLC PREFETCH  ACCESS:          0  HIT:          0  MISS:          0
LLC WRITEBACK ACCESS:      17799  HIT:      17773  MISS:         26
Heartbeat CPU 0 instructions: 80000000 cycles: 33774689 heartbeat IPC: 1.60023 cumulative IPC: 1.60665 (Simulation time: 0 hr 40 min 16 sec) 

Region of Interest Statistics
cpu0_DTLB TOTAL     ACCESS:    6325430  HIT:    6315980  MISS:       9450
cpu0_DTLB LOAD      ACCESS:    5266839  HIT:    5257970  MISS:       8869
cpu0_DTLB RFO       ACCESS:    1058591  HIT:    1058010  MISS:        581
cpu0_DTLB PREFETCH  ACCESS:          0  HIT:          0  MISS:          0
cpu0_DTLB WRITEBACK ACCESS:          0  HIT:          0  MISS:          0
cpu0_ITLB TOTAL     ACCESS:    2160096  HIT:    2160089  MISS:          7
cpu0_ITLB LOAD      ACCESS:    2160096  HIT:    2160089  MISS:          7
cpu0_ITLB RFO       ACCESS:          0  HIT:          0  MISS:          0
cpu0_ITLB PREFETCH  ACCESS:          0  HIT:          0  MISS:          0
cpu0_ITLB WRITEBACK ACCESS:          0  HIT:          0  MISS:          0
cpu0_L1I TOTAL     ACCESS:    1290896  HIT:    1288750  MISS:       2146
cpu0_L1I LOAD      ACCESS:    1290896  HIT:    1288750  MISS:       2146
cpu0_L1I RFO       ACCESS:          0  HIT:          0  MISS:          0
cpu0_L1I PREFETCH  ACCESS:          0  HIT:          0  MISS:          0
cpu0_L1I WRITEBACK ACCESS:          0  HIT:          0  MISS:          0
cpu0_STLB TOTAL     ACCESS:       9457  HIT:       9389  MISS:         68
cpu0_STLB LOAD      ACCESS:       8876  HIT:       8823  MISS:         53
cpu0_STLB RFO       ACCESS:        581  HIT:        566  MISS:         15
cpu0_STLB PREFETCH  ACCESS:          0  HIT:          0  MISS:          0
cpu0_STLB WRITEBACK ACCESS:          0  HIT:          0  MISS:          0
cpu0_L1D TOTAL     ACCESS:    6936439  HIT:    6846225  MISS:      90214
cpu0_L1D LOAD      ACCESS:    4907009  HIT:    4837371  MISS:      69638
cpu0_L1D RFO       ACCESS:    2029365  HIT:    2008821  MISS:      20544
cpu0_L1D PREFETCH  ACCESS:          0  HIT:          0  MISS:          0
cpu0_L1D WRITEBACK ACCESS:          0  HIT:          0  MISS:          0
cpu0_L2C TOTAL     ACCESS:     113141  HIT:      15818  MISS:      97323
cpu0_L2C LOAD      ACCESS:      71784  HIT:       3798  MISS:      67986
cpu0_L2C RFO       ACCESS:      20544  HIT:        249  MISS:      20295
cpu0_L2C PREFETCH  ACCESS:          0  HIT:          0  MISS:          0
cpu0_L2C WRITEBACK ACCESS:      20781  HIT:      11770  MISS:       9011
LLC TOTAL     ACCESS:     108924  HIT:      89882  MISS:      19042
LLC LOAD      ACCESS:      67986  HIT:      55440  MISS:      12546
LLC RFO       ACCESS:      20295  HIT:      13829  MISS:       6466
LLC PREFETCH  ACCESS:          0  HIT:          0  MISS:          0
LLC WRITEBACK ACCESS:      20612  HIT:      20586  MISS:         26
Heartbeat CPU 0 instructions: 82000002 cycles: 35025620 heartbeat IPC: 1.59881 cumulative IPC: 1.60615 (Simulation time: 0 hr 41 min 58 sec) 

Region of Interest Statistics
cpu0_DTLB TOTAL     ACCESS:    6807088  HIT:    6796888  MISS:      10200
cpu0_DTLB LOAD      ACCESS:    5697497  HIT:    5688103  MISS:       9394
cpu0_DTLB RFO       ACCESS:    1109591  HIT:    1108785  MISS:        806
cpu0_DTLB PREFETCH  ACCESS:          0  HIT:          0  MISS:          0
cpu0_DTLB WRITEBACK ACCESS:          0  HIT:          0  MISS:          0
cpu0_ITLB TOTAL     ACCESS:    2272712  HIT:    2272705  MISS:          7
cpu0_ITLB LOAD      ACCESS:    2272712  HIT:    2272705  MISS:          7
cpu0_ITLB RFO       ACCESS:          0  HIT:          0  MISS:          0
cpu0_ITLB PREFETCH  ACCESS:          0  HIT:          0  MISS:          0
cpu0_ITLB WRITEBACK ACCESS:          0  HIT:          0  MISS:          0
cpu0_L1I TOTAL     ACCESS:    1325116  HIT:    1322970  MISS:       2146
cpu0_L1I LOAD      ACCESS:    1325116  HIT:    1322970  MISS:       2146
cpu0_L1I RFO       ACCESS:          0  HIT:          0  MISS:          0
cpu0_L1I PREFETCH  ACCESS:          0  HIT:          0  MISS:          0
cpu0_L1I WRITEBACK ACCESS:          0  HIT:          0  MISS:          0
cpu0_STLB TOTAL     ACCESS:      10207  HIT:      10138  MISS:         69
cpu0_STLB LOAD      ACCESS:       9401  HIT:       9348  MISS:         53
cpu0_STLB RFO       ACCESS:        806  HIT:        790  MISS:         16
cpu0_STLB PREFETCH  ACCESS:          0  HIT:          0  MISS:          0
cpu0_STLB WRITEBACK ACCESS:          0  HIT:          0  MISS:          0
cpu0_L1D TOTAL     ACCESS:    7459561  HIT:    7363286  MISS:      96275
cpu0_L1D LOAD      ACCESS:    5347933  HIT:    5275005  MISS:      72928
cpu0_L1D RFO       ACCESS:    2111562  HIT:    2088248  MISS:      23314
cpu0_L1D PREFETCH  ACCESS:          0  HIT:          0  MISS:          0
cpu0_L1D WRITEBACK ACCESS:          0  HIT:          0  MISS:          0
cpu0_L2C TOTAL     ACCESS:     122016  HIT:      17653  MISS:     104363
cpu0_L2C LOAD      ACCESS:      75074  HIT:       4183  MISS:      70891
cpu0_L2C RFO       ACCESS:      23314  HIT:        251  MISS:      23063
cpu0_L2C PREFETCH  ACCESS:          0  HIT:          0  MISS:          0
cpu0_L2C WRITEBACK ACCESS:      23595  HIT:      13218  MISS:      10377
LLC TOTAL     ACCESS:     117445  HIT:      97199  MISS:      20246
LLC LOAD      ACCESS:      70891  HIT:      58123  MISS:      12768
LLC RFO       ACCESS:      23063  HIT:      15615  MISS:       7448
LLC PREFETCH  ACCESS:          0  HIT:          0  MISS:          0
LLC WRITEBACK ACCESS:      23459  HIT:      23433  MISS:         26
Heartbeat CPU 0 instructions: 84000000 cycles: 36275556 heartbeat IPC: 1.60008 cumulative IPC: 1.6058 (Simulation time: 0 hr 43 min 39 sec) 

Region of Interest Statistics
cpu0_DTLB TOTAL     ACCESS:    7290619  HIT:    7280272  MISS:      10347
cpu0_DTLB LOAD      ACCESS:    6130317  HIT:    6120833  MISS:       9484
cpu0_DTLB RFO       ACCESS:    1160302  HIT:    1159439  MISS:        863
cpu0_DTLB PREFETCH  ACCESS:          0  HIT:          0  MISS:          0
cpu0_DTLB WRITEBACK ACCESS:          0  HIT:          0  MISS:          0
cpu0_ITLB TOTAL     ACCESS:    2384735  HIT:    2384728  MISS:          7
cpu0_ITLB LOAD      ACCESS:    2384735  HIT:    2384728  MISS:          7
cpu0_ITLB RFO       ACCESS:          0  HIT:          0  MISS:          0
cpu0_ITLB PREFETCH  ACCESS:          0  HIT:          0  MISS:          0
cpu0_ITLB WRITEBACK ACCESS:          0  HIT:          0  MISS:          0
cpu0_L1I TOTAL     ACCESS:    1358994  HIT:    1356848  MISS:       2146
cpu0_L1I LOAD      ACCESS:    1358994  HIT:    1356848  MISS:       2146
cpu0_L1I RFO       ACCESS:          0  HIT:          0  MISS:          0
cpu0_L1I PREFETCH  ACCESS:          0  HIT:          0  MISS:          0
cpu0_L1I WRITEBACK ACCESS:          0  HIT:          0  MISS:          0
cpu0_STLB TOTAL     ACCESS:      10354  HIT:      10285  MISS:         69
cpu0_STLB LOAD      ACCESS:       9491  HIT:       9438  MISS:         53
cpu0_STLB RFO       ACCESS:        863  HIT:        847  MISS:         16
cpu0_STLB PREFETCH  ACCESS:          0  HIT:          0  MISS:          0
cpu0_STLB WRITEBACK ACCESS:          0  HIT:          0  MISS:          0
cpu0_L1D TOTAL     ACCESS:    7983462  HIT:    7881154  MISS:     102308
cpu0_L1D LOAD      ACCESS:    5790835  HIT:    5714653  MISS:      76182
cpu0_L1D RFO       ACCESS:    2192561  HIT:    2166468  MISS:      26093
cpu0_L1D PREFETCH  ACCESS:          0  HIT:          0  MISS:          0
cpu0_L1D WRITEBACK ACCESS:          0  HIT:          0  MISS:          0
cpu0_L2C TOTAL     ACCESS:     130825  HIT:      19659  MISS:     111166
cpu0_L2C LOAD      ACCESS:      78328  HIT:       4571  MISS:      73757
cpu0_L2C RFO       ACCESS:      26093  HIT:        254  MISS:      25839
cpu0_L2C PREFETCH  ACCESS:          0  HIT:          0  MISS:          0
cpu0_L2C WRITEBACK ACCESS:      26371  HIT:      14833  MISS:      11538
LLC TOTAL     ACCESS:     125932  HIT:     104247  MISS:      21685
LLC LOAD      ACCESS:      73757  HIT:      60786  MISS:      12971
LLC RFO       ACCESS:      25839  HIT:      17155  MISS:       8684
LLC PREFETCH  ACCESS:          0  HIT:          0  MISS:          0
LLC WRITEBACK ACCESS:      26304  HIT:      26278  MISS:         26
Heartbeat CPU 0 instructions: 86000003 cycles: 37550391 heartbeat IPC: 1.56883 cumulative IPC: 1.6037 (Simulation time: 0 hr 45 min 22 sec) 

Region of Interest Statistics
cpu0_DTLB TOTAL     ACCESS:    7782427  HIT:    7771374  MISS:      11053
cpu0_DTLB LOAD      ACCESS:    6574964  HIT:    6565204  MISS:       9760
cpu0_DTLB RFO       ACCESS:    1207463  HIT:    1206170  MISS:       1293
cpu0_DTLB PREFETCH  ACCESS:          0  HIT:          0  MISS:          0
cpu0_DTLB WRITEBACK ACCESS:          0  HIT:          0  MISS:          0
cpu0_ITLB TOTAL     ACCESS:    2490400  HIT:    2490393  MISS:          7
cpu0_ITLB LOAD      ACCESS:    2490400  HIT:    2490393  MISS:          7
cpu0_ITLB RFO       ACCESS:          0  HIT:          0  MISS:          0
cpu0_ITLB PREFETCH  ACCESS:          0  HIT:          0  MISS:          0
cpu0_ITLB WRITEBACK ACCESS:          0  HIT:          0  MISS:          0
cpu0_L1I TOTAL     ACCESS:    1387054  HIT:    1384908  MISS:       2146
cpu0_L1I LOAD      ACCESS:    1387054  HIT:    1384908  MISS:       2146
cpu0_L1I RFO       ACCESS:          0  HIT:          0  MISS:          0
cpu0_L1I PREFETCH  ACCESS:          0  HIT:          0  MISS:          0
cpu0_L1I WRITEBACK ACCESS:          0  HIT:          0  MISS:          0
cpu0_STLB TOTAL     ACCESS:      11060  HIT:      10987  MISS:         73
cpu0_STLB LOAD      ACCESS:       9767  HIT:       9711  MISS:         56
cpu0_STLB RFO       ACCESS:       1293  HIT:       1276  MISS:         17
cpu0_STLB PREFETCH  ACCESS:          0  HIT:          0  MISS:          0
cpu0_STLB WRITEBACK ACCESS:          0  HIT:          0  MISS:          0
cpu0_L1D TOTAL     ACCESS:    8517894  HIT:    8410065  MISS:     107829
cpu0_L1D LOAD      ACCESS:    6251691  HIT:    6172620  MISS:      79071
cpu0_L1D RFO       ACCESS:    2266133  HIT:    2237412  MISS:      28721
cpu0_L1D PREFETCH  ACCESS:          0  HIT:          0  MISS:          0
cpu0_L1D WRITEBACK ACCESS:          0  HIT:          0  MISS:          0
cpu0_L2C TOTAL     ACCESS:     138948  HIT:      21441  MISS:     117507
cpu0_L2C LOAD      ACCESS:      81217  HIT:       5039  MISS:      76178
cpu0_L2C RFO       ACCESS:      28721  HIT:        256  MISS:      28465
cpu0_L2C PREFETCH  ACCESS:          0  HIT:          0  MISS:          0
cpu0_L2C WRITEBACK ACCESS:      28973  HIT:      16145  MISS:      12828
LLC TOTAL     ACCESS:     133718  HIT:     110539  MISS:      23179
LLC LOAD      ACCESS:      76178  HIT:      63122  MISS:      13056
LLC RFO       ACCESS:      28465  HIT:      18372  MISS:      10093
LLC PREFETCH  ACCESS:          0  HIT:          0  MISS:          0
LLC WRITEBACK ACCESS:      29039  HIT:      29013  MISS:         26
Heartbeat CPU 0 instructions: 88000002 cycles: 38850872 heartbeat IPC: 1.53789 cumulative IPC: 1.60009 (Simulation time: 0 hr 47 min 1 sec) 

Region of Interest Statistics
cpu0_DTLB TOTAL     ACCESS:    8278627  HIT:    8267464  MISS:      11163
cpu0_DTLB LOAD      ACCESS:    7023062  HIT:    7013214  MISS:       9848
cpu0_DTLB RFO       ACCESS:    1255565  HIT:    1254250  MISS:       1315
cpu0_DTLB PREFETCH  ACCESS:          0  HIT:          0  MISS:          0
cpu0_DTLB WRITEBACK ACCESS:          0  HIT:          0  MISS:          0
cpu0_ITLB TOTAL     ACCESS:    2606534  HIT:    2606527  MISS:          7
cpu0_ITLB LOAD      ACCESS:    2606534  HIT:    2606527  MISS:          7
cpu0_ITLB RFO       ACCESS:          0  HIT:          0  MISS:          0
cpu0_ITLB PREFETCH  ACCESS:          0  HIT:          0  MISS:          0
cpu0_ITLB WRITEBACK ACCESS:          0  HIT:          0  MISS:          0
cpu0_L1I TOTAL     ACCESS:    1424310  HIT:    1422164  MISS:       2146
cpu0_L1I LOAD      ACCESS:    1424310  HIT:    1422164  MISS:       2146
cpu0_L1I RFO       ACCESS:          0  HIT:          0  MISS:          0
cpu0_L1I PREFETCH  ACCESS:          0  HIT:          0  MISS:          0
cpu0_L1I WRITEBACK ACCESS:          0  HIT:          0  MISS:          0
cpu0_STLB TOTAL     ACCESS:      11170  HIT:      11097  MISS:         73
cpu0_STLB LOAD      ACCESS:       9855  HIT:       9799  MISS:         56
cpu0_STLB RFO       ACCESS:       1315  HIT:       1298  MISS:         17
cpu0_STLB PREFETCH  ACCESS:          0  HIT:          0  MISS:          0
cpu0_STLB WRITEBACK ACCESS:          0  HIT:          0  MISS:          0
cpu0_L1D TOTAL     ACCESS:    9078220  HIT:    8968430  MISS:     109790
cpu0_L1D LOAD      ACCESS:    6726417  HIT:    6646699  MISS:      79718
cpu0_L1D RFO       ACCESS:    2351733  HIT:    2321698  MISS:      30035
cpu0_L1D PREFETCH  ACCESS:          0  HIT:          0  MISS:          0
cpu0_L1D WRITEBACK ACCESS:          0  HIT:          0  MISS:          0
cpu0_L2C TOTAL     ACCESS:     142134  HIT:      21916  MISS:     120218
cpu0_L2C LOAD      ACCESS:      81864  HIT:       5039  MISS:      76825
cpu0_L2C RFO       ACCESS:      30035  HIT:        258  MISS:      29777
cpu0_L2C PREFETCH  ACCESS:          0  HIT:          0  MISS:          0
cpu0_L2C WRITEBACK ACCESS:      30198  HIT:      16618  MISS:      13580
LLC TOTAL     ACCESS:     136584  HIT:     112330  MISS:      24254
LLC LOAD      ACCESS:      76825  HIT:      63540  MISS:      13285
LLC RFO       ACCESS:      29777  HIT:      18838  MISS:      10939
LLC PREFETCH  ACCESS:          0  HIT:          0  MISS:          0
LLC WRITEBACK ACCESS:      29946  HIT:      29920  MISS:         26
Heartbeat CPU 0 instructions: 90000000 cycles: 40111215 heartbeat IPC: 1.58687 cumulative IPC: 1.59943 (Simulation time: 0 hr 48 min 42 sec) 

Region of Interest Statistics
cpu0_DTLB TOTAL     ACCESS:    8760989  HIT:    8749666  MISS:      11323
cpu0_DTLB LOAD      ACCESS:    7454352  HIT:    7444404  MISS:       9948
cpu0_DTLB RFO       ACCESS:    1306637  HIT:    1305262  MISS:       1375
cpu0_DTLB PREFETCH  ACCESS:          0  HIT:          0  MISS:          0
cpu0_DTLB WRITEBACK ACCESS:          0  HIT:          0  MISS:          0
cpu0_ITLB TOTAL     ACCESS:    2719977  HIT:    2719970  MISS:          7
cpu0_ITLB LOAD      ACCESS:    2719977  HIT:    2719970  MISS:          7
cpu0_ITLB RFO       ACCESS:          0  HIT:          0  MISS:          0
cpu0_ITLB PREFETCH  ACCESS:          0  HIT:          0  MISS:          0
cpu0_ITLB WRITEBACK ACCESS:          0  HIT:          0  MISS:          0
cpu0_L1I TOTAL     ACCESS:    1458889  HIT:    1456743  MISS:       2146
cpu0_L1I LOAD      ACCESS:    1458889  HIT:    1456743  MISS:       2146
cpu0_L1I RFO       ACCESS:          0  HIT:          0  MISS:          0
cpu0_L1I PREFETCH  ACCESS:          0  HIT:          0  MISS:          0
cpu0_L1I WRITEBACK ACCESS:          0  HIT:          0  MISS:          0
cpu0_STLB TOTAL     ACCESS:      11330  HIT:      11250  MISS:         80
cpu0_STLB LOAD      ACCESS:       9955  HIT:       9896  MISS:         59
cpu0_STLB RFO       ACCESS:       1375  HIT:       1354  MISS:         21
cpu0_STLB PREFETCH  ACCESS:          0  HIT:          0  MISS:          0
cpu0_STLB WRITEBACK ACCESS:          0  HIT:          0  MISS:          0
cpu0_L1D TOTAL     ACCESS:    9600705  HIT:    9484834  MISS:     115871
cpu0_L1D LOAD      ACCESS:    7167258  HIT:    7084234  MISS:      83024
cpu0_L1D RFO       ACCESS:    2433370  HIT:    2400564  MISS:      32806
cpu0_L1D PREFETCH  ACCESS:          0  HIT:          0  MISS:          0
cpu0_L1D WRITEBACK ACCESS:          0  HIT:          0  MISS:          0
cpu0_L2C TOTAL     ACCESS:     151005  HIT:      23587  MISS:     127418
cpu0_L2C LOAD      ACCESS:      85170  HIT:       5727  MISS:      79443
cpu0_L2C RFO       ACCESS:      32806  HIT:        258  MISS:      32548
cpu0_L2C PREFETCH  ACCESS:          0  HIT:          0  MISS:          0
cpu0_L2C WRITEBACK ACCESS:      32988  HIT:      17601  MISS:      15387
LLC TOTAL     ACCESS:     144822  HIT:     118439  MISS:      26383
LLC LOAD      ACCESS:      79443  HIT:      65868  MISS:      13575
LLC RFO       ACCESS:      32548  HIT:      19770  MISS:      12778
LLC PREFETCH  ACCESS:          0  HIT:          0  MISS:          0
LLC WRITEBACK ACCESS:      32791  HIT:      32765  MISS:         26
Heartbeat CPU 0 instructions: 92000000 cycles: 41078001 heartbeat IPC: 2.06871 cumulative IPC: 1.61689 (Simulation time: 0 hr 49 min 53 sec) 

Region of Interest Statistics
cpu0_DTLB TOTAL     ACCESS:    9130676  HIT:    9118390  MISS:      12286
cpu0_DTLB LOAD      ACCESS:    7736987  HIT:    7726133  MISS:      10854
cpu0_DTLB RFO       ACCESS:    1393689  HIT:    1392257  MISS:       1432
cpu0_DTLB PREFETCH  ACCESS:          0  HIT:          0  MISS:          0
cpu0_DTLB WRITEBACK ACCESS:          0  HIT:          0  MISS:          0
cpu0_ITLB TOTAL     ACCESS:    2892955  HIT:    2892948  MISS:          7
cpu0_ITLB LOAD      ACCESS:    2892955  HIT:    2892948  MISS:          7
cpu0_ITLB RFO       ACCESS:          0  HIT:          0  MISS:          0
cpu0_ITLB PREFETCH  ACCESS:          0  HIT:          0  MISS:          0
cpu0_ITLB WRITEBACK ACCESS:          0  HIT:          0  MISS:          0
cpu0_L1I TOTAL     ACCESS:    1568851  HIT:    1566649  MISS:       2202
cpu0_L1I LOAD      ACCESS:    1568851  HIT:    1566649  MISS:       2202
cpu0_L1I RFO       ACCESS:          0  HIT:          0  MISS:          0
cpu0_L1I PREFETCH  ACCESS:          0  HIT:          0  MISS:          0
cpu0_L1I WRITEBACK ACCESS:          0  HIT:          0  MISS:          0
cpu0_STLB TOTAL     ACCESS:      12293  HIT:      12211  MISS:         82
cpu0_STLB LOAD      ACCESS:      10861  HIT:      10800  MISS:         61
cpu0_STLB RFO       ACCESS:       1432  HIT:       1411  MISS:         21
cpu0_STLB PREFETCH  ACCESS:          0  HIT:          0  MISS:          0
cpu0_STLB WRITEBACK ACCESS:          0  HIT:          0  MISS:          0
cpu0_L1D TOTAL     ACCESS:   10014322  HIT:    9888840  MISS:     125482
cpu0_L1D LOAD      ACCESS:    7398919  HIT:    7308393  MISS:      90526
cpu0_L1D RFO       ACCESS:    2615324  HIT:    2580411  MISS:      34913
cpu0_L1D PREFETCH  ACCESS:          0  HIT:          0  MISS:          0
cpu0_L1D WRITEBACK ACCESS:          0  HIT:          0  MISS:          0
cpu0_L2C TOTAL     ACCESS:     163304  HIT:      25612  MISS:     137692
cpu0_L2C LOAD      ACCESS:      92728  HIT:       6232  MISS:      86496
cpu0_L2C RFO       ACCESS:      34913  HIT:        267  MISS:      34646
cpu0_L2C PREFETCH  ACCESS:          0  HIT:          0  MISS:          0
cpu0_L2C WRITEBACK ACCESS:      35620  HIT:      19112  MISS:      16508
LLC TOTAL     ACCESS:     156954  HIT:     128395  MISS:      28559
LLC LOAD      ACCESS:      86496  HIT:      72072  MISS:      14424
LLC RFO       ACCESS:      34646  HIT:      20542  MISS:      14104
LLC PREFETCH  ACCESS:          0  HIT:          0  MISS:          0
LLC WRITEBACK ACCESS:      35770  HIT:      35744  MISS:         26
Heartbeat CPU 0 instructions: 94000001 cycles: 42066476 heartbeat IPC: 2.02332 cumulative IPC: 1.63179 (Simulation time: 0 hr 50 min 57 sec) 

Region of Interest Statistics
cpu0_DTLB TOTAL     ACCESS:    9491126  HIT:    9477512  MISS:      13614
cpu0_DTLB LOAD      ACCESS:    8010582  HIT:    7998430  MISS:      12152
cpu0_DTLB RFO       ACCESS:    1480544  HIT:    1479082  MISS:       1462
cpu0_DTLB PREFETCH  ACCESS:          0  HIT:          0  MISS:          0
cpu0_DTLB WRITEBACK ACCESS:          0  HIT:          0  MISS:          0
cpu0_ITLB TOTAL     ACCESS:    3083619  HIT:    3083611  MISS:          8
cpu0_ITLB LOAD      ACCESS:    3083619  HIT:    3083611  MISS:          8
cpu0_ITLB RFO       ACCESS:          0  HIT:          0  MISS:          0
cpu0_ITLB PREFETCH  ACCESS:          0  HIT:          0  MISS:          0
cpu0_ITLB WRITEBACK ACCESS:          0  HIT:          0  MISS:          0
cpu0_L1I TOTAL     ACCESS:    1691640  HIT:    1689249  MISS:       2391
cpu0_L1I LOAD      ACCESS:    1691640  HIT:    1689249  MISS:       2391
cpu0_L1I RFO       ACCESS:          0  HIT:          0  MISS:          0
cpu0_L1I PREFETCH  ACCESS:          0  HIT:          0  MISS:          0
cpu0_L1I WRITEBACK ACCESS:          0  HIT:          0  MISS:          0
cpu0_STLB TOTAL     ACCESS:      13622  HIT:      13537  MISS:         85
cpu0_STLB LOAD      ACCESS:      12160  HIT:      12096  MISS:         64
cpu0_STLB RFO       ACCESS:       1462  HIT:       1441  MISS:         21
cpu0_STLB PREFETCH  ACCESS:          0  HIT:          0  MISS:          0
cpu0_STLB WRITEBACK ACCESS:          0  HIT:          0  MISS:          0
cpu0_L1D TOTAL     ACCESS:   10431238  HIT:   10298361  MISS:     132877
cpu0_L1D LOAD      ACCESS:    7617046  HIT:    7519510  MISS:      97536
cpu0_L1D RFO       ACCESS:    2814110  HIT:    2778815  MISS:      35295
cpu0_L1D PREFETCH  ACCESS:          0  HIT:          0  MISS:          0
cpu0_L1D WRITEBACK ACCESS:          0  HIT:          0  MISS:          0
cpu0_L2C TOTAL     ACCESS:     171278  HIT:      26001  MISS:     145277
cpu0_L2C LOAD      ACCESS:      99927  HIT:       6305  MISS:      93622
cpu0_L2C RFO       ACCESS:      35295  HIT:        269  MISS:      35026
cpu0_L2C PREFETCH  ACCESS:          0  HIT:          0  MISS:          0
cpu0_L2C WRITEBACK ACCESS:      36010  HIT:      19426  MISS:      16584
LLC TOTAL     ACCESS:     164877  HIT:     135449  MISS:      29428
LLC LOAD      ACCESS:      93622  HIT:      78479  MISS:      15143
LLC RFO       ACCESS:      35026  HIT:      20773  MISS:      14253
LLC PREFETCH  ACCESS:          0  HIT:          0  MISS:          0
LLC WRITEBACK ACCESS:      36184  HIT:      36158  MISS:         26
Heartbeat CPU 0 instructions: 96000002 cycles: 43151823 heartbeat IPC: 1.84273 cumulative IPC: 1.63995 (Simulation time: 0 hr 52 min 0 sec) 

Region of Interest Statistics
cpu0_DTLB TOTAL     ACCESS:    9845281  HIT:    9830459  MISS:      14822
cpu0_DTLB LOAD      ACCESS:    8291244  HIT:    8277912  MISS:      13332
cpu0_DTLB RFO       ACCESS:    1554037  HIT:    1552547  MISS:       1490
cpu0_DTLB PREFETCH  ACCESS:          0  HIT:          0  MISS:          0
cpu0_DTLB WRITEBACK ACCESS:          0  HIT:          0  MISS:          0
cpu0_ITLB TOTAL     ACCESS:    3265322  HIT:    3265314  MISS:          8
cpu0_ITLB LOAD      ACCESS:    3265322  HIT:    3265314  MISS:          8
cpu0_ITLB RFO       ACCESS:          0  HIT:          0  MISS:          0
cpu0_ITLB PREFETCH  ACCESS:          0  HIT:          0  MISS:          0
cpu0_ITLB WRITEBACK ACCESS:          0  HIT:          0  MISS:          0
cpu0_L1I TOTAL     ACCESS:    1794707  HIT:    1792301  MISS:       2406
cpu0_L1I LOAD      ACCESS:    1794707  HIT:    1792301  MISS:       2406
cpu0_L1I RFO       ACCESS:          0  HIT:          0  MISS:          0
cpu0_L1I PREFETCH  ACCESS:          0  HIT:          0  MISS:          0
cpu0_L1I WRITEBACK ACCESS:          0  HIT:          0  MISS:          0
cpu0_STLB TOTAL     ACCESS:      14830  HIT:      14743  MISS:         87
cpu0_STLB LOAD      ACCESS:      13340  HIT:      13275  MISS:         65
cpu0_STLB RFO       ACCESS:       1490  HIT:       1468  MISS:         22
cpu0_STLB PREFETCH  ACCESS:          0  HIT:          0  MISS:          0
cpu0_STLB WRITEBACK ACCESS:          0  HIT:          0  MISS:          0
cpu0_L1D TOTAL     ACCESS:   10800369  HIT:   10658705  MISS:     141664
cpu0_L1D LOAD      ACCESS:    7820206  HIT:    7714318  MISS:     105888
cpu0_L1D RFO       ACCESS:    2980079  HIT:    2944351  MISS:      35728
cpu0_L1D PREFETCH  ACCESS:          0  HIT:          0  MISS:          0
cpu0_L1D WRITEBACK ACCESS:          0  HIT:          0  MISS:          0
cpu0_L2C TOTAL     ACCESS:     180402  HIT:      26403  MISS:     153999
cpu0_L2C LOAD      ACCESS:     108294  HIT:       6425  MISS:     101869
cpu0_L2C RFO       ACCESS:      35728  HIT:        273  MISS:      35455
cpu0_L2C PREFETCH  ACCESS:          0  HIT:          0  MISS:          0
cpu0_L2C WRITEBACK ACCESS:      36332  HIT:      19703  MISS:      16629
LLC TOTAL     ACCESS:     173874  HIT:     143061  MISS:      30813
LLC LOAD      ACCESS:     101869  HIT:      85465  MISS:      16404
LLC RFO       ACCESS:      35455  HIT:      21078  MISS:      14377
LLC PREFETCH  ACCESS:          0  HIT:          0  MISS:          0
LLC WRITEBACK ACCESS:      36504  HIT:      36478  MISS:         26
Heartbeat CPU 0 instructions: 98000000 cycles: 44296405 heartbeat IPC: 1.74736 cumulative IPC: 1.64416 (Simulation time: 0 hr 53 min 0 sec) 

Region of Interest Statistics
cpu0_DTLB TOTAL     ACCESS:   10196810  HIT:   10180688  MISS:      16122
cpu0_DTLB LOAD      ACCESS:    8572518  HIT:    8557907  MISS:      14611
cpu0_DTLB RFO       ACCESS:    1624292  HIT:    1622781  MISS:       1511
cpu0_DTLB PREFETCH  ACCESS:          0  HIT:          0  MISS:          0
cpu0_DTLB WRITEBACK ACCESS:          0  HIT:          0  MISS:          0
cpu0_ITLB TOTAL     ACCESS:    3448409  HIT:    3448401  MISS:          8
cpu0_ITLB LOAD      ACCESS:    3448409  HIT:    3448401  MISS:          8
cpu0_ITLB RFO       ACCESS:          0  HIT:          0  MISS:          0
cpu0_ITLB PREFETCH  ACCESS:          0  HIT:          0  MISS:          0
cpu0_ITLB WRITEBACK ACCESS:          0  HIT:          0  MISS:          0
cpu0_L1I TOTAL     ACCESS:    1894466  HIT:    1892055  MISS:       2411
cpu0_L1I LOAD      ACCESS:    1894466  HIT:    1892055  MISS:       2411
cpu0_L1I RFO       ACCESS:          0  HIT:          0  MISS:          0
cpu0_L1I PREFETCH  ACCESS:          0  HIT:          0  MISS:          0
cpu0_L1I WRITEBACK ACCESS:          0  HIT:          0  MISS:          0
cpu0_STLB TOTAL     ACCESS:      16130  HIT:      16042  MISS:         88
cpu0_STLB LOAD      ACCESS:      14619  HIT:      14553  MISS:         66
cpu0_STLB RFO       ACCESS:       1511  HIT:       1489  MISS:         22
cpu0_STLB PREFETCH  ACCESS:          0  HIT:          0  MISS:          0
cpu0_STLB WRITEBACK ACCESS:          0  HIT:          0  MISS:          0
cpu0_L1D TOTAL     ACCESS:   11160127  HIT:   11009587  MISS:     150540
cpu0_L1D LOAD      ACCESS:    8020267  HIT:    7905829  MISS:     114438
cpu0_L1D RFO       ACCESS:    3139775  HIT:    3103722  MISS:      36053
cpu0_L1D PREFETCH  ACCESS:          0  HIT:          0  MISS:          0
cpu0_L1D WRITEBACK ACCESS:          0  HIT:          0  MISS:          0
cpu0_L2C TOTAL     ACCESS:     189646  HIT:      26838  MISS:     162808
cpu0_L2C LOAD      ACCESS:     116849  HIT:       6553  MISS:     110296
cpu0_L2C RFO       ACCESS:      36053  HIT:        279  MISS:      35774
cpu0_L2C PREFETCH  ACCESS:          0  HIT:          0  MISS:          0
cpu0_L2C WRITEBACK ACCESS:      36695  HIT:      20004  MISS:      16691
LLC TOTAL     ACCESS:     182988  HIT:     150457  MISS:      32531
LLC LOAD      ACCESS:     110296  HIT:      92261  MISS:      18035
LLC RFO       ACCESS:      35774  HIT:      21310  MISS:      14464
LLC PREFETCH  ACCESS:          0  HIT:          0  MISS:          0
LLC WRITEBACK ACCESS:      36871  HIT:      36845  MISS:         26
Heartbeat CPU 0 instructions: 100000002 cycles: 45367512 heartbeat IPC: 1.86723 cumulative IPC: 1.65206 (Simulation time: 0 hr 54 min 1 sec) 

Region of Interest Statistics
cpu0_DTLB TOTAL     ACCESS:   10548235  HIT:   10530777  MISS:      17458
cpu0_DTLB LOAD      ACCESS:    8850268  HIT:    8834340  MISS:      15928
cpu0_DTLB RFO       ACCESS:    1697967  HIT:    1696437  MISS:       1530
cpu0_DTLB PREFETCH  ACCESS:          0  HIT:          0  MISS:          0
cpu0_DTLB WRITEBACK ACCESS:          0  HIT:          0  MISS:          0
cpu0_ITLB TOTAL     ACCESS:    3602784  HIT:    3602776  MISS:          8
cpu0_ITLB LOAD      ACCESS:    3602784  HIT:    3602776  MISS:          8
cpu0_ITLB RFO       ACCESS:          0  HIT:          0  MISS:          0
cpu0_ITLB PREFETCH  ACCESS:          0  HIT:          0  MISS:          0
cpu0_ITLB WRITEBACK ACCESS:          0  HIT:          0  MISS:          0
cpu0_L1I TOTAL     ACCESS:    1998415  HIT:    1995998  MISS:       2417
cpu0_L1I LOAD      ACCESS:    1998415  HIT:    1995998  MISS:       2417
cpu0_L1I RFO       ACCESS:          0  HIT:          0  MISS:          0
cpu0_L1I PREFETCH  ACCESS:          0  HIT:          0  MISS:          0
cpu0_L1I WRITEBACK ACCESS:          0  HIT:          0  MISS:          0
cpu0_STLB TOTAL     ACCESS:      17466  HIT:      17375  MISS:         91
cpu0_STLB LOAD      ACCESS:      15936  HIT:      15867  MISS:         69
cpu0_STLB RFO       ACCESS:       1530  HIT:       1508  MISS:         22
cpu0_STLB PREFETCH  ACCESS:          0  HIT:          0  MISS:          0
cpu0_STLB WRITEBACK ACCESS:          0  HIT:          0  MISS:          0
cpu0_L1D TOTAL     ACCESS:   11526227  HIT:   11367044  MISS:     159183
cpu0_L1D LOAD      ACCESS:    8219514  HIT:    8096823  MISS:     122691
cpu0_L1D RFO       ACCESS:    3306625  HIT:    3270185  MISS:      36440
cpu0_L1D PREFETCH  ACCESS:          0  HIT:          0  MISS:          0
cpu0_L1D WRITEBACK ACCESS:          0  HIT:          0  MISS:          0
cpu0_L2C TOTAL     ACCESS:     198720  HIT:      27310  MISS:     171410
cpu0_L2C LOAD      ACCESS:     125108  HIT:       6663  MISS:     118445
cpu0_L2C RFO       ACCESS:      36440  HIT:        285  MISS:      36155
cpu0_L2C PREFETCH  ACCESS:          0  HIT:          0  MISS:          0
cpu0_L2C WRITEBACK ACCESS:      37120  HIT:      20360  MISS:      16760
LLC TOTAL     ACCESS:     191940  HIT:     157387  MISS:      34553
LLC LOAD      ACCESS:     118445  HIT:      98503  MISS:      19942
LLC RFO       ACCESS:      36155  HIT:      21576  MISS:      14579
LLC PREFETCH  ACCESS:          0  HIT:          0  MISS:          0
LLC WRITEBACK ACCESS:      37290  HIT:      37264  MISS:         26
Heartbeat CPU 0 instructions: 102000000 cycles: 46454811 heartbeat IPC: 1.83942 cumulative IPC: 1.65856 (Simulation time: 0 hr 55 min 7 sec) 

Region of Interest Statistics
cpu0_DTLB TOTAL     ACCESS:   10903640  HIT:   10884717  MISS:      18923
cpu0_DTLB LOAD      ACCESS:    9128382  HIT:    9111018  MISS:      17364
cpu0_DTLB RFO       ACCESS:    1775258  HIT:    1773699  MISS:       1559
cpu0_DTLB PREFETCH  ACCESS:          0  HIT:          0  MISS:          0
cpu0_DTLB WRITEBACK ACCESS:          0  HIT:          0  MISS:          0
cpu0_ITLB TOTAL     ACCESS:    3757713  HIT:    3757705  MISS:          8
cpu0_ITLB LOAD      ACCESS:    3757713  HIT:    3757705  MISS:          8
cpu0_ITLB RFO       ACCESS:          0  HIT:          0  MISS:          0
cpu0_ITLB PREFETCH  ACCESS:          0  HIT:          0  MISS:          0
cpu0_ITLB WRITEBACK ACCESS:          0  HIT:          0  MISS:          0
cpu0_L1I TOTAL     ACCESS:    2106559  HIT:    2104135  MISS:       2424
cpu0_L1I LOAD      ACCESS:    2106559  HIT:    2104135  MISS:       2424
cpu0_L1I RFO       ACCESS:          0  HIT:          0  MISS:          0
cpu0_L1I PREFETCH  ACCESS:          0  HIT:          0  MISS:          0
cpu0_L1I WRITEBACK ACCESS:          0  HIT:          0  MISS:          0
cpu0_STLB TOTAL     ACCESS:      18931  HIT:      18839  MISS:         92
cpu0_STLB LOAD      ACCESS:      17372  HIT:      17302  MISS:         70
cpu0_STLB RFO       ACCESS:       1559  HIT:       1537  MISS:         22
cpu0_STLB PREFETCH  ACCESS:          0  HIT:          0  MISS:          0
cpu0_STLB WRITEBACK ACCESS:          0  HIT:          0  MISS:          0
cpu0_L1D TOTAL     ACCESS:   11906975  HIT:   11739430  MISS:     167545
cpu0_L1D LOAD      ACCESS:    8425764  HIT:    8295146  MISS:     130618
cpu0_L1D RFO       ACCESS:    3481122  HIT:    3444248  MISS:      36874
cpu0_L1D PREFETCH  ACCESS:          0  HIT:          0  MISS:          0
cpu0_L1D WRITEBACK ACCESS:          0  HIT:          0  MISS:          0
cpu0_L2C TOTAL     ACCESS:     207457  HIT:      27710  MISS:     179747
cpu0_L2C LOAD      ACCESS:     133042  HIT:       6740  MISS:     126302
cpu0_L2C RFO       ACCESS:      36874  HIT:        297  MISS:      36577
cpu0_L2C PREFETCH  ACCESS:          0  HIT:          0  MISS:          0
cpu0_L2C WRITEBACK ACCESS:      37488  HIT:      20671  MISS:      16817
LLC TOTAL     ACCESS:     200579  HIT:     163842  MISS:      36737
LLC LOAD      ACCESS:     126302  HIT:     104301  MISS:      22001
LLC RFO       ACCESS:      36577  HIT:      21873  MISS:      14704
LLC PREFETCH  ACCESS:          0  HIT:          0  MISS:          0
LLC WRITEBACK ACCESS:      37649  HIT:      37623  MISS:         26
Heartbeat CPU 0 instructions: 104000000 cycles: 47977202 heartbeat IPC: 1.31372 cumulative IPC: 1.64259 (Simulation time: 0 hr 56 min 12 sec) 

Region of Interest Statistics
cpu0_DTLB TOTAL     ACCESS:   11340724  HIT:   11320663  MISS:      20061
cpu0_DTLB LOAD      ACCESS:    9472660  HIT:    9454226  MISS:      18434
cpu0_DTLB RFO       ACCESS:    1868064  HIT:    1866437  MISS:       1627
cpu0_DTLB PREFETCH  ACCESS:          0  HIT:          0  MISS:          0
cpu0_DTLB WRITEBACK ACCESS:          0  HIT:          0  MISS:          0
cpu0_ITLB TOTAL     ACCESS:    3901769  HIT:    3901758  MISS:         11
cpu0_ITLB LOAD      ACCESS:    3901769  HIT:    3901758  MISS:         11
cpu0_ITLB RFO       ACCESS:          0  HIT:          0  MISS:          0
cpu0_ITLB PREFETCH  ACCESS:          0  HIT:          0  MISS:          0
cpu0_ITLB WRITEBACK ACCESS:          0  HIT:          0  MISS:          0
cpu0_L1I TOTAL     ACCESS:    2199888  HIT:    2196651  MISS:       3237
cpu0_L1I LOAD      ACCESS:    2199888  HIT:    2196651  MISS:       3237
cpu0_L1I RFO       ACCESS:          0  HIT:          0  MISS:          0
cpu0_L1I PREFETCH  ACCESS:          0  HIT:          0  MISS:          0
cpu0_L1I WRITEBACK ACCESS:          0  HIT:          0  MISS:          0
cpu0_STLB TOTAL     ACCESS:      20072  HIT:      19977  MISS:         95
cpu0_STLB LOAD      ACCESS:      18445  HIT:      18373  MISS:         72
cpu0_STLB RFO       ACCESS:       1627  HIT:       1604  MISS:         23
cpu0_STLB PREFETCH  ACCESS:          0  HIT:          0  MISS:          0
cpu0_STLB WRITEBACK ACCESS:          0  HIT:          0  MISS:          0
cpu0_L1D TOTAL     ACCESS:   12377695  HIT:   12204198  MISS:     173497
cpu0_L1D LOAD      ACCESS:    8728255  HIT:    8592636  MISS:     135619
cpu0_L1D RFO       ACCESS:    3649348  HIT:    3611525  MISS:      37823
cpu0_L1D PREFETCH  ACCESS:          0  HIT:          0  MISS:          0
cpu0_L1D WRITEBACK ACCESS:          0  HIT:          0  MISS:          0
cpu0_L2C TOTAL     ACCESS:     214961  HIT:      28561  MISS:     186400
cpu0_L2C LOAD      ACCESS:     138856  HIT:       6952  MISS:     131904
cpu0_L2C RFO       ACCESS:      37823  HIT:        461  MISS:      37362
cpu0_L2C PREFETCH  ACCESS:          0  HIT:          0  MISS:          0
cpu0_L2C WRITEBACK ACCESS:      38227  HIT:      21146  MISS:      17081
LLC TOTAL     ACCESS:     207504  HIT:     167942  MISS:      39562
LLC LOAD      ACCESS:     131904  HIT:     107481  MISS:      24423
LLC RFO       ACCESS:      37362  HIT:      22263  MISS:      15099
LLC PREFETCH  ACCESS:          0  HIT:          0  MISS:          0
LLC WRITEBACK ACCESS:      38185  HIT:      38152  MISS:         33
Heartbeat CPU 0 instructions: 106000000 cycles: 49812372 heartbeat IPC: 1.08982 cumulative IPC: 1.61336 (Simulation time: 0 hr 57 min 11 sec) 

Region of Interest Statistics
cpu0_DTLB TOTAL     ACCESS:   11849390  HIT:   11828951  MISS:      20439
cpu0_DTLB LOAD      ACCESS:    9836390  HIT:    9817614  MISS:      18776
cpu0_DTLB RFO       ACCESS:    2013000  HIT:    2011337  MISS:       1663
cpu0_DTLB PREFETCH  ACCESS:          0  HIT:          0  MISS:          0
cpu0_DTLB WRITEBACK ACCESS:          0  HIT:          0  MISS:          0
cpu0_ITLB TOTAL     ACCESS:    4053461  HIT:    4053450  MISS:         11
cpu0_ITLB LOAD      ACCESS:    4053461  HIT:    4053450  MISS:         11
cpu0_ITLB RFO       ACCESS:          0  HIT:          0  MISS:          0
cpu0_ITLB PREFETCH  ACCESS:          0  HIT:          0  MISS:          0
cpu0_ITLB WRITEBACK ACCESS:          0  HIT:          0  MISS:          0
cpu0_L1I TOTAL     ACCESS:    2318892  HIT:    2314978  MISS:       3914
cpu0_L1I LOAD      ACCESS:    2318892  HIT:    2314978  MISS:       3914
cpu0_L1I RFO       ACCESS:          0  HIT:          0  MISS:          0
cpu0_L1I PREFETCH  ACCESS:          0  HIT:          0  MISS:          0
cpu0_L1I WRITEBACK ACCESS:          0  HIT:          0  MISS:          0
cpu0_STLB TOTAL     ACCESS:      20450  HIT:      20355  MISS:         95
cpu0_STLB LOAD      ACCESS:      18787  HIT:      18715  MISS:         72
cpu0_STLB RFO       ACCESS:       1663  HIT:       1640  MISS:         23
cpu0_STLB PREFETCH  ACCESS:          0  HIT:          0  MISS:          0
cpu0_STLB WRITEBACK ACCESS:          0  HIT:          0  MISS:          0
cpu0_L1D TOTAL     ACCESS:   12987452  HIT:   12813726  MISS:     173726
cpu0_L1D LOAD      ACCESS:    9095159  HIT:    8959407  MISS:     135752
cpu0_L1D RFO       ACCESS:    3892201  HIT:    3854282  MISS:      37919
cpu0_L1D PREFETCH  ACCESS:          0  HIT:          0  MISS:          0
cpu0_L1D WRITEBACK ACCESS:          0  HIT:          0  MISS:          0
cpu0_L2C TOTAL     ACCESS:     215991  HIT:      29226  MISS:     186765
cpu0_L2C LOAD      ACCESS:     139666  HIT:       7438  MISS:     132228
cpu0_L2C RFO       ACCESS:      37919  HIT:        539  MISS:      37380
cpu0_L2C PREFETCH  ACCESS:          0  HIT:          0  MISS:          0
cpu0_L2C WRITEBACK ACCESS:      38351  HIT:      21247  MISS:      17104
[...]

ChampSim completed all CPUs

Region of Interest Statistics

CPU 0 cumulative IPC: 1.51931 instructions: 1500000002 cycles: 987293102
cpu0_DTLB TOTAL     ACCESS:  327457528  HIT:  327007599  MISS:     449929
cpu0_DTLB LOAD      ACCESS:  271790428  HIT:  271391971  MISS:     398457
cpu0_DTLB RFO       ACCESS:   55667100  HIT:   55615628  MISS:      51472
cpu0_DTLB PREFETCH  ACCESS:          0  HIT:          0  MISS:          0
cpu0_DTLB WRITEBACK ACCESS:          0  HIT:          0  MISS:          0
cpu0_DTLB TRANSLATION ACCESS:          0  HIT:          0  MISS:          0
cpu0_DTLB PREFETCH  REQUESTED:          0  ISSUED:          0  USEFUL:          0  USELESS:          0
cpu0_DTLB AVERAGE MISS LATENCY: 9.62154 cycles
cpu0_ITLB TOTAL     ACCESS:  111989231  HIT:  111989005  MISS:        226
cpu0_ITLB LOAD      ACCESS:  111989231  HIT:  111989005  MISS:        226
cpu0_ITLB RFO       ACCESS:          0  HIT:          0  MISS:          0
cpu0_ITLB PREFETCH  ACCESS:          0  HIT:          0  MISS:          0
cpu0_ITLB WRITEBACK ACCESS:          0  HIT:          0  MISS:          0
cpu0_ITLB TRANSLATION ACCESS:          0  HIT:          0  MISS:          0
cpu0_ITLB PREFETCH  REQUESTED:          0  ISSUED:          0  USEFUL:          0  USELESS:          0
cpu0_ITLB AVERAGE MISS LATENCY: 51 cycles
cpu0_L1I TOTAL     ACCESS:   49933634  HIT:   49832688  MISS:     100946
cpu0_L1I LOAD      ACCESS:   49933634  HIT:   49832688  MISS:     100946
cpu0_L1I RFO       ACCESS:          0  HIT:          0  MISS:          0
cpu0_L1I PREFETCH  ACCESS:          0  HIT:          0  MISS:          0
cpu0_L1I WRITEBACK ACCESS:          0  HIT:          0  MISS:          0
cpu0_L1I TRANSLATION ACCESS:          0  HIT:          0  MISS:          0
cpu0_L1I PREFETCH  REQUESTED:          0  ISSUED:          0  USEFUL:          0  USELESS:          0
cpu0_L1I AVERAGE MISS LATENCY: 88.7126 cycles
cpu0_STLB TOTAL     ACCESS:     450155  HIT:     444651  MISS:       5504
cpu0_STLB LOAD      ACCESS:     398683  HIT:     394878  MISS:       3805
cpu0_STLB RFO       ACCESS:      51472  HIT:      49773  MISS:       1699
cpu0_STLB PREFETCH  ACCESS:          0  HIT:          0  MISS:          0
cpu0_STLB WRITEBACK ACCESS:          0  HIT:          0  MISS:          0
cpu0_STLB TRANSLATION ACCESS:          0  HIT:          0  MISS:          0
cpu0_STLB PREFETCH  REQUESTED:          0  ISSUED:          0  USEFUL:          0  USELESS:          0
cpu0_STLB AVERAGE MISS LATENCY: 51.661 cycles
cpu0_L1D TOTAL     ACCESS:  356910149  HIT:  352837457  MISS:    4072692
cpu0_L1D LOAD      ACCESS:  254955105  HIT:  252000171  MISS:    2954934
cpu0_L1D RFO       ACCESS:  101949863  HIT:  100834115  MISS:    1115748
cpu0_L1D PREFETCH  ACCESS:          0  HIT:          0  MISS:          0
cpu0_L1D WRITEBACK ACCESS:          0  HIT:          0  MISS:          0
cpu0_L1D TRANSLATION ACCESS:       5181  HIT:       3171  MISS:       2010
cpu0_L1D PREFETCH  REQUESTED:          0  ISSUED:          0  USEFUL:          0  USELESS:          0
cpu0_L1D AVERAGE MISS LATENCY: 78.7868 cycles
cpu0_L2C TOTAL     ACCESS:    5303772  HIT:     835052  MISS:    4468720
cpu0_L2C LOAD      ACCESS:    3055877  HIT:     220453  MISS:    2835424
cpu0_L2C RFO       ACCESS:    1115738  HIT:      10742  MISS:    1104996
cpu0_L2C PREFETCH  ACCESS:          0  HIT:          0  MISS:          0
cpu0_L2C WRITEBACK ACCESS:    1130147  HIT:     603741  MISS:     526406
cpu0_L2C TRANSLATION ACCESS:       2010  HIT:        116  MISS:       1894
cpu0_L2C PREFETCH  REQUESTED:          0  ISSUED:          0  USEFUL:          0  USELESS:          0
cpu0_L2C AVERAGE MISS LATENCY: 63.5211 cycles
LLC TOTAL     ACCESS:    5065429  HIT:    4102561  MISS:     962868
LLC LOAD      ACCESS:    2835421  HIT:    2314511  MISS:     520910
LLC RFO       ACCESS:    1104996  HIT:     664200  MISS:     440796
LLC PREFETCH  ACCESS:          0  HIT:          0  MISS:          0
LLC WRITEBACK ACCESS:    1123118  HIT:    1122098  MISS:       1020
LLC TRANSLATION ACCESS:       1894  HIT:       1752  MISS:        142
LLC PREFETCH  REQUESTED:          0  ISSUED:          0  USEFUL:          0  USELESS:          0
LLC AVERAGE MISS LATENCY: 208.816 cycles
~~~~~~~~~~Reuse Distance Profiler output~~~~~~~~~~
0	60084288	22138592
1	29348048	18222816
2	26143632	19097600
3	26393648	21560768
4	22110208	18321456
5	14700992	12487264
6	13462848	11080592
7	12877856	10666960
8	12278144	10565360
9	7615088	6465056
10	6441856	5536752
11	6409152	5536624
12	6006480	5155168
13	5512608	4760784
14	3834464	2562352
15	2977504	2122640
16	3171600	2212480
17	3120560	2350448
18	2976640	2312224
19	2840784	2165888
20	2613696	1902608
21	2578768	1813168
22	2420256	1652640
23	2310976	1573872
24	2170656	1451648
25	2019088	1352752
26	1940000	1280960
27	1763552	1153216
28	1752816	1243776
29	1448224	1048352
30	1295360	974064
31	1651488	1427808
32	951088	778432
33	920896	805056
34	974496	873936
35	900480	802160
36	952144	833696
37	970464	848768
38	929904	791904
39	826192	695712
40	786784	626416
41	817712	625232
42	845376	623248
43	864944	626384
44	839648	586048
45	927760	661152
46	880112	618208
47	945920	742016
48	792640	621008
49	755056	637424
50	639920	549712
51	602288	523168
52	482992	408928
53	455872	386832
54	426560	354496
55	425360	352240
56	359440	302480
57	318672	271616
58	387744	346320
59	312752	280208
60	287472	262208
61	258688	229424
62	256320	233872
63	235872	221232
64	504928	479104
66	532496	487616
68	565456	475584
70	387136	341424
72	350176	324192
74	368000	319520
76	461216	384352
78	444896	407760
80	449072	414976
82	487888	435728
84	495152	460816
86	423392	397424
88	428400	374272
90	430864	366832
92	454448	360608
94	444128	344608
96	454224	335472
98	462864	330512
100	465088	320688
102	518512	386144
104	460720	346192
106	430864	305792
108	405856	278448
110	357376	242624
112	346560	237344
114	406720	249280
116	394768	237088
118	376544	244368
120	441392	322352
122	413376	322960
124	476464	350368
126	465584	335440
128	960832	829072
132	919024	837152
136	1028224	960176
140	540640	486192
144	369648	331024
148	303440	266640
152	275856	239504
156	223376	203392
160	230096	214112
164	184832	170240
168	134448	118288
172	107072	97184
176	110368	100992
180	101520	92480
184	96000	88048
188	97184	86704
192	114176	77040
196	124640	112880
200	148672	117392
204	119808	88752
208	114816	93120
212	90144	80464
216	69920	61888
220	104208	88176
224	79856	62464
228	89344	66464
232	71664	58096
236	68976	52352
240	63872	52848
244	61856	55984
248	66912	57632
252	86512	68880
256	186528	164912
264	309760	290368
272	397616	388160
280	325488	313568
288	201856	194976
296	133216	124944
304	118208	105024
312	119888	106272
320	133568	121424
328	170064	148256
336	178704	161776
344	168896	157456
352	200320	178688
360	249936	205184
368	288368	225920
376	302016	225840
384	329776	243808
392	382400	281344
400	429568	321120
408	514224	402432
416	619552	490768
424	703072	538960
432	712608	528576
440	674832	471280
448	654704	402368
456	677072	380240
464	792656	413040
472	943424	455312
480	1082048	478960
488	1089488	436960
496	925584	351600
504	627104	240800
512	535888	263728
528	269824	220400
544	294992	258976
560	225568	188304
576	162592	136240
592	165296	131184
608	197408	143744
624	173552	138144
640	192144	149216
656	195216	154880
672	205008	161712
688	205872	166112
704	201536	168384
720	245232	211200
736	340944	272848
752	309632	263600
768	298960	263856
784	305952	254368
800	317952	238784
816	338960	246800
832	375760	281440
848	374048	289728
864	366352	320688
880	388944	357936
896	442720	423056
912	516800	505232
928	603088	587840
944	718064	697184
960	824512	804160
976	792384	773904
992	550752	541984
1008	245744	237040
1024	135456	118576
1056	106192	90416
1088	138608	125424
1120	104928	93408
1152	97760	88160
1184	134688	119808
1216	152096	136784
1248	117808	108448
1280	82016	73456
1312	61968	50256
1344	77024	63200
1376	88496	73184
1408	100496	87840
1440	91520	76688
1472	67216	55344
1504	62176	50592
1536	91696	79328
1568	114272	101248
1600	125600	111872
1632	151616	135024
1664	160880	147216
1696	110400	98560
1728	79776	68752
1760	63216	53024
1792	47168	38256
1824	47856	39456
1856	50432	43216
1888	55472	47552
1920	56608	49984
1952	51136	44336
1984	42384	35872
2016	42112	36352
2048	74176	64144
2112	66592	56240
2176	54528	44672
2240	48816	39152
2304	55600	48832
2368	57712	50272
2432	55744	48976
2496	57568	49728
2560	47760	39744
2624	46752	40352
2688	41696	37872
2752	37904	33984
2816	31632	28304
2880	32480	29584
2944	36448	33600
3008	38992	35920
3072	47360	44560
3136	39552	36832
3200	33088	30464
3264	31776	28736
3328	34480	31264
3392	37040	33936
3456	39664	37088
3520	42272	39616
3584	42688	39872
3648	41216	38624
3712	39536	36512
3776	34624	31808
3840	33664	31552
3904	35376	32800
3968	37424	34768
4032	34080	31472
4096	60416	55360
4224	65376	60656
4352	70192	65680
4480	64288	58880
4608	68224	63712
4736	73280	68704
4864	65648	61312
4992	64432	59504
5120	64304	60480
5248	66992	63072
5376	65504	62064
5504	63104	59824
5632	55040	51536
5760	54416	51056
5888	56384	53056
6016	54000	50560
6144	53648	50224
6272	56736	54096
6400	44848	42480
6528	38000	35200
6656	33040	30800
6784	35248	33136
6912	37152	34768
7040	37824	35248
7168	36624	34352
7296	30064	27984
7424	22768	20848
7552	18720	17488
7680	16384	15344
7808	15088	14080
7936	15952	14368
8064	14688	13376
8192	27648	25952
8448	31696	29216
8704	36096	33216
8960	35504	33008
9216	36176	32752
9472	32496	30096
9728	26384	24160
9984	26192	23712
10240	35664	33216
10496	35296	32912
10752	35952	33232
11008	29712	28064
11264	27584	25728
11520	21264	19824
11776	21744	20304
12032	23216	21392
12288	24160	22144
12544	23936	22592
12800	22160	20896
13056	19024	18000
13312	18400	17360
13568	16448	14976
13824	16144	14784
14080	15840	14528
14336	18768	17520
14592	16784	15712
14848	14992	14048
15104	15328	13840
15360	15904	14240
15616	14224	13104
15872	13312	12256
16128	11712	10608
16384	26080	23856
16896	26528	24464
17408	29104	26528
17920	29632	27456
18432	31024	28064
18944	31744	28624
19456	39232	36256
19968	30976	29056
20480	23664	22288
20992	17248	16368
21504	16336	15360
22016	12784	12064
22528	10976	10192
23040	9184	8512
23552	9232	8832
24064	9568	8944
24576	8816	8032
25088	7184	6640
25600	7264	6656
26112	6144	5584
26624	6992	6544
27136	6032	5616
27648	6496	6080
28160	7136	6560
28672	6992	6512
29184	6240	5664
29696	5776	5312
30208	6160	5664
30720	7376	6592
31232	7808	6704
31744	8160	7264
32256	8000	6608
32768	16496	12896
33792	13952	11520
34816	14992	12960
35840	14768	12832
36864	11088	9184
37888	10736	8432
38912	13104	10656
39936	12016	10032
40960	11056	8656
41984	8336	6992
43008	10336	9472
44032	6320	5744
45056	5616	5344
46080	7376	6816
47104	8592	8240
48128	4848	4720
49152	4160	3456
50176	4160	3536
51200	3968	3712
52224	2960	2848
53248	2688	2496
54272	2688	2592
55296	2912	2704
56320	2512	2432
57344	2432	2368
58368	2432	2224
59392	2752	2416
60416	2656	2544
61440	2304	2160
62464	2592	2368
63488	1808	1664
64512	2336	2224
65536	4736	4256
67584	3920	3296
69632	4400	4016
71680	3664	3344
73728	3568	3120
75776	3824	3568
77824	4144	3728
79872	4272	3984
81920	4432	4112
83968	5120	4768
86016	5104	4912
88064	4832	4624
90112	6080	5680
92160	6864	6528
94208	8080	7504
96256	8240	7808
98304	9120	8672
100352	9760	9200
102400	9744	9184
104448	10016	9520
106496	10816	9968
108544	11504	10848
110592	13664	12816
112640	15088	14160
114688	14848	13952
116736	17152	16128
118784	17120	16400
120832	17088	15984
122880	18848	17632
124928	18592	17312
126976	17712	16064
129024	16464	14896
131072	29088	26944
135168	26480	24768
139264	23568	22192
143360	20144	18960
147456	20048	19104
151552	16224	15376
155648	16288	15408
159744	15616	14832
163840	15008	13808
167936	14176	13296
172032	15424	14704
176128	14704	13888
180224	15392	14560
184320	13552	12992
188416	14064	13376
192512	13168	12448
196608	10848	10400
200704	8256	7792
204800	6768	6336
208896	6688	6304
212992	6144	5888
217088	5904	5344
221184	5200	4864
225280	4944	4736
229376	5616	5312
233472	5744	5616
237568	4928	4752
241664	5808	5568
245760	5952	5584
249856	6112	5680
253952	6288	5936
258048	7040	6544
262144	14656	13200
270336	14464	12624
278528	15552	13040
286720	16960	13552
294912	15088	12864
303104	13248	11536
311296	13264	10896
319488	14144	11824
327680	10784	9760
335872	9968	8992
344064	8928	8432
352256	8736	8128
360448	10192	9584
368640	11424	11232
376832	12112	11872
385024	10960	10656
393216	10320	10000
401408	8880	8752
409600	7968	7760
417792	6736	6512
425984	6976	6816
434176	7648	7344
442368	6752	6608
450560	7568	7408
458752	8400	8128
466944	7920	7760
475136	6912	6656
483328	8688	8176
491520	7568	7152
499712	6768	6144
507904	6496	6128
516096	7936	7120
524288	21040	18656
540672	21728	19904
557056	19840	18672
573440	28832	27408
589824	9680	8928
606208	4016	3872
622592	3472	3312
638976	3984	3904
655360	3728	3440
671744	4576	3920
688128	6064	5552
704512	6960	6528
720896	12496	11872
737280	3616	3392
753664	2544	2400
770048	2416	2368
786432	2160	2112
802816	1792	1760
819200	1904	1840
835584	2176	2080
851968	1792	1712
868352	2160	2112
884736	2192	2192
901120	2128	2032
917504	1648	1600
933888	1664	1456
950272	1536	1424
966656	1488	1376
983040	1328	1296
999424	1936	1792
1015808	2624	2544
1032192	3504	3264
1048576	3536	3360
1081344	4416	4032
1114112	4976	4736
1146880	6432	6048
1179648	4576	4256
1212416	4240	4000
1245184	3712	3536
1277952	5024	4720
1310720	6608	6416
1343488	7136	6880
1376256	5824	5680
1409024	3888	3504
1441792	5760	5312
1474560	5808	5376
1507328	5920	5552
1540096	6160	5424
1572864	6304	5696
1605632	5360	4832
1638400	5488	4864
1671168	4608	3904
1703936	6592	5376
1736704	7376	6720
1769472	5504	4448
1802240	5040	4144
1835008	6800	6032
1867776	7296	6432
1900544	8480	7568
1933312	7856	7136
1966080	4672	3920
1998848	5648	4592
2031616	5840	4320
2064384	6368	5520
2097152	10864	8512
2162688	13344	10464
2228224	13728	9728
2293760	15232	11232
2359296	13712	9440
2424832	19072	14880
2490368	17328	12512
2555904	15904	11088
2621440	13968	9520
2686976	15456	11152
2752512	15616	10480
2818048	15696	9424
2883584	20800	13440
2949120	18992	11040
3014656	22288	15056
3080192	20768	14672
3145728	19360	11248
3211264	17344	11328
3276800	17664	10064
3342336	21168	11808
3407872	20528	11504
3473408	22000	12064
3538944	22960	12800
3604480	23520	14080
3670016	21104	12800
3735552	20016	11376
3801088	17776	9424
3866624	22208	13632
3932160	21248	11120
3997696	25984	13760
4063232	24768	11872
4128768	24864	14336
4194304	44112	24304
4325376	38896	20432
4456448	46064	25648
4587520	49920	24960
4718592	52192	29504
4849664	42720	21520
4980736	42528	21872
5111808	50000	26128
5242880	49808	26640
5373952	43424	21312
5505024	41424	20144
5636096	45568	22256
5767168	45648	22336
5898240	48080	24400
6029312	37920	17536
6160384	41568	20384
6291456	41184	17920
6422528	46256	23264
6553600	34384	13632
6684672	36672	16208
6815744	36208	14432
6946816	38576	16944
7077888	30688	10032
7208960	29600	11040
7340032	28288	10512
7471104	31552	10640
7602176	28112	9760
7733248	22592	6800
7864320	18896	5760
7995392	21520	6720
8126464	19568	5664
8257536	17152	4160
8388608	32624	8128
8650752	26080	4992
8912896	28160	8800
9175040	25376	8464
9437184	24064	10176
9699328	28384	12976
9961472	27088	11696
10223616	26624	8608
10485760	9728	2800
10747904	4384	1952
11010048	5584	2096
11272192	8080	1888
11534336	3568	1424
11796480	1344	304
12058624	1104	144
12320768	928	112
12582912	944	128
12845056	1056	144
13107200	608	176
13369344	752	96
13631488	272	48
13893632	496	160
14155776	880	416
14417920	336	112
14680064	448	48
14942208	192	32
15204352	112	32
15466496	16	16
15728640	16	16
15990784	80	80
16252928	64	64
16515072	48	48
16777216	288	272
17301504	336	304
17825792	288	272
18350080	320	272
18874368	544	224
19398656	432	272
19922944	320	128
20447232	192	144
20971520	320	80
21495808	176	160
22020096	80	0
22544384	64	64
23068672	64	0
23592960	0	0
24117248	0	0
24641536	0	0
25165824	0	0
25690112	0	0
26214400	0	0
26738688	0	0
27262976	0	0
27787264	0	0
28311552	48	16
28835840	48	48
29360128	112	64
29884416	96	0
30408704	32	0
30932992	208	112
31457280	80	64
31981568	0	0
32505856	64	0
33030144	0	0
33554432	0	0
34603008	16	16
35651584	0	0
36700160	16	16
37748736	0	0
38797312	48	48
39845888	32	32
40894464	112	16
41943040	16	16
42991616	0	0
44040192	0	0
45088768	0	0
46137344	0	0
47185920	0	0
48234496	0	0
49283072	48	48
50331648	96	32
51380224	16	0
52428800	0	0
53477376	0	0
54525952	0	0
55574528	0	0
56623104	0	0
57671680	0	0
58720256	0	0
59768832	48	32
60817408	48	0
61865984	0	0
62914560	0	0
63963136	0	0
65011712	0	0
66060288	0	0
67108864	0	0
69206016	1408	1360
71303168	3200	3184
73400320	144	144
75497472	0	0
77594624	16	16
79691776	96	96
81788928	608	592
83886080	48	48
85983232	16	0
88080384	112	80
90177536	448	448
92274688	272	272
94371840	240	208
96468992	816	816
98566144	1216	1216
100663296	2688	2576
102760448	1488	1104
104857600	544	544
106954752	752	752
109051904	1712	1664
111149056	2720	2720
113246208	608	608
115343360	80	80
117440512	272	272
119537664	448	448
121634816	432	416
123731968	112	112
125829120	0	0
127926272	0	0
130023424	0	0
132120576	32	32
134217728	0	0
138412032	0	0
142606336	0	0
146800640	0	0
150994944	0	0
155189248	0	0
159383552	0	0
163577856	0	0
167772160	0	0
171966464	0	0
176160768	0	0
180355072	0	0
184549376	32	0
188743680	0	0
192937984	0	0
197132288	0	0
201326592	0	0
205520896	0	0
209715200	0	0
213909504	80	80
218103808	0	0
222298112	128	128
226492416	0	0
230686720	0	0
234881024	32	32
239075328	0	0
243269632	0	0
247463936	0	0
251658240	0	0
255852544	0	0
260046848	0	0
264241152	0	0
268435456	0	0
276824064	0	0
285212672	0	0
293601280	0	0
301989888	0	0
310378496	0	0
318767104	0	0
327155712	0	0
335544320	0	0
343932928	0	0
352321536	0	0
360710144	0	0
369098752	0	0
377487360	0	0
385875968	0	0
394264576	0	0
402653184	0	0
411041792	0	0
419430400	0	0
427819008	0	0
436207616	0	0
444596224	0	0
452984832	0	0
461373440	0	0
469762048	0	0
478150656	0	0
486539264	0	0
494927872	0	0
503316480	0	0
511705088	0	0
520093696	0	0
528482304	0	0
536870912	0	0
553648128	0	0
570425344	0	0
587202560	0	0
603979776	0	0
620756992	0	0
637534208	0	0
654311424	0	0
671088640	0	0
687865856	0	0
704643072	0	0
721420288	0	0
738197504	0	0
754974720	0	0
771751936	0	0
788529152	0	0
805306368	0	0
822083584	0	0
838860800	0	0
855638016	0	0
872415232	0	0
889192448	0	0
905969664	0	0
922746880	0	0
939524096	0	0
956301312	0	0
973078528	0	0
989855744	0	0
1006632960	0	0
1023410176	0	0
1040187392	0	0
1056964608	0	0
1073741824	0	0
1107296256	0	0
1140850688	0	0
1174405120	0	0
1207959552	0	0
1241513984	0	0
1275068416	0	0
1308622848	0	0
1342177280	0	0
1375731712	0	0
1409286144	0	0
1442840576	0	0
1476395008	0	0
1509949440	0	0
1543503872	0	0
1577058304	0	0
1610612736	0	0
1644167168	0	0
1677721600	0	0
1711276032	0	0
1744830464	0	0
1778384896	0	0
1811939328	0	0
1845493760	0	0
1879048192	0	0
1912602624	0	0
1946157056	0	0
1979711488	0	0
2013265920	0	0
2046820352	0	0
2080374784	0	0
2113929216	0	0
2147483648	0	0
2214592512	0	0
2281701376	0	0
2348810240	0	0
2415919104	0	0
2483027968	0	0
2550136832	0	0
2617245696	0	0
2684354560	0	0
2751463424	0	0
2818572288	0	0
2885681152	0	0
2952790016	0	0
3019898880	0	0
3087007744	0	0
3154116608	0	0
3221225472	0	0
3288334336	0	0
3355443200	0	0
3422552064	0	0
3489660928	0	0
3556769792	0	0
3623878656	0	0
3690987520	0	0
3758096384	0	0
3825205248	0	0
3892314112	0	0
3959422976	0	0
4026531840	0	0
4093640704	0	0
4160749568	0	0
4227858432	0	0
~~~~~~~~~~Reuse Distance Profiler output end~~~~~~~~~~

Sampler size:6085

DRAM Statistics
 CHANNEL 0
 RQ ROW_BUFFER_HIT:     214429  ROW_BUFFER_MISS:     746503
 DBUS AVG_CONGESTED_CYCLE:    3.93648
 WQ ROW_BUFFER_HIT:      80228  ROW_BUFFER_MISS:     551675  FULL:          0


CPU 0 Branch Prediction Accuracy: 91.9488% MPKI: 7.48077 Average ROB Occupancy at Mispredict: 130.104
Branch type MPKI
BRANCH_DIRECT_JUMP: 1.8e-05
BRANCH_INDIRECT: 0.00105867
BRANCH_CONDITIONAL: 7.44009
BRANCH_DIRECT_CALL: 0.037914
BRANCH_INDIRECT_CALL: 9.73333e-05
BRANCH_RETURN: 0.00158867

