
*** ChampSim Multicore Out-of-Order Simulator ***

Warmup Instructions: 50000000
Simulation Instructions: 1500000000
Number of CPUs: 1
Off-chip DRAM Size: 4 GiB Channels: 1 Width: 64-bit Data Rate: 3200 MT/s

VirtualMemory physical capacity: 8588881920 num_ppages: 2096895
VirtualMemory page size: 4096 log2_page_size: 12

CPU 0 runs /s/traces/champsim_traces/473.astar-42B.champsimtrace.xz
CPU 0 Bimodal branch predictor
Basic BTB sets: 1024 ways: 8 indirect buffer size: 4096 RAS size: 64
Initializing LRU.
Initializing LRU.
Initializing LRU.
Initializing LRU.
Initializing rdLRU.
Initializing LRU.
Initializing LRU.
Heartbeat CPU 0 instructions: 2000000 cycles: 588245 heartbeat IPC: 3.39994 cumulative IPC: 3.39994 (Simulation time: 0 hr 1 min 24 sec) 
Heartbeat CPU 0 instructions: 4000004 cycles: 1173495 heartbeat IPC: 3.41735 cumulative IPC: 3.40862 (Simulation time: 0 hr 2 min 59 sec) 
Heartbeat CPU 0 instructions: 6000002 cycles: 1758752 heartbeat IPC: 3.4173 cumulative IPC: 3.41151 (Simulation time: 0 hr 4 min 24 sec) 
Heartbeat CPU 0 instructions: 8000003 cycles: 2339768 heartbeat IPC: 3.44225 cumulative IPC: 3.41914 (Simulation time: 0 hr 6 min 0 sec) 
Heartbeat CPU 0 instructions: 10000004 cycles: 2926866 heartbeat IPC: 3.40659 cumulative IPC: 3.41663 (Simulation time: 0 hr 7 min 29 sec) 
Heartbeat CPU 0 instructions: 12000000 cycles: 3507365 heartbeat IPC: 3.4453 cumulative IPC: 3.42137 (Simulation time: 0 hr 8 min 56 sec) 
Heartbeat CPU 0 instructions: 14000000 cycles: 4082553 heartbeat IPC: 3.47712 cumulative IPC: 3.42923 (Simulation time: 0 hr 10 min 27 sec) 
Heartbeat CPU 0 instructions: 16000003 cycles: 4653803 heartbeat IPC: 3.5011 cumulative IPC: 3.43805 (Simulation time: 0 hr 11 min 55 sec) 
Heartbeat CPU 0 instructions: 18000003 cycles: 5220587 heartbeat IPC: 3.52868 cumulative IPC: 3.44789 (Simulation time: 0 hr 13 min 23 sec) 
Heartbeat CPU 0 instructions: 20000001 cycles: 5777829 heartbeat IPC: 3.5891 cumulative IPC: 3.46151 (Simulation time: 0 hr 14 min 50 sec) 
Heartbeat CPU 0 instructions: 22000002 cycles: 6343783 heartbeat IPC: 3.53386 cumulative IPC: 3.46796 (Simulation time: 0 hr 16 min 18 sec) 
Heartbeat CPU 0 instructions: 24000003 cycles: 6913284 heartbeat IPC: 3.51185 cumulative IPC: 3.47158 (Simulation time: 0 hr 17 min 45 sec) 
Heartbeat CPU 0 instructions: 26000003 cycles: 7492370 heartbeat IPC: 3.45372 cumulative IPC: 3.4702 (Simulation time: 0 hr 19 min 15 sec) 
Heartbeat CPU 0 instructions: 28000004 cycles: 8072344 heartbeat IPC: 3.44843 cumulative IPC: 3.46863 (Simulation time: 0 hr 20 min 45 sec) 
Heartbeat CPU 0 instructions: 30000002 cycles: 8657916 heartbeat IPC: 3.41546 cumulative IPC: 3.46504 (Simulation time: 0 hr 22 min 12 sec) 
Heartbeat CPU 0 instructions: 32000003 cycles: 9233542 heartbeat IPC: 3.47448 cumulative IPC: 3.46563 (Simulation time: 0 hr 23 min 36 sec) 
Heartbeat CPU 0 instructions: 34000002 cycles: 9810242 heartbeat IPC: 3.46801 cumulative IPC: 3.46577 (Simulation time: 0 hr 25 min 0 sec) 
Heartbeat CPU 0 instructions: 36000000 cycles: 10396569 heartbeat IPC: 3.41106 cumulative IPC: 3.46268 (Simulation time: 0 hr 26 min 27 sec) 
Heartbeat CPU 0 instructions: 38000000 cycles: 10982758 heartbeat IPC: 3.41187 cumulative IPC: 3.45997 (Simulation time: 0 hr 27 min 52 sec) 
Heartbeat CPU 0 instructions: 40000001 cycles: 11563748 heartbeat IPC: 3.4424 cumulative IPC: 3.45909 (Simulation time: 0 hr 29 min 15 sec) 
Heartbeat CPU 0 instructions: 42000003 cycles: 12141250 heartbeat IPC: 3.46319 cumulative IPC: 3.45928 (Simulation time: 0 hr 30 min 36 sec) 
Heartbeat CPU 0 instructions: 44000000 cycles: 12712574 heartbeat IPC: 3.50064 cumulative IPC: 3.46114 (Simulation time: 0 hr 31 min 57 sec) 
Heartbeat CPU 0 instructions: 46000001 cycles: 13290303 heartbeat IPC: 3.46183 cumulative IPC: 3.46117 (Simulation time: 0 hr 33 min 18 sec) 
Heartbeat CPU 0 instructions: 48000001 cycles: 13875989 heartbeat IPC: 3.4148 cumulative IPC: 3.45921 (Simulation time: 0 hr 34 min 43 sec) 
Heartbeat CPU 0 instructions: 50000004 cycles: 14460599 heartbeat IPC: 3.42109 cumulative IPC: 3.45767 (Simulation time: 0 hr 36 min 8 sec) 

Warmup complete CPU 0 instructions: 50000004 cycles: 14460599 (Simulation time: 0 hr 36 min 8 sec) 

Heartbeat CPU 0 instructions: 52000000 cycles: 19605332 heartbeat IPC: 0.388746 cumulative IPC: 0.388746 (Simulation time: 0 hr 37 min 29 sec) 

Region of Interest Statistics
cpu0_DTLB TOTAL     ACCESS:     501945  HIT:     449478  MISS:      52467
cpu0_DTLB LOAD      ACCESS:     447103  HIT:     400308  MISS:      46795
cpu0_DTLB RFO       ACCESS:      54842  HIT:      49170  MISS:       5672
cpu0_DTLB PREFETCH  ACCESS:          0  HIT:          0  MISS:          0
cpu0_DTLB WRITEBACK ACCESS:          0  HIT:          0  MISS:          0
cpu0_ITLB TOTAL     ACCESS:     258746  HIT:     258746  MISS:          0
cpu0_ITLB LOAD      ACCESS:     258746  HIT:     258746  MISS:          0
cpu0_ITLB RFO       ACCESS:          0  HIT:          0  MISS:          0
cpu0_ITLB PREFETCH  ACCESS:          0  HIT:          0  MISS:          0
cpu0_ITLB WRITEBACK ACCESS:          0  HIT:          0  MISS:          0
cpu0_L1I TOTAL     ACCESS:          7  HIT:          7  MISS:          0
cpu0_L1I LOAD      ACCESS:          7  HIT:          7  MISS:          0
cpu0_L1I RFO       ACCESS:          0  HIT:          0  MISS:          0
cpu0_L1I PREFETCH  ACCESS:          0  HIT:          0  MISS:          0
cpu0_L1I WRITEBACK ACCESS:          0  HIT:          0  MISS:          0
cpu0_STLB TOTAL     ACCESS:      52467  HIT:      52124  MISS:        343
cpu0_STLB LOAD      ACCESS:      46795  HIT:      46492  MISS:        303
cpu0_STLB RFO       ACCESS:       5672  HIT:       5632  MISS:         40
cpu0_STLB PREFETCH  ACCESS:          0  HIT:          0  MISS:          0
cpu0_STLB WRITEBACK ACCESS:          0  HIT:          0  MISS:          0
cpu0_L1D TOTAL     ACCESS:     494217  HIT:     434187  MISS:      60030
cpu0_L1D LOAD      ACCESS:     408625  HIT:     348976  MISS:      59649
cpu0_L1D RFO       ACCESS:      85249  HIT:      84906  MISS:        343
cpu0_L1D PREFETCH  ACCESS:          0  HIT:          0  MISS:          0
cpu0_L1D WRITEBACK ACCESS:          0  HIT:          0  MISS:          0
cpu0_L2C TOTAL     ACCESS:      79572  HIT:      10361  MISS:      69211
cpu0_L2C LOAD      ACCESS:      59645  HIT:       1284  MISS:      58361
cpu0_L2C RFO       ACCESS:        343  HIT:         28  MISS:        315
cpu0_L2C PREFETCH  ACCESS:          0  HIT:          0  MISS:          0
cpu0_L2C WRITEBACK ACCESS:      19546  HIT:       9048  MISS:      10498
LLC TOTAL     ACCESS:      77984  HIT:      73401  MISS:       4583
LLC LOAD      ACCESS:      58361  HIT:      53778  MISS:       4583
LLC RFO       ACCESS:        315  HIT:        315  MISS:          0
LLC PREFETCH  ACCESS:          0  HIT:          0  MISS:          0
LLC WRITEBACK ACCESS:      19271  HIT:      19271  MISS:          0
Heartbeat CPU 0 instructions: 54000002 cycles: 24704249 heartbeat IPC: 0.392241 cumulative IPC: 0.390486 (Simulation time: 0 hr 38 min 46 sec) 

Region of Interest Statistics
cpu0_DTLB TOTAL     ACCESS:    1001618  HIT:     899396  MISS:     102222
cpu0_DTLB LOAD      ACCESS:     892193  HIT:     800505  MISS:      91688
cpu0_DTLB RFO       ACCESS:     109425  HIT:      98891  MISS:      10534
cpu0_DTLB PREFETCH  ACCESS:          0  HIT:          0  MISS:          0
cpu0_DTLB WRITEBACK ACCESS:          0  HIT:          0  MISS:          0
cpu0_ITLB TOTAL     ACCESS:     517310  HIT:     517310  MISS:          0
cpu0_ITLB LOAD      ACCESS:     517310  HIT:     517310  MISS:          0
cpu0_ITLB RFO       ACCESS:          0  HIT:          0  MISS:          0
cpu0_ITLB PREFETCH  ACCESS:          0  HIT:          0  MISS:          0
cpu0_ITLB WRITEBACK ACCESS:          0  HIT:          0  MISS:          0
cpu0_L1I TOTAL     ACCESS:         16  HIT:         16  MISS:          0
cpu0_L1I LOAD      ACCESS:         16  HIT:         16  MISS:          0
cpu0_L1I RFO       ACCESS:          0  HIT:          0  MISS:          0
cpu0_L1I PREFETCH  ACCESS:          0  HIT:          0  MISS:          0
cpu0_L1I WRITEBACK ACCESS:          0  HIT:          0  MISS:          0
cpu0_STLB TOTAL     ACCESS:     102222  HIT:     101619  MISS:        603
cpu0_STLB LOAD      ACCESS:      91688  HIT:      91128  MISS:        560
cpu0_STLB RFO       ACCESS:      10534  HIT:      10491  MISS:         43
cpu0_STLB PREFETCH  ACCESS:          0  HIT:          0  MISS:          0
cpu0_STLB WRITEBACK ACCESS:          0  HIT:          0  MISS:          0
cpu0_L1D TOTAL     ACCESS:     986028  HIT:     868779  MISS:     117249
cpu0_L1D LOAD      ACCESS:     814994  HIT:     698459  MISS:     116535
cpu0_L1D RFO       ACCESS:     170431  HIT:     169755  MISS:        676
cpu0_L1D PREFETCH  ACCESS:          0  HIT:          0  MISS:          0
cpu0_L1D WRITEBACK ACCESS:          0  HIT:          0  MISS:          0
cpu0_L2C TOTAL     ACCESS:     155789  HIT:      20235  MISS:     135554
cpu0_L2C LOAD      ACCESS:     116527  HIT:       2575  MISS:     113952
cpu0_L2C RFO       ACCESS:        676  HIT:         70  MISS:        606
cpu0_L2C PREFETCH  ACCESS:          0  HIT:          0  MISS:          0
cpu0_L2C WRITEBACK ACCESS:      38548  HIT:      17589  MISS:      20959
LLC TOTAL     ACCESS:     152524  HIT:     143327  MISS:       9197
LLC LOAD      ACCESS:     113951  HIT:     104754  MISS:       9197
LLC RFO       ACCESS:        606  HIT:        606  MISS:          0
LLC PREFETCH  ACCESS:          0  HIT:          0  MISS:          0
LLC WRITEBACK ACCESS:      37930  HIT:      37930  MISS:          0
Heartbeat CPU 0 instructions: 56000002 cycles: 29241196 heartbeat IPC: 0.440825 cumulative IPC: 0.405937 (Simulation time: 0 hr 40 min 2 sec) 

Region of Interest Statistics
cpu0_DTLB TOTAL     ACCESS:    1446693  HIT:    1308324  MISS:     138369
cpu0_DTLB LOAD      ACCESS:    1275000  HIT:    1148532  MISS:     126468
cpu0_DTLB RFO       ACCESS:     171693  HIT:     159792  MISS:      11901
cpu0_DTLB PREFETCH  ACCESS:          0  HIT:          0  MISS:          0
cpu0_DTLB WRITEBACK ACCESS:          0  HIT:          0  MISS:          0
cpu0_ITLB TOTAL     ACCESS:     762467  HIT:     762459  MISS:          8
cpu0_ITLB LOAD      ACCESS:     762467  HIT:     762459  MISS:          8
cpu0_ITLB RFO       ACCESS:          0  HIT:          0  MISS:          0
cpu0_ITLB PREFETCH  ACCESS:          0  HIT:          0  MISS:          0
cpu0_ITLB WRITEBACK ACCESS:          0  HIT:          0  MISS:          0
cpu0_L1I TOTAL     ACCESS:        223  HIT:        135  MISS:         88
cpu0_L1I LOAD      ACCESS:        223  HIT:        135  MISS:         88
cpu0_L1I RFO       ACCESS:          0  HIT:          0  MISS:          0
cpu0_L1I PREFETCH  ACCESS:          0  HIT:          0  MISS:          0
cpu0_L1I WRITEBACK ACCESS:          0  HIT:          0  MISS:          0
cpu0_STLB TOTAL     ACCESS:     138378  HIT:     135724  MISS:       2654
cpu0_STLB LOAD      ACCESS:     126477  HIT:     123908  MISS:       2569
cpu0_STLB RFO       ACCESS:      11901  HIT:      11816  MISS:         85
cpu0_STLB PREFETCH  ACCESS:          0  HIT:          0  MISS:          0
cpu0_STLB WRITEBACK ACCESS:          0  HIT:          0  MISS:          0
cpu0_L1D TOTAL     ACCESS:    1432716  HIT:    1269589  MISS:     163127
cpu0_L1D LOAD      ACCESS:    1171197  HIT:    1009510  MISS:     161687
cpu0_L1D RFO       ACCESS:     258950  HIT:     257609  MISS:       1341
cpu0_L1D PREFETCH  ACCESS:          0  HIT:          0  MISS:          0
cpu0_L1D WRITEBACK ACCESS:          0  HIT:          0  MISS:          0
cpu0_L2C TOTAL     ACCESS:     215617  HIT:      29366  MISS:     186251
cpu0_L2C LOAD      ACCESS:     161762  HIT:       5275  MISS:     156487
cpu0_L2C RFO       ACCESS:       1341  HIT:        193  MISS:       1148
cpu0_L2C PREFETCH  ACCESS:          0  HIT:          0  MISS:          0
cpu0_L2C WRITEBACK ACCESS:      52415  HIT:      23886  MISS:      28529
LLC TOTAL     ACCESS:     208931  HIT:     194380  MISS:      14551
LLC LOAD      ACCESS:     156485  HIT:     142136  MISS:      14349
LLC RFO       ACCESS:       1148  HIT:        953  MISS:        195
LLC PREFETCH  ACCESS:          0  HIT:          0  MISS:          0
LLC WRITEBACK ACCESS:      51211  HIT:      51211  MISS:          0
Heartbeat CPU 0 instructions: 58000003 cycles: 34083400 heartbeat IPC: 0.413035 cumulative IPC: 0.407689 (Simulation time: 0 hr 41 min 18 sec) 

Region of Interest Statistics
cpu0_DTLB TOTAL     ACCESS:    1958712  HIT:    1784013  MISS:     174699
cpu0_DTLB LOAD      ACCESS:    1730731  HIT:    1571383  MISS:     159348
cpu0_DTLB RFO       ACCESS:     227981  HIT:     212630  MISS:      15351
cpu0_DTLB PREFETCH  ACCESS:          0  HIT:          0  MISS:          0
cpu0_DTLB WRITEBACK ACCESS:          0  HIT:          0  MISS:          0
cpu0_ITLB TOTAL     ACCESS:    1022127  HIT:    1022119  MISS:          8
cpu0_ITLB LOAD      ACCESS:    1022127  HIT:    1022119  MISS:          8
cpu0_ITLB RFO       ACCESS:          0  HIT:          0  MISS:          0
cpu0_ITLB PREFETCH  ACCESS:          0  HIT:          0  MISS:          0
cpu0_ITLB WRITEBACK ACCESS:          0  HIT:          0  MISS:          0
cpu0_L1I TOTAL     ACCESS:        749  HIT:        644  MISS:        105
cpu0_L1I LOAD      ACCESS:        749  HIT:        644  MISS:        105
cpu0_L1I RFO       ACCESS:          0  HIT:          0  MISS:          0
cpu0_L1I PREFETCH  ACCESS:          0  HIT:          0  MISS:          0
cpu0_L1I WRITEBACK ACCESS:          0  HIT:          0  MISS:          0
cpu0_STLB TOTAL     ACCESS:     174707  HIT:     171537  MISS:       3170
cpu0_STLB LOAD      ACCESS:     159356  HIT:     156311  MISS:       3045
cpu0_STLB RFO       ACCESS:      15351  HIT:      15226  MISS:        125
cpu0_STLB PREFETCH  ACCESS:          0  HIT:          0  MISS:          0
cpu0_STLB WRITEBACK ACCESS:          0  HIT:          0  MISS:          0
cpu0_L1D TOTAL     ACCESS:    1935192  HIT:    1726611  MISS:     208581
cpu0_L1D LOAD      ACCESS:    1587420  HIT:    1380429  MISS:     206991
cpu0_L1D RFO       ACCESS:     344732  HIT:     343246  MISS:       1486
cpu0_L1D PREFETCH  ACCESS:          0  HIT:          0  MISS:          0
cpu0_L1D WRITEBACK ACCESS:          0  HIT:          0  MISS:          0
cpu0_L2C TOTAL     ACCESS:     275317  HIT:      40296  MISS:     235021
cpu0_L2C LOAD      ACCESS:     207075  HIT:       9227  MISS:     197848
cpu0_L2C RFO       ACCESS:       1486  HIT:        230  MISS:       1256
cpu0_L2C PREFETCH  ACCESS:          0  HIT:          0  MISS:          0
cpu0_L2C WRITEBACK ACCESS:      66652  HIT:      30827  MISS:      35825
LLC TOTAL     ACCESS:     263691  HIT:     244530  MISS:      19161
LLC LOAD      ACCESS:     197845  HIT:     178900  MISS:      18945
LLC RFO       ACCESS:       1256  HIT:       1048  MISS:        208
LLC PREFETCH  ACCESS:          0  HIT:          0  MISS:          0
LLC WRITEBACK ACCESS:      64498  HIT:      64498  MISS:          0
Heartbeat CPU 0 instructions: 60000001 cycles: 39030045 heartbeat IPC: 0.404314 cumulative IPC: 0.407009 (Simulation time: 0 hr 42 min 39 sec) 

Region of Interest Statistics
cpu0_DTLB TOTAL     ACCESS:    2466888  HIT:    2246774  MISS:     220114
cpu0_DTLB LOAD      ACCESS:    2183337  HIT:    1984501  MISS:     198836
cpu0_DTLB RFO       ACCESS:     283551  HIT:     262273  MISS:      21278
cpu0_DTLB PREFETCH  ACCESS:          0  HIT:          0  MISS:          0
cpu0_DTLB WRITEBACK ACCESS:          0  HIT:          0  MISS:          0
cpu0_ITLB TOTAL     ACCESS:    1282120  HIT:    1282112  MISS:          8
cpu0_ITLB LOAD      ACCESS:    1282120  HIT:    1282112  MISS:          8
cpu0_ITLB RFO       ACCESS:          0  HIT:          0  MISS:          0
cpu0_ITLB PREFETCH  ACCESS:          0  HIT:          0  MISS:          0
cpu0_ITLB WRITEBACK ACCESS:          0  HIT:          0  MISS:          0
cpu0_L1I TOTAL     ACCESS:        781  HIT:        676  MISS:        105
cpu0_L1I LOAD      ACCESS:        781  HIT:        676  MISS:        105
cpu0_L1I RFO       ACCESS:          0  HIT:          0  MISS:          0
cpu0_L1I PREFETCH  ACCESS:          0  HIT:          0  MISS:          0
cpu0_L1I WRITEBACK ACCESS:          0  HIT:          0  MISS:          0
cpu0_STLB TOTAL     ACCESS:     220122  HIT:     216613  MISS:       3509
cpu0_STLB LOAD      ACCESS:     198844  HIT:     195473  MISS:       3371
cpu0_STLB RFO       ACCESS:      21278  HIT:      21140  MISS:        138
cpu0_STLB PREFETCH  ACCESS:          0  HIT:          0  MISS:          0
cpu0_STLB WRITEBACK ACCESS:          0  HIT:          0  MISS:          0
cpu0_L1D TOTAL     ACCESS:    2435676  HIT:    2174331  MISS:     261345
cpu0_L1D LOAD      ACCESS:    2002570  HIT:    1743060  MISS:     259510
cpu0_L1D RFO       ACCESS:     429768  HIT:     428037  MISS:       1731
cpu0_L1D PREFETCH  ACCESS:          0  HIT:          0  MISS:          0
cpu0_L1D WRITEBACK ACCESS:          0  HIT:          0  MISS:          0
cpu0_L2C TOTAL     ACCESS:     345147  HIT:      50227  MISS:     294920
cpu0_L2C LOAD      ACCESS:     259591  HIT:      11775  MISS:     247816
cpu0_L2C RFO       ACCESS:       1731  HIT:        265  MISS:       1466
cpu0_L2C PREFETCH  ACCESS:          0  HIT:          0  MISS:          0
cpu0_L2C WRITEBACK ACCESS:      83721  HIT:      38175  MISS:      45546
LLC TOTAL     ACCESS:     330333  HIT:     306825  MISS:      23508
LLC LOAD      ACCESS:     247803  HIT:     224511  MISS:      23292
LLC RFO       ACCESS:       1466  HIT:       1258  MISS:        208
LLC PREFETCH  ACCESS:          0  HIT:          0  MISS:          0
LLC WRITEBACK ACCESS:      80972  HIT:      80972  MISS:          0
Heartbeat CPU 0 instructions: 62000003 cycles: 43894733 heartbeat IPC: 0.411126 cumulative IPC: 0.40769 (Simulation time: 0 hr 43 min 58 sec) 

Region of Interest Statistics
cpu0_DTLB TOTAL     ACCESS:    2965057  HIT:    2701320  MISS:     263737
cpu0_DTLB LOAD      ACCESS:    2626237  HIT:    2388148  MISS:     238089
cpu0_DTLB RFO       ACCESS:     338820  HIT:     313172  MISS:      25648
cpu0_DTLB PREFETCH  ACCESS:          0  HIT:          0  MISS:          0
cpu0_DTLB WRITEBACK ACCESS:          0  HIT:          0  MISS:          0
cpu0_ITLB TOTAL     ACCESS:    1539556  HIT:    1539548  MISS:          8
cpu0_ITLB LOAD      ACCESS:    1539556  HIT:    1539548  MISS:          8
cpu0_ITLB RFO       ACCESS:          0  HIT:          0  MISS:          0
cpu0_ITLB PREFETCH  ACCESS:          0  HIT:          0  MISS:          0
cpu0_ITLB WRITEBACK ACCESS:          0  HIT:          0  MISS:          0
cpu0_L1I TOTAL     ACCESS:        821  HIT:        716  MISS:        105
cpu0_L1I LOAD      ACCESS:        821  HIT:        716  MISS:        105
cpu0_L1I RFO       ACCESS:          0  HIT:          0  MISS:          0
cpu0_L1I PREFETCH  ACCESS:          0  HIT:          0  MISS:          0
cpu0_L1I WRITEBACK ACCESS:          0  HIT:          0  MISS:          0
cpu0_STLB TOTAL     ACCESS:     263745  HIT:     260053  MISS:       3692
cpu0_STLB LOAD      ACCESS:     238097  HIT:     234555  MISS:       3542
cpu0_STLB RFO       ACCESS:      25648  HIT:      25498  MISS:        150
cpu0_STLB PREFETCH  ACCESS:          0  HIT:          0  MISS:          0
cpu0_STLB WRITEBACK ACCESS:          0  HIT:          0  MISS:          0
cpu0_L1D TOTAL     ACCESS:    2926490  HIT:    2614296  MISS:     312194
cpu0_L1D LOAD      ACCESS:    2407617  HIT:    2097747  MISS:     309870
cpu0_L1D RFO       ACCESS:     515372  HIT:     513152  MISS:       2220
cpu0_L1D PREFETCH  ACCESS:          0  HIT:          0  MISS:          0
cpu0_L1D WRITEBACK ACCESS:          0  HIT:          0  MISS:          0
cpu0_L2C TOTAL     ACCESS:     413017  HIT:      57817  MISS:     355200
cpu0_L2C LOAD      ACCESS:     309949  HIT:      13268  MISS:     296681
cpu0_L2C RFO       ACCESS:       2218  HIT:        315  MISS:       1903
cpu0_L2C PREFETCH  ACCESS:          0  HIT:          0  MISS:          0
cpu0_L2C WRITEBACK ACCESS:     100746  HIT:      44222  MISS:      56524
LLC TOTAL     ACCESS:     396293  HIT:     368183  MISS:      28110
LLC LOAD      ACCESS:     296667  HIT:     268773  MISS:      27894
LLC RFO       ACCESS:       1903  HIT:       1695  MISS:        208
LLC PREFETCH  ACCESS:          0  HIT:          0  MISS:          0
LLC WRITEBACK ACCESS:      97631  HIT:      97631  MISS:          0
Heartbeat CPU 0 instructions: 64000000 cycles: 48821608 heartbeat IPC: 0.405936 cumulative IPC: 0.407438 (Simulation time: 0 hr 45 min 15 sec) 

Region of Interest Statistics
cpu0_DTLB TOTAL     ACCESS:    3468742  HIT:    3160079  MISS:     308663
cpu0_DTLB LOAD      ACCESS:    3074592  HIT:    2796883  MISS:     277709
cpu0_DTLB RFO       ACCESS:     394150  HIT:     363196  MISS:      30954
cpu0_DTLB PREFETCH  ACCESS:          0  HIT:          0  MISS:          0
cpu0_DTLB WRITEBACK ACCESS:          0  HIT:          0  MISS:          0
cpu0_ITLB TOTAL     ACCESS:    1798432  HIT:    1798424  MISS:          8
cpu0_ITLB LOAD      ACCESS:    1798432  HIT:    1798424  MISS:          8
cpu0_ITLB RFO       ACCESS:          0  HIT:          0  MISS:          0
cpu0_ITLB PREFETCH  ACCESS:          0  HIT:          0  MISS:          0
cpu0_ITLB WRITEBACK ACCESS:          0  HIT:          0  MISS:          0
cpu0_L1I TOTAL     ACCESS:        833  HIT:        728  MISS:        105
cpu0_L1I LOAD      ACCESS:        833  HIT:        728  MISS:        105
cpu0_L1I RFO       ACCESS:          0  HIT:          0  MISS:          0
cpu0_L1I PREFETCH  ACCESS:          0  HIT:          0  MISS:          0
cpu0_L1I WRITEBACK ACCESS:          0  HIT:          0  MISS:          0
cpu0_STLB TOTAL     ACCESS:     308671  HIT:     304683  MISS:       3988
cpu0_STLB LOAD      ACCESS:     277717  HIT:     273905  MISS:       3812
cpu0_STLB RFO       ACCESS:      30954  HIT:      30778  MISS:        176
cpu0_STLB PREFETCH  ACCESS:          0  HIT:          0  MISS:          0
cpu0_STLB WRITEBACK ACCESS:          0  HIT:          0  MISS:          0
cpu0_L1D TOTAL     ACCESS:    3422437  HIT:    3056976  MISS:     365461
cpu0_L1D LOAD      ACCESS:    2818079  HIT:    2455623  MISS:     362456
cpu0_L1D RFO       ACCESS:     600622  HIT:     597778  MISS:       2844
cpu0_L1D PREFETCH  ACCESS:          0  HIT:          0  MISS:          0
cpu0_L1D WRITEBACK ACCESS:          0  HIT:          0  MISS:          0
cpu0_L2C TOTAL     ACCESS:     483777  HIT:      67647  MISS:     416130
cpu0_L2C LOAD      ACCESS:     362530  HIT:      15058  MISS:     347472
cpu0_L2C RFO       ACCESS:       2842  HIT:        401  MISS:       2441
cpu0_L2C PREFETCH  ACCESS:          0  HIT:          0  MISS:          0
cpu0_L2C WRITEBACK ACCESS:     118244  HIT:      52175  MISS:      66069
LLC TOTAL     ACCESS:     464723  HIT:     432148  MISS:      32575
LLC LOAD      ACCESS:     347458  HIT:     315099  MISS:      32359
LLC RFO       ACCESS:       2441  HIT:       2233  MISS:        208
LLC PREFETCH  ACCESS:          0  HIT:          0  MISS:          0
LLC WRITEBACK ACCESS:     114676  HIT:     114676  MISS:          0
Heartbeat CPU 0 instructions: 66000003 cycles: 53700492 heartbeat IPC: 0.40993 cumulative IPC: 0.407748 (Simulation time: 0 hr 46 min 32 sec) 

Region of Interest Statistics
cpu0_DTLB TOTAL     ACCESS:    3968288  HIT:    3612992  MISS:     355296
cpu0_DTLB LOAD      ACCESS:    3519183  HIT:    3200093  MISS:     319090
cpu0_DTLB RFO       ACCESS:     449105  HIT:     412899  MISS:      36206
cpu0_DTLB PREFETCH  ACCESS:          0  HIT:          0  MISS:          0
cpu0_DTLB WRITEBACK ACCESS:          0  HIT:          0  MISS:          0
cpu0_ITLB TOTAL     ACCESS:    2055445  HIT:    2055437  MISS:          8
cpu0_ITLB LOAD      ACCESS:    2055445  HIT:    2055437  MISS:          8
cpu0_ITLB RFO       ACCESS:          0  HIT:          0  MISS:          0
cpu0_ITLB PREFETCH  ACCESS:          0  HIT:          0  MISS:          0
cpu0_ITLB WRITEBACK ACCESS:          0  HIT:          0  MISS:          0
cpu0_L1I TOTAL     ACCESS:       1012  HIT:        907  MISS:        105
cpu0_L1I LOAD      ACCESS:       1012  HIT:        907  MISS:        105
cpu0_L1I RFO       ACCESS:          0  HIT:          0  MISS:          0
cpu0_L1I PREFETCH  ACCESS:          0  HIT:          0  MISS:          0
cpu0_L1I WRITEBACK ACCESS:          0  HIT:          0  MISS:          0
cpu0_STLB TOTAL     ACCESS:     355304  HIT:     348357  MISS:       6947
cpu0_STLB LOAD      ACCESS:     319098  HIT:     312769  MISS:       6329
cpu0_STLB RFO       ACCESS:      36206  HIT:      35588  MISS:        618
cpu0_STLB PREFETCH  ACCESS:          0  HIT:          0  MISS:          0
cpu0_STLB WRITEBACK ACCESS:          0  HIT:          0  MISS:          0
cpu0_L1D TOTAL     ACCESS:    3916170  HIT:    3495596  MISS:     420574
cpu0_L1D LOAD      ACCESS:    3223758  HIT:    2806928  MISS:     416830
cpu0_L1D RFO       ACCESS:     685839  HIT:     682257  MISS:       3582
cpu0_L1D PREFETCH  ACCESS:          0  HIT:          0  MISS:          0
cpu0_L1D WRITEBACK ACCESS:          0  HIT:          0  MISS:          0
cpu0_L2C TOTAL     ACCESS:     557427  HIT:      76685  MISS:     480742
cpu0_L2C LOAD      ACCESS:     416902  HIT:      16124  MISS:     400778
cpu0_L2C RFO       ACCESS:       3580  HIT:        478  MISS:       3102
cpu0_L2C PREFETCH  ACCESS:          0  HIT:          0  MISS:          0
cpu0_L2C WRITEBACK ACCESS:     136783  HIT:      60070  MISS:      76713
LLC TOTAL     ACCESS:     536936  HIT:     500186  MISS:      36750
LLC LOAD      ACCESS:     400763  HIT:     364235  MISS:      36528
LLC RFO       ACCESS:       3102  HIT:       2888  MISS:        214
LLC PREFETCH  ACCESS:          0  HIT:          0  MISS:          0
LLC WRITEBACK ACCESS:     132922  HIT:     132922  MISS:          0
Heartbeat CPU 0 instructions: 68000000 cycles: 58576881 heartbeat IPC: 0.410139 cumulative IPC: 0.408013 (Simulation time: 0 hr 47 min 46 sec) 

Region of Interest Statistics
cpu0_DTLB TOTAL     ACCESS:    4468497  HIT:    4069411  MISS:     399086
cpu0_DTLB LOAD      ACCESS:    3964004  HIT:    3606764  MISS:     357240
cpu0_DTLB RFO       ACCESS:     504493  HIT:     462647  MISS:      41846
cpu0_DTLB PREFETCH  ACCESS:          0  HIT:          0  MISS:          0
cpu0_DTLB WRITEBACK ACCESS:          0  HIT:          0  MISS:          0
cpu0_ITLB TOTAL     ACCESS:    2312213  HIT:    2312205  MISS:          8
cpu0_ITLB LOAD      ACCESS:    2312213  HIT:    2312205  MISS:          8
cpu0_ITLB RFO       ACCESS:          0  HIT:          0  MISS:          0
cpu0_ITLB PREFETCH  ACCESS:          0  HIT:          0  MISS:          0
cpu0_ITLB WRITEBACK ACCESS:          0  HIT:          0  MISS:          0
cpu0_L1I TOTAL     ACCESS:       1012  HIT:        907  MISS:        105
cpu0_L1I LOAD      ACCESS:       1012  HIT:        907  MISS:        105
cpu0_L1I RFO       ACCESS:          0  HIT:          0  MISS:          0
cpu0_L1I PREFETCH  ACCESS:          0  HIT:          0  MISS:          0
cpu0_L1I WRITEBACK ACCESS:          0  HIT:          0  MISS:          0
cpu0_STLB TOTAL     ACCESS:     399094  HIT:     389319  MISS:       9775
cpu0_STLB LOAD      ACCESS:     357248  HIT:     348504  MISS:       8744
cpu0_STLB RFO       ACCESS:      41846  HIT:      40815  MISS:       1031
cpu0_STLB PREFETCH  ACCESS:          0  HIT:          0  MISS:          0
cpu0_STLB WRITEBACK ACCESS:          0  HIT:          0  MISS:          0
cpu0_L1D TOTAL     ACCESS:    4408921  HIT:    3934732  MISS:     474189
cpu0_L1D LOAD      ACCESS:    3628617  HIT:    3158979  MISS:     469638
cpu0_L1D RFO       ACCESS:     770982  HIT:     766594  MISS:       4388
cpu0_L1D PREFETCH  ACCESS:          0  HIT:          0  MISS:          0
cpu0_L1D WRITEBACK ACCESS:          0  HIT:          0  MISS:          0
cpu0_L2C TOTAL     ACCESS:     629269  HIT:      86073  MISS:     543196
cpu0_L2C LOAD      ACCESS:     469710  HIT:      17520  MISS:     452190
cpu0_L2C RFO       ACCESS:       4386  HIT:        576  MISS:       3810
cpu0_L2C PREFETCH  ACCESS:          0  HIT:          0  MISS:          0
cpu0_L2C WRITEBACK ACCESS:     155010  HIT:      67964  MISS:      87046
LLC TOTAL     ACCESS:     606887  HIT:     565792  MISS:      41095
LLC LOAD      ACCESS:     452174  HIT:     411302  MISS:      40872
LLC RFO       ACCESS:       3810  HIT:       3595  MISS:        215
LLC PREFETCH  ACCESS:          0  HIT:          0  MISS:          0
LLC WRITEBACK ACCESS:     150753  HIT:     150753  MISS:          0
Heartbeat CPU 0 instructions: 70000000 cycles: 63687580 heartbeat IPC: 0.391336 cumulative IPC: 0.406281 (Simulation time: 0 hr 49 min 10 sec) 

Region of Interest Statistics
cpu0_DTLB TOTAL     ACCESS:    4969022  HIT:    4520193  MISS:     448829
cpu0_DTLB LOAD      ACCESS:    4409720  HIT:    4008688  MISS:     401032
cpu0_DTLB RFO       ACCESS:     559302  HIT:     511505  MISS:      47797
cpu0_DTLB PREFETCH  ACCESS:          0  HIT:          0  MISS:          0
cpu0_DTLB WRITEBACK ACCESS:          0  HIT:          0  MISS:          0
cpu0_ITLB TOTAL     ACCESS:    2570060  HIT:    2570052  MISS:          8
cpu0_ITLB LOAD      ACCESS:    2570060  HIT:    2570052  MISS:          8
cpu0_ITLB RFO       ACCESS:          0  HIT:          0  MISS:          0
cpu0_ITLB PREFETCH  ACCESS:          0  HIT:          0  MISS:          0
cpu0_ITLB WRITEBACK ACCESS:          0  HIT:          0  MISS:          0
cpu0_L1I TOTAL     ACCESS:       1027  HIT:        922  MISS:        105
cpu0_L1I LOAD      ACCESS:       1027  HIT:        922  MISS:        105
cpu0_L1I RFO       ACCESS:          0  HIT:          0  MISS:          0
cpu0_L1I PREFETCH  ACCESS:          0  HIT:          0  MISS:          0
cpu0_L1I WRITEBACK ACCESS:          0  HIT:          0  MISS:          0
cpu0_STLB TOTAL     ACCESS:     448837  HIT:     426477  MISS:      22360
cpu0_STLB LOAD      ACCESS:     401040  HIT:     381380  MISS:      19660
cpu0_STLB RFO       ACCESS:      47797  HIT:      45097  MISS:       2700
cpu0_STLB PREFETCH  ACCESS:          0  HIT:          0  MISS:          0
cpu0_STLB WRITEBACK ACCESS:          0  HIT:          0  MISS:          0
cpu0_L1D TOTAL     ACCESS:    4912204  HIT:    4378300  MISS:     533904
cpu0_L1D LOAD      ACCESS:    4034901  HIT:    3506390  MISS:     528511
cpu0_L1D RFO       ACCESS:     856112  HIT:     850962  MISS:       5150
cpu0_L1D PREFETCH  ACCESS:          0  HIT:          0  MISS:          0
cpu0_L1D WRITEBACK ACCESS:          0  HIT:          0  MISS:          0
cpu0_L2C TOTAL     ACCESS:     709259  HIT:      96355  MISS:     612904
cpu0_L2C LOAD      ACCESS:     528581  HIT:      19284  MISS:     509297
cpu0_L2C RFO       ACCESS:       5148  HIT:        689  MISS:       4459
cpu0_L2C PREFETCH  ACCESS:          0  HIT:          0  MISS:          0
cpu0_L2C WRITEBACK ACCESS:     175287  HIT:      76369  MISS:      98918
LLC TOTAL     ACCESS:     684502  HIT:     638855  MISS:      45647
LLC LOAD      ACCESS:     509281  HIT:     463857  MISS:      45424
LLC RFO       ACCESS:       4459  HIT:       4244  MISS:        215
LLC PREFETCH  ACCESS:          0  HIT:          0  MISS:          0
LLC WRITEBACK ACCESS:     170532  HIT:     170532  MISS:          0
Heartbeat CPU 0 instructions: 72000000 cycles: 68849591 heartbeat IPC: 0.387446 cumulative IPC: 0.404494 (Simulation time: 0 hr 50 min 34 sec) 

Region of Interest Statistics
cpu0_DTLB TOTAL     ACCESS:    5467236  HIT:    4968838  MISS:     498398
cpu0_DTLB LOAD      ACCESS:    4853633  HIT:    4407186  MISS:     446447
cpu0_DTLB RFO       ACCESS:     613603  HIT:     561652  MISS:      51951
cpu0_DTLB PREFETCH  ACCESS:          0  HIT:          0  MISS:          0
cpu0_DTLB WRITEBACK ACCESS:          0  HIT:          0  MISS:          0
cpu0_ITLB TOTAL     ACCESS:    2827969  HIT:    2827961  MISS:          8
cpu0_ITLB LOAD      ACCESS:    2827969  HIT:    2827961  MISS:          8
cpu0_ITLB RFO       ACCESS:          0  HIT:          0  MISS:          0
cpu0_ITLB PREFETCH  ACCESS:          0  HIT:          0  MISS:          0
cpu0_ITLB WRITEBACK ACCESS:          0  HIT:          0  MISS:          0
cpu0_L1I TOTAL     ACCESS:       1033  HIT:        928  MISS:        105
cpu0_L1I LOAD      ACCESS:       1033  HIT:        928  MISS:        105
cpu0_L1I RFO       ACCESS:          0  HIT:          0  MISS:          0
cpu0_L1I PREFETCH  ACCESS:          0  HIT:          0  MISS:          0
cpu0_L1I WRITEBACK ACCESS:          0  HIT:          0  MISS:          0
cpu0_STLB TOTAL     ACCESS:     498406  HIT:     448033  MISS:      50373
cpu0_STLB LOAD      ACCESS:     446455  HIT:     401966  MISS:      44489
cpu0_STLB RFO       ACCESS:      51951  HIT:      46067  MISS:       5884
cpu0_STLB PREFETCH  ACCESS:          0  HIT:          0  MISS:          0
cpu0_STLB WRITEBACK ACCESS:          0  HIT:          0  MISS:          0
cpu0_L1D TOTAL     ACCESS:    5429961  HIT:    4838291  MISS:     591670
cpu0_L1D LOAD      ACCESS:    4441376  HIT:    3855962  MISS:     585414
cpu0_L1D RFO       ACCESS:     941590  HIT:     935639  MISS:       5951
cpu0_L1D PREFETCH  ACCESS:          0  HIT:          0  MISS:          0
cpu0_L1D WRITEBACK ACCESS:          0  HIT:          0  MISS:          0
cpu0_L2C TOTAL     ACCESS:     786566  HIT:     106444  MISS:     680122
cpu0_L2C LOAD      ACCESS:     585483  HIT:      20998  MISS:     564485
cpu0_L2C RFO       ACCESS:       5949  HIT:        791  MISS:       5158
cpu0_L2C PREFETCH  ACCESS:          0  HIT:          0  MISS:          0
cpu0_L2C WRITEBACK ACCESS:     194829  HIT:      84641  MISS:     110188
LLC TOTAL     ACCESS:     759577  HIT:     709720  MISS:      49857
LLC LOAD      ACCESS:     564469  HIT:     514852  MISS:      49617
LLC RFO       ACCESS:       5158  HIT:       4926  MISS:        232
LLC PREFETCH  ACCESS:          0  HIT:          0  MISS:          0
LLC WRITEBACK ACCESS:     189659  HIT:     189659  MISS:          0
Heartbeat CPU 0 instructions: 74000001 cycles: 73722649 heartbeat IPC: 0.41042 cumulative IPC: 0.404981 (Simulation time: 0 hr 51 min 52 sec) 

Region of Interest Statistics
cpu0_DTLB TOTAL     ACCESS:    5967480  HIT:    5427231  MISS:     540249
cpu0_DTLB LOAD      ACCESS:    5299279  HIT:    4814294  MISS:     484985
cpu0_DTLB RFO       ACCESS:     668201  HIT:     612937  MISS:      55264
cpu0_DTLB PREFETCH  ACCESS:          0  HIT:          0  MISS:          0
cpu0_DTLB WRITEBACK ACCESS:          0  HIT:          0  MISS:          0
cpu0_ITLB TOTAL     ACCESS:    3085533  HIT:    3085525  MISS:          8
cpu0_ITLB LOAD      ACCESS:    3085533  HIT:    3085525  MISS:          8
cpu0_ITLB RFO       ACCESS:          0  HIT:          0  MISS:          0
cpu0_ITLB PREFETCH  ACCESS:          0  HIT:          0  MISS:          0
cpu0_ITLB WRITEBACK ACCESS:          0  HIT:          0  MISS:          0
cpu0_L1I TOTAL     ACCESS:       1046  HIT:        941  MISS:        105
cpu0_L1I LOAD      ACCESS:       1046  HIT:        941  MISS:        105
cpu0_L1I RFO       ACCESS:          0  HIT:          0  MISS:          0
cpu0_L1I PREFETCH  ACCESS:          0  HIT:          0  MISS:          0
cpu0_L1I WRITEBACK ACCESS:          0  HIT:          0  MISS:          0
cpu0_STLB TOTAL     ACCESS:     540257  HIT:     483937  MISS:      56320
cpu0_STLB LOAD      ACCESS:     484993  HIT:     435069  MISS:      49924
cpu0_STLB RFO       ACCESS:      55264  HIT:      48868  MISS:       6396
cpu0_STLB PREFETCH  ACCESS:          0  HIT:          0  MISS:          0
cpu0_STLB WRITEBACK ACCESS:          0  HIT:          0  MISS:          0
cpu0_L1D TOTAL     ACCESS:    5927069  HIT:    5283439  MISS:     643630
cpu0_L1D LOAD      ACCESS:    4847884  HIT:    4211356  MISS:     636528
cpu0_L1D RFO       ACCESS:    1026571  HIT:    1019783  MISS:       6788
cpu0_L1D PREFETCH  ACCESS:          0  HIT:          0  MISS:          0
cpu0_L1D WRITEBACK ACCESS:          0  HIT:          0  MISS:          0
cpu0_L2C TOTAL     ACCESS:     856074  HIT:     115296  MISS:     740778
cpu0_L2C LOAD      ACCESS:     636595  HIT:      22598  MISS:     613997
cpu0_L2C RFO       ACCESS:       6786  HIT:        922  MISS:       5864
cpu0_L2C PREFETCH  ACCESS:          0  HIT:          0  MISS:          0
cpu0_L2C WRITEBACK ACCESS:     212379  HIT:      91762  MISS:     120617
LLC TOTAL     ACCESS:     826935  HIT:     773152  MISS:      53783
LLC LOAD      ACCESS:     613980  HIT:     560443  MISS:      53537
LLC RFO       ACCESS:       5864  HIT:       5626  MISS:        238
LLC PREFETCH  ACCESS:          0  HIT:          0  MISS:          0
LLC WRITEBACK ACCESS:     206791  HIT:     206791  MISS:          0
Heartbeat CPU 0 instructions: 76000000 cycles: 78531674 heartbeat IPC: 0.415884 cumulative IPC: 0.405799 (Simulation time: 0 hr 53 min 10 sec) 

Region of Interest Statistics
cpu0_DTLB TOTAL     ACCESS:    6472619  HIT:    5894719  MISS:     577900
cpu0_DTLB LOAD      ACCESS:    5749989  HIT:    5231648  MISS:     518341
cpu0_DTLB RFO       ACCESS:     722630  HIT:     663071  MISS:      59559
cpu0_DTLB PREFETCH  ACCESS:          0  HIT:          0  MISS:          0
cpu0_DTLB WRITEBACK ACCESS:          0  HIT:          0  MISS:          0
cpu0_ITLB TOTAL     ACCESS:    3343793  HIT:    3343785  MISS:          8
cpu0_ITLB LOAD      ACCESS:    3343793  HIT:    3343785  MISS:          8
cpu0_ITLB RFO       ACCESS:          0  HIT:          0  MISS:          0
cpu0_ITLB PREFETCH  ACCESS:          0  HIT:          0  MISS:          0
cpu0_ITLB WRITEBACK ACCESS:          0  HIT:          0  MISS:          0
cpu0_L1I TOTAL     ACCESS:       1046  HIT:        941  MISS:        105
cpu0_L1I LOAD      ACCESS:       1046  HIT:        941  MISS:        105
cpu0_L1I RFO       ACCESS:          0  HIT:          0  MISS:          0
cpu0_L1I PREFETCH  ACCESS:          0  HIT:          0  MISS:          0
cpu0_L1I WRITEBACK ACCESS:          0  HIT:          0  MISS:          0
cpu0_STLB TOTAL     ACCESS:     577908  HIT:     517616  MISS:      60292
cpu0_STLB LOAD      ACCESS:     518349  HIT:     465039  MISS:      53310
cpu0_STLB RFO       ACCESS:      59559  HIT:      52577  MISS:       6982
cpu0_STLB PREFETCH  ACCESS:          0  HIT:          0  MISS:          0
cpu0_STLB WRITEBACK ACCESS:          0  HIT:          0  MISS:          0
cpu0_L1D TOTAL     ACCESS:    6425402  HIT:    5730912  MISS:     694490
cpu0_L1D LOAD      ACCESS:    5258590  HIT:    4572234  MISS:     686356
cpu0_L1D RFO       ACCESS:    1110338  HIT:    1102523  MISS:       7815
cpu0_L1D PREFETCH  ACCESS:          0  HIT:          0  MISS:          0
cpu0_L1D WRITEBACK ACCESS:          0  HIT:          0  MISS:          0
cpu0_L2C TOTAL     ACCESS:     923763  HIT:     126048  MISS:     797715
cpu0_L2C LOAD      ACCESS:     686420  HIT:      25494  MISS:     660926
cpu0_L2C RFO       ACCESS:       7813  HIT:       1127  MISS:       6686
cpu0_L2C PREFETCH  ACCESS:          0  HIT:          0  MISS:          0
cpu0_L2C WRITEBACK ACCESS:     229211  HIT:      99413  MISS:     129798
LLC TOTAL     ACCESS:     890759  HIT:     832799  MISS:      57960
LLC LOAD      ACCESS:     660909  HIT:     603199  MISS:      57710
LLC RFO       ACCESS:       6686  HIT:       6444  MISS:        242
LLC PREFETCH  ACCESS:          0  HIT:          0  MISS:          0
LLC WRITEBACK ACCESS:     222859  HIT:     222859  MISS:          0
Heartbeat CPU 0 instructions: 78000000 cycles: 83474752 heartbeat IPC: 0.404606 cumulative IPC: 0.405714 (Simulation time: 0 hr 55 min 1 sec) 

Region of Interest Statistics
cpu0_DTLB TOTAL     ACCESS:    6975670  HIT:    6356157  MISS:     619513
cpu0_DTLB LOAD      ACCESS:    6197906  HIT:    5643153  MISS:     554753
cpu0_DTLB RFO       ACCESS:     777764  HIT:     713004  MISS:      64760
cpu0_DTLB PREFETCH  ACCESS:          0  HIT:          0  MISS:          0
cpu0_DTLB WRITEBACK ACCESS:          0  HIT:          0  MISS:          0
cpu0_ITLB TOTAL     ACCESS:    3601886  HIT:    3601878  MISS:          8
cpu0_ITLB LOAD      ACCESS:    3601886  HIT:    3601878  MISS:          8
cpu0_ITLB RFO       ACCESS:          0  HIT:          0  MISS:          0
cpu0_ITLB PREFETCH  ACCESS:          0  HIT:          0  MISS:          0
cpu0_ITLB WRITEBACK ACCESS:          0  HIT:          0  MISS:          0
cpu0_L1I TOTAL     ACCESS:       1046  HIT:        941  MISS:        105
cpu0_L1I LOAD      ACCESS:       1046  HIT:        941  MISS:        105
cpu0_L1I RFO       ACCESS:          0  HIT:          0  MISS:          0
cpu0_L1I PREFETCH  ACCESS:          0  HIT:          0  MISS:          0
cpu0_L1I WRITEBACK ACCESS:          0  HIT:          0  MISS:          0
cpu0_STLB TOTAL     ACCESS:     619521  HIT:     545810  MISS:      73711
cpu0_STLB LOAD      ACCESS:     554761  HIT:     489951  MISS:      64810
cpu0_STLB RFO       ACCESS:      64760  HIT:      55859  MISS:       8901
cpu0_STLB PREFETCH  ACCESS:          0  HIT:          0  MISS:          0
cpu0_STLB WRITEBACK ACCESS:          0  HIT:          0  MISS:          0
cpu0_L1D TOTAL     ACCESS:    6932361  HIT:    6185366  MISS:     746995
cpu0_L1D LOAD      ACCESS:    5668057  HIT:    4930118  MISS:     737939
cpu0_L1D RFO       ACCESS:    1195139  HIT:    1186432  MISS:       8707
cpu0_L1D PREFETCH  ACCESS:          0  HIT:          0  MISS:          0
cpu0_L1D WRITEBACK ACCESS:          0  HIT:          0  MISS:          0
cpu0_L2C TOTAL     ACCESS:     993987  HIT:     135763  MISS:     858224
cpu0_L2C LOAD      ACCESS:     738003  HIT:      27917  MISS:     710086
cpu0_L2C RFO       ACCESS:       8705  HIT:       1273  MISS:       7432
cpu0_L2C PREFETCH  ACCESS:          0  HIT:          0  MISS:          0
cpu0_L2C WRITEBACK ACCESS:     246930  HIT:     106559  MISS:     140371
LLC TOTAL     ACCESS:     957801  HIT:     895501  MISS:      62300
LLC LOAD      ACCESS:     710068  HIT:     648018  MISS:      62050
LLC RFO       ACCESS:       7432  HIT:       7190  MISS:        242
LLC PREFETCH  ACCESS:          0  HIT:          0  MISS:          0
LLC WRITEBACK ACCESS:     239966  HIT:     239966  MISS:          0
Heartbeat CPU 0 instructions: 80000002 cycles: 88516234 heartbeat IPC: 0.396709 cumulative IPC: 0.405101 (Simulation time: 0 hr 56 min 17 sec) 

Region of Interest Statistics
cpu0_DTLB TOTAL     ACCESS:    7477545  HIT:    6816987  MISS:     660558
cpu0_DTLB LOAD      ACCESS:    6644748  HIT:    6052976  MISS:     591772
cpu0_DTLB RFO       ACCESS:     832797  HIT:     764011  MISS:      68786
cpu0_DTLB PREFETCH  ACCESS:          0  HIT:          0  MISS:          0
cpu0_DTLB WRITEBACK ACCESS:          0  HIT:          0  MISS:          0
cpu0_ITLB TOTAL     ACCESS:    3860780  HIT:    3860772  MISS:          8
cpu0_ITLB LOAD      ACCESS:    3860780  HIT:    3860772  MISS:          8
cpu0_ITLB RFO       ACCESS:          0  HIT:          0  MISS:          0
cpu0_ITLB PREFETCH  ACCESS:          0  HIT:          0  MISS:          0
cpu0_ITLB WRITEBACK ACCESS:          0  HIT:          0  MISS:          0
cpu0_L1I TOTAL     ACCESS:       1059  HIT:        954  MISS:        105
cpu0_L1I LOAD      ACCESS:       1059  HIT:        954  MISS:        105
cpu0_L1I RFO       ACCESS:          0  HIT:          0  MISS:          0
cpu0_L1I PREFETCH  ACCESS:          0  HIT:          0  MISS:          0
cpu0_L1I WRITEBACK ACCESS:          0  HIT:          0  MISS:          0
cpu0_STLB TOTAL     ACCESS:     660566  HIT:     562075  MISS:      98491
cpu0_STLB LOAD      ACCESS:     591780  HIT:     505684  MISS:      86096
cpu0_STLB RFO       ACCESS:      68786  HIT:      56391  MISS:      12395
cpu0_STLB PREFETCH  ACCESS:          0  HIT:          0  MISS:          0
cpu0_STLB WRITEBACK ACCESS:          0  HIT:          0  MISS:          0
cpu0_L1D TOTAL     ACCESS:    7448835  HIT:    6647622  MISS:     801213
cpu0_L1D LOAD      ACCESS:    6076833  HIT:    5285755  MISS:     791078
cpu0_L1D RFO       ACCESS:    1280022  HIT:    1270291  MISS:       9731
cpu0_L1D PREFETCH  ACCESS:          0  HIT:          0  MISS:          0
cpu0_L1D WRITEBACK ACCESS:          0  HIT:          0  MISS:          0
cpu0_L2C TOTAL     ACCESS:    1066101  HIT:     145714  MISS:     920387
cpu0_L2C LOAD      ACCESS:     791140  HIT:      29803  MISS:     761337
cpu0_L2C RFO       ACCESS:       9729  HIT:       1405  MISS:       8324
cpu0_L2C PREFETCH  ACCESS:          0  HIT:          0  MISS:          0
cpu0_L2C WRITEBACK ACCESS:     264828  HIT:     114490  MISS:     150338
LLC TOTAL     ACCESS:    1027428  HIT:     960995  MISS:      66433
LLC LOAD      ACCESS:     761319  HIT:     695136  MISS:      66183
LLC RFO       ACCESS:       8324  HIT:       8082  MISS:        242
LLC PREFETCH  ACCESS:          0  HIT:          0  MISS:          0
LLC WRITEBACK ACCESS:     257397  HIT:     257397  MISS:          0
Heartbeat CPU 0 instructions: 82000002 cycles: 93654472 heartbeat IPC: 0.389238 cumulative IPC: 0.404072 (Simulation time: 0 hr 57 min 36 sec) 

Region of Interest Statistics
cpu0_DTLB TOTAL     ACCESS:    7977352  HIT:    7273302  MISS:     704050
cpu0_DTLB LOAD      ACCESS:    7090380  HIT:    6457551  MISS:     632829
cpu0_DTLB RFO       ACCESS:     886972  HIT:     815751  MISS:      71221
cpu0_DTLB PREFETCH  ACCESS:          0  HIT:          0  MISS:          0
cpu0_DTLB WRITEBACK ACCESS:          0  HIT:          0  MISS:          0
cpu0_ITLB TOTAL     ACCESS:    4119876  HIT:    4119868  MISS:          8
cpu0_ITLB LOAD      ACCESS:    4119876  HIT:    4119868  MISS:          8
cpu0_ITLB RFO       ACCESS:          0  HIT:          0  MISS:          0
cpu0_ITLB PREFETCH  ACCESS:          0  HIT:          0  MISS:          0
cpu0_ITLB WRITEBACK ACCESS:          0  HIT:          0  MISS:          0
cpu0_L1I TOTAL     ACCESS:       1075  HIT:        970  MISS:        105
cpu0_L1I LOAD      ACCESS:       1075  HIT:        970  MISS:        105
cpu0_L1I RFO       ACCESS:          0  HIT:          0  MISS:          0
cpu0_L1I PREFETCH  ACCESS:          0  HIT:          0  MISS:          0
cpu0_L1I WRITEBACK ACCESS:          0  HIT:          0  MISS:          0
cpu0_STLB TOTAL     ACCESS:     704058  HIT:     580860  MISS:     123198
cpu0_STLB LOAD      ACCESS:     632837  HIT:     524177  MISS:     108660
cpu0_STLB RFO       ACCESS:      71221  HIT:      56683  MISS:      14538
cpu0_STLB PREFETCH  ACCESS:          0  HIT:          0  MISS:          0
cpu0_STLB WRITEBACK ACCESS:          0  HIT:          0  MISS:          0
cpu0_L1D TOTAL     ACCESS:    7962997  HIT:    7106718  MISS:     856279
cpu0_L1D LOAD      ACCESS:    6483657  HIT:    5638535  MISS:     845122
cpu0_L1D RFO       ACCESS:    1364424  HIT:    1353730  MISS:      10694
cpu0_L1D PREFETCH  ACCESS:          0  HIT:          0  MISS:          0
cpu0_L1D WRITEBACK ACCESS:          0  HIT:          0  MISS:          0
cpu0_L2C TOTAL     ACCESS:    1138973  HIT:     156095  MISS:     982878
cpu0_L2C LOAD      ACCESS:     845183  HIT:      31728  MISS:     813455
cpu0_L2C RFO       ACCESS:      10692  HIT:       1555  MISS:       9137
cpu0_L2C PREFETCH  ACCESS:          0  HIT:          0  MISS:          0
cpu0_L2C WRITEBACK ACCESS:     282635  HIT:     122789  MISS:     159846
LLC TOTAL     ACCESS:    1097788  HIT:    1027143  MISS:      70645
LLC LOAD      ACCESS:     813437  HIT:     743043  MISS:      70394
LLC RFO       ACCESS:       9137  HIT:       8894  MISS:        243
LLC PREFETCH  ACCESS:          0  HIT:          0  MISS:          0
LLC WRITEBACK ACCESS:     274774  HIT:     274774  MISS:          0
Heartbeat CPU 0 instructions: 84000000 cycles: 98794946 heartbeat IPC: 0.389069 cumulative IPC: 0.403157 (Simulation time: 0 hr 58 min 57 sec) 

Region of Interest Statistics
cpu0_DTLB TOTAL     ACCESS:    8475304  HIT:    7725811  MISS:     749493
cpu0_DTLB LOAD      ACCESS:    7534409  HIT:    6858450  MISS:     675959
cpu0_DTLB RFO       ACCESS:     940895  HIT:     867361  MISS:      73534
cpu0_DTLB PREFETCH  ACCESS:          0  HIT:          0  MISS:          0
cpu0_DTLB WRITEBACK ACCESS:          0  HIT:          0  MISS:          0
cpu0_ITLB TOTAL     ACCESS:    4378915  HIT:    4378907  MISS:          8
cpu0_ITLB LOAD      ACCESS:    4378915  HIT:    4378907  MISS:          8
cpu0_ITLB RFO       ACCESS:          0  HIT:          0  MISS:          0
cpu0_ITLB PREFETCH  ACCESS:          0  HIT:          0  MISS:          0
cpu0_ITLB WRITEBACK ACCESS:          0  HIT:          0  MISS:          0
cpu0_L1I TOTAL     ACCESS:       1126  HIT:       1021  MISS:        105
cpu0_L1I LOAD      ACCESS:       1126  HIT:       1021  MISS:        105
cpu0_L1I RFO       ACCESS:          0  HIT:          0  MISS:          0
cpu0_L1I PREFETCH  ACCESS:          0  HIT:          0  MISS:          0
cpu0_L1I WRITEBACK ACCESS:          0  HIT:          0  MISS:          0
cpu0_STLB TOTAL     ACCESS:     749501  HIT:     605630  MISS:     143871
cpu0_STLB LOAD      ACCESS:     675967  HIT:     548167  MISS:     127800
cpu0_STLB RFO       ACCESS:      73534  HIT:      57463  MISS:      16071
cpu0_STLB PREFETCH  ACCESS:          0  HIT:          0  MISS:          0
cpu0_STLB WRITEBACK ACCESS:          0  HIT:          0  MISS:          0
cpu0_L1D TOTAL     ACCESS:    8472184  HIT:    7559674  MISS:     912510
cpu0_L1D LOAD      ACCESS:    6889487  HIT:    5989007  MISS:     900480
cpu0_L1D RFO       ACCESS:    1448516  HIT:    1437005  MISS:      11511
cpu0_L1D PREFETCH  ACCESS:          0  HIT:          0  MISS:          0
cpu0_L1D WRITEBACK ACCESS:          0  HIT:          0  MISS:          0
cpu0_L2C TOTAL     ACCESS:    1212905  HIT:     165837  MISS:    1047068
cpu0_L2C LOAD      ACCESS:     900541  HIT:      33215  MISS:     867326
cpu0_L2C RFO       ACCESS:      11509  HIT:       1661  MISS:       9848
cpu0_L2C PREFETCH  ACCESS:          0  HIT:          0  MISS:          0
cpu0_L2C WRITEBACK ACCESS:     300336  HIT:     130934  MISS:     169402
LLC TOTAL     ACCESS:    1169809  HIT:    1095084  MISS:      74725
LLC LOAD      ACCESS:     867307  HIT:     792833  MISS:      74474
LLC RFO       ACCESS:       9848  HIT:       9605  MISS:        243
LLC PREFETCH  ACCESS:          0  HIT:          0  MISS:          0
LLC WRITEBACK ACCESS:     292162  HIT:     292162  MISS:          0
Heartbeat CPU 0 instructions: 86000001 cycles: 104064434 heartbeat IPC: 0.379544 cumulative IPC: 0.401768 (Simulation time: 1 hr 0 min 18 sec) 

Region of Interest Statistics
cpu0_DTLB TOTAL     ACCESS:    8974739  HIT:    8178090  MISS:     796649
cpu0_DTLB LOAD      ACCESS:    7979597  HIT:    7258894  MISS:     720703
cpu0_DTLB RFO       ACCESS:     995142  HIT:     919196  MISS:      75946
cpu0_DTLB PREFETCH  ACCESS:          0  HIT:          0  MISS:          0
cpu0_DTLB WRITEBACK ACCESS:          0  HIT:          0  MISS:          0
cpu0_ITLB TOTAL     ACCESS:    4638422  HIT:    4638414  MISS:          8
cpu0_ITLB LOAD      ACCESS:    4638422  HIT:    4638414  MISS:          8
cpu0_ITLB RFO       ACCESS:          0  HIT:          0  MISS:          0
cpu0_ITLB PREFETCH  ACCESS:          0  HIT:          0  MISS:          0
cpu0_ITLB WRITEBACK ACCESS:          0  HIT:          0  MISS:          0
cpu0_L1I TOTAL     ACCESS:       1264  HIT:       1159  MISS:        105
cpu0_L1I LOAD      ACCESS:       1264  HIT:       1159  MISS:        105
cpu0_L1I RFO       ACCESS:          0  HIT:          0  MISS:          0
cpu0_L1I PREFETCH  ACCESS:          0  HIT:          0  MISS:          0
cpu0_L1I WRITEBACK ACCESS:          0  HIT:          0  MISS:          0
cpu0_STLB TOTAL     ACCESS:     796657  HIT:     636813  MISS:     159844
cpu0_STLB LOAD      ACCESS:     720711  HIT:     577365  MISS:     143346
cpu0_STLB RFO       ACCESS:      75946  HIT:      59448  MISS:      16498
cpu0_STLB PREFETCH  ACCESS:          0  HIT:          0  MISS:          0
cpu0_STLB WRITEBACK ACCESS:          0  HIT:          0  MISS:          0
cpu0_L1D TOTAL     ACCESS:    8977548  HIT:    8006208  MISS:     971340
cpu0_L1D LOAD      ACCESS:    7294856  HIT:    6336310  MISS:     958546
cpu0_L1D RFO       ACCESS:    1533259  HIT:    1521021  MISS:      12238
cpu0_L1D PREFETCH  ACCESS:          0  HIT:          0  MISS:          0
cpu0_L1D WRITEBACK ACCESS:          0  HIT:          0  MISS:          0
cpu0_L2C TOTAL     ACCESS:    1290666  HIT:     175030  MISS:    1115636
cpu0_L2C LOAD      ACCESS:     958607  HIT:      34428  MISS:     924179
cpu0_L2C RFO       ACCESS:      12236  HIT:       1720  MISS:      10516
cpu0_L2C PREFETCH  ACCESS:          0  HIT:          0  MISS:          0
cpu0_L2C WRITEBACK ACCESS:     319267  HIT:     138850  MISS:     180417
LLC TOTAL     ACCESS:    1246002  HIT:    1166744  MISS:      79258
LLC LOAD      ACCESS:     924160  HIT:     845153  MISS:      79007
LLC RFO       ACCESS:      10516  HIT:      10273  MISS:        243
LLC PREFETCH  ACCESS:          0  HIT:          0  MISS:          0
LLC WRITEBACK ACCESS:     310802  HIT:     310802  MISS:          0
Heartbeat CPU 0 instructions: 88000000 cycles: 109304255 heartbeat IPC: 0.381692 cumulative IPC: 0.400659 (Simulation time: 1 hr 1 min 39 sec) 

Region of Interest Statistics
cpu0_DTLB TOTAL     ACCESS:    9478910  HIT:    8629376  MISS:     849534
cpu0_DTLB LOAD      ACCESS:    8430312  HIT:    7660941  MISS:     769371
cpu0_DTLB RFO       ACCESS:    1048598  HIT:     968435  MISS:      80163
cpu0_DTLB PREFETCH  ACCESS:          0  HIT:          0  MISS:          0
cpu0_DTLB WRITEBACK ACCESS:          0  HIT:          0  MISS:          0
cpu0_ITLB TOTAL     ACCESS:    4899137  HIT:    4899129  MISS:          8
cpu0_ITLB LOAD      ACCESS:    4899137  HIT:    4899129  MISS:          8
cpu0_ITLB RFO       ACCESS:          0  HIT:          0  MISS:          0
cpu0_ITLB PREFETCH  ACCESS:          0  HIT:          0  MISS:          0
cpu0_ITLB WRITEBACK ACCESS:          0  HIT:          0  MISS:          0
cpu0_L1I TOTAL     ACCESS:       1264  HIT:       1159  MISS:        105
cpu0_L1I LOAD      ACCESS:       1264  HIT:       1159  MISS:        105
cpu0_L1I RFO       ACCESS:          0  HIT:          0  MISS:          0
cpu0_L1I PREFETCH  ACCESS:          0  HIT:          0  MISS:          0
cpu0_L1I WRITEBACK ACCESS:          0  HIT:          0  MISS:          0
cpu0_STLB TOTAL     ACCESS:     849542  HIT:     682532  MISS:     167010
cpu0_STLB LOAD      ACCESS:     769379  HIT:     619134  MISS:     150245
cpu0_STLB RFO       ACCESS:      80163  HIT:      63398  MISS:      16765
cpu0_STLB PREFETCH  ACCESS:          0  HIT:          0  MISS:          0
cpu0_STLB WRITEBACK ACCESS:          0  HIT:          0  MISS:          0
cpu0_L1D TOTAL     ACCESS:    9478249  HIT:    8443463  MISS:    1034786
cpu0_L1D LOAD      ACCESS:    7705563  HIT:    6684380  MISS:    1021183
cpu0_L1D RFO       ACCESS:    1616413  HIT:    1603414  MISS:      12999
cpu0_L1D PREFETCH  ACCESS:          0  HIT:          0  MISS:          0
cpu0_L1D WRITEBACK ACCESS:          0  HIT:          0  MISS:          0
cpu0_L2C TOTAL     ACCESS:    1374027  HIT:     184714  MISS:    1189313
cpu0_L2C LOAD      ACCESS:    1021242  HIT:      35732  MISS:     985510
cpu0_L2C RFO       ACCESS:      12997  HIT:       1814  MISS:      11183
cpu0_L2C PREFETCH  ACCESS:          0  HIT:          0  MISS:          0
cpu0_L2C WRITEBACK ACCESS:     339184  HIT:     147135  MISS:     192049
LLC TOTAL     ACCESS:    1327735  HIT:    1244425  MISS:      83310
LLC LOAD      ACCESS:     985491  HIT:     902432  MISS:      83059
LLC RFO       ACCESS:      11183  HIT:      10940  MISS:        243
LLC PREFETCH  ACCESS:          0  HIT:          0  MISS:          0
LLC WRITEBACK ACCESS:     330490  HIT:     330490  MISS:          0
Heartbeat CPU 0 instructions: 90000003 cycles: 114733021 heartbeat IPC: 0.368408 cumulative IPC: 0.398913 (Simulation time: 1 hr 3 min 2 sec) 

Region of Interest Statistics
cpu0_DTLB TOTAL     ACCESS:    9981222  HIT:    9072880  MISS:     908342
cpu0_DTLB LOAD      ACCESS:    8878552  HIT:    8055308  MISS:     823244
cpu0_DTLB RFO       ACCESS:    1102670  HIT:    1017572  MISS:      85098
cpu0_DTLB PREFETCH  ACCESS:          0  HIT:          0  MISS:          0
cpu0_DTLB WRITEBACK ACCESS:          0  HIT:          0  MISS:          0
cpu0_ITLB TOTAL     ACCESS:    5159344  HIT:    5159336  MISS:          8
cpu0_ITLB LOAD      ACCESS:    5159344  HIT:    5159336  MISS:          8
cpu0_ITLB RFO       ACCESS:          0  HIT:          0  MISS:          0
cpu0_ITLB PREFETCH  ACCESS:          0  HIT:          0  MISS:          0
cpu0_ITLB WRITEBACK ACCESS:          0  HIT:          0  MISS:          0
cpu0_L1I TOTAL     ACCESS:       1302  HIT:       1197  MISS:        105
cpu0_L1I LOAD      ACCESS:       1302  HIT:       1197  MISS:        105
cpu0_L1I RFO       ACCESS:          0  HIT:          0  MISS:          0
cpu0_L1I PREFETCH  ACCESS:          0  HIT:          0  MISS:          0
cpu0_L1I WRITEBACK ACCESS:          0  HIT:          0  MISS:          0
cpu0_STLB TOTAL     ACCESS:     908350  HIT:     740436  MISS:     167914
cpu0_STLB LOAD      ACCESS:     823252  HIT:     672161  MISS:     151091
cpu0_STLB RFO       ACCESS:      85098  HIT:      68275  MISS:      16823
cpu0_STLB PREFETCH  ACCESS:          0  HIT:          0  MISS:          0
cpu0_STLB WRITEBACK ACCESS:          0  HIT:          0  MISS:          0
cpu0_L1D TOTAL     ACCESS:    9972332  HIT:    8868195  MISS:    1104137
cpu0_L1D LOAD      ACCESS:    8114204  HIT:    7024379  MISS:    1089825
cpu0_L1D RFO       ACCESS:    1700976  HIT:    1687276  MISS:      13700
cpu0_L1D PREFETCH  ACCESS:          0  HIT:          0  MISS:          0
cpu0_L1D WRITEBACK ACCESS:          0  HIT:          0  MISS:          0
cpu0_L2C TOTAL     ACCESS:    1465198  HIT:     194636  MISS:    1270562
cpu0_L2C LOAD      ACCESS:    1089884  HIT:      36736  MISS:    1053148
cpu0_L2C RFO       ACCESS:      13698  HIT:       1862  MISS:      11836
cpu0_L2C PREFETCH  ACCESS:          0  HIT:          0  MISS:          0
cpu0_L2C WRITEBACK ACCESS:     361004  HIT:     156005  MISS:     204999
LLC TOTAL     ACCESS:    1417674  HIT:    1329318  MISS:      88356
LLC LOAD      ACCESS:    1053129  HIT:     965024  MISS:      88105
LLC RFO       ACCESS:      11836  HIT:      11593  MISS:        243
LLC PREFETCH  ACCESS:          0  HIT:          0  MISS:          0
LLC WRITEBACK ACCESS:     352130  HIT:     352130  MISS:          0
Heartbeat CPU 0 instructions: 92000002 cycles: 119923849 heartbeat IPC: 0.385295 cumulative IPC: 0.398243 (Simulation time: 1 hr 4 min 24 sec) 

Region of Interest Statistics
cpu0_DTLB TOTAL     ACCESS:   10481494  HIT:    9526022  MISS:     955472
cpu0_DTLB LOAD      ACCESS:    9324380  HIT:    8456759  MISS:     867621
cpu0_DTLB RFO       ACCESS:    1157114  HIT:    1069263  MISS:      87851
cpu0_DTLB PREFETCH  ACCESS:          0  HIT:          0  MISS:          0
cpu0_DTLB WRITEBACK ACCESS:          0  HIT:          0  MISS:          0
cpu0_ITLB TOTAL     ACCESS:    5418947  HIT:    5418939  MISS:          8
cpu0_ITLB LOAD      ACCESS:    5418947  HIT:    5418939  MISS:          8
cpu0_ITLB RFO       ACCESS:          0  HIT:          0  MISS:          0
cpu0_ITLB PREFETCH  ACCESS:          0  HIT:          0  MISS:          0
cpu0_ITLB WRITEBACK ACCESS:          0  HIT:          0  MISS:          0
cpu0_L1I TOTAL     ACCESS:       1315  HIT:       1210  MISS:        105
cpu0_L1I LOAD      ACCESS:       1315  HIT:       1210  MISS:        105
cpu0_L1I RFO       ACCESS:          0  HIT:          0  MISS:          0
cpu0_L1I PREFETCH  ACCESS:          0  HIT:          0  MISS:          0
cpu0_L1I WRITEBACK ACCESS:          0  HIT:          0  MISS:          0
cpu0_STLB TOTAL     ACCESS:     955480  HIT:     775581  MISS:     179899
cpu0_STLB LOAD      ACCESS:     867629  HIT:     704838  MISS:     162791
cpu0_STLB RFO       ACCESS:      87851  HIT:      70743  MISS:      17108
cpu0_STLB PREFETCH  ACCESS:          0  HIT:          0  MISS:          0
cpu0_STLB WRITEBACK ACCESS:          0  HIT:          0  MISS:          0
cpu0_L1D TOTAL     ACCESS:   10475926  HIT:    9313329  MISS:    1162597
cpu0_L1D LOAD      ACCESS:    8521381  HIT:    7373830  MISS:    1147551
cpu0_L1D RFO       ACCESS:    1785961  HIT:    1771568  MISS:      14393
cpu0_L1D PREFETCH  ACCESS:          0  HIT:          0  MISS:          0
cpu0_L1D WRITEBACK ACCESS:          0  HIT:          0  MISS:          0
cpu0_L2C TOTAL     ACCESS:    1542289  HIT:     203262  MISS:    1339027
cpu0_L2C LOAD      ACCESS:    1147609  HIT:      37801  MISS:    1109808
cpu0_L2C RFO       ACCESS:      14391  HIT:       1923  MISS:      12468
cpu0_L2C PREFETCH  ACCESS:          0  HIT:          0  MISS:          0
cpu0_L2C WRITEBACK ACCESS:     379636  HIT:     163505  MISS:     216131
LLC TOTAL     ACCESS:    1493422  HIT:    1400774  MISS:      92648
LLC LOAD      ACCESS:    1109786  HIT:    1017389  MISS:      92397
LLC RFO       ACCESS:      12468  HIT:      12225  MISS:        243
LLC PREFETCH  ACCESS:          0  HIT:          0  MISS:          0
LLC WRITEBACK ACCESS:     370548  HIT:     370548  MISS:          0
Heartbeat CPU 0 instructions: 94000004 cycles: 124964288 heartbeat IPC: 0.396791 cumulative IPC: 0.398177 (Simulation time: 1 hr 5 min 43 sec) 

Region of Interest Statistics
cpu0_DTLB TOTAL     ACCESS:   10980202  HIT:    9981601  MISS:     998601
cpu0_DTLB LOAD      ACCESS:    9768994  HIT:    8860669  MISS:     908325
cpu0_DTLB RFO       ACCESS:    1211208  HIT:    1120932  MISS:      90276
cpu0_DTLB PREFETCH  ACCESS:          0  HIT:          0  MISS:          0
cpu0_DTLB WRITEBACK ACCESS:          0  HIT:          0  MISS:          0
cpu0_ITLB TOTAL     ACCESS:    5677236  HIT:    5677228  MISS:          8
cpu0_ITLB LOAD      ACCESS:    5677236  HIT:    5677228  MISS:          8
cpu0_ITLB RFO       ACCESS:          0  HIT:          0  MISS:          0
cpu0_ITLB PREFETCH  ACCESS:          0  HIT:          0  MISS:          0
cpu0_ITLB WRITEBACK ACCESS:          0  HIT:          0  MISS:          0
cpu0_L1I TOTAL     ACCESS:       1326  HIT:       1221  MISS:        105
cpu0_L1I LOAD      ACCESS:       1326  HIT:       1221  MISS:        105
cpu0_L1I RFO       ACCESS:          0  HIT:          0  MISS:          0
cpu0_L1I PREFETCH  ACCESS:          0  HIT:          0  MISS:          0
cpu0_L1I WRITEBACK ACCESS:          0  HIT:          0  MISS:          0
cpu0_STLB TOTAL     ACCESS:     998609  HIT:     811728  MISS:     186881
cpu0_STLB LOAD      ACCESS:     908333  HIT:     738631  MISS:     169702
cpu0_STLB RFO       ACCESS:      90276  HIT:      73097  MISS:      17179
cpu0_STLB PREFETCH  ACCESS:          0  HIT:          0  MISS:          0
cpu0_STLB WRITEBACK ACCESS:          0  HIT:          0  MISS:          0
cpu0_L1D TOTAL     ACCESS:   10972149  HIT:    9755111  MISS:    1217038
cpu0_L1D LOAD      ACCESS:    8926346  HIT:    7725166  MISS:    1201180
cpu0_L1D RFO       ACCESS:    1870469  HIT:    1855288  MISS:      15181
cpu0_L1D PREFETCH  ACCESS:          0  HIT:          0  MISS:          0
cpu0_L1D WRITEBACK ACCESS:          0  HIT:          0  MISS:          0
cpu0_L2C TOTAL     ACCESS:    1614468  HIT:     212289  MISS:    1402179
cpu0_L2C LOAD      ACCESS:    1201236  HIT:      39487  MISS:    1161749
cpu0_L2C RFO       ACCESS:      15179  HIT:       2030  MISS:      13149
cpu0_L2C PREFETCH  ACCESS:          0  HIT:          0  MISS:          0
cpu0_L2C WRITEBACK ACCESS:     397376  HIT:     170737  MISS:     226639
LLC TOTAL     ACCESS:    1563419  HIT:    1466216  MISS:      97203
LLC LOAD      ACCESS:    1161727  HIT:    1064775  MISS:      96952
LLC RFO       ACCESS:      13149  HIT:      12906  MISS:        243
LLC PREFETCH  ACCESS:          0  HIT:          0  MISS:          0
LLC WRITEBACK ACCESS:     387901  HIT:     387901  MISS:          0
Heartbeat CPU 0 instructions: 96000001 cycles: 129758638 heartbeat IPC: 0.417157 cumulative IPC: 0.398966 (Simulation time: 1 hr 7 min 1 sec) 

Region of Interest Statistics
cpu0_DTLB TOTAL     ACCESS:   11476486  HIT:   10438356  MISS:    1038130
cpu0_DTLB LOAD      ACCESS:   10210691  HIT:    9266421  MISS:     944270
cpu0_DTLB RFO       ACCESS:    1265795  HIT:    1171935  MISS:      93860
cpu0_DTLB PREFETCH  ACCESS:          0  HIT:          0  MISS:          0
cpu0_DTLB WRITEBACK ACCESS:          0  HIT:          0  MISS:          0
cpu0_ITLB TOTAL     ACCESS:    5934396  HIT:    5934388  MISS:          8
cpu0_ITLB LOAD      ACCESS:    5934396  HIT:    5934388  MISS:          8
cpu0_ITLB RFO       ACCESS:          0  HIT:          0  MISS:          0
cpu0_ITLB PREFETCH  ACCESS:          0  HIT:          0  MISS:          0
cpu0_ITLB WRITEBACK ACCESS:          0  HIT:          0  MISS:          0
cpu0_L1I TOTAL     ACCESS:       1359  HIT:       1254  MISS:        105
cpu0_L1I LOAD      ACCESS:       1359  HIT:       1254  MISS:        105
cpu0_L1I RFO       ACCESS:          0  HIT:          0  MISS:          0
cpu0_L1I PREFETCH  ACCESS:          0  HIT:          0  MISS:          0
cpu0_L1I WRITEBACK ACCESS:          0  HIT:          0  MISS:          0
cpu0_STLB TOTAL     ACCESS:    1038138  HIT:     848640  MISS:     189498
cpu0_STLB LOAD      ACCESS:     944278  HIT:     772046  MISS:     172232
cpu0_STLB RFO       ACCESS:      93860  HIT:      76594  MISS:      17266
cpu0_STLB PREFETCH  ACCESS:          0  HIT:          0  MISS:          0
cpu0_STLB WRITEBACK ACCESS:          0  HIT:          0  MISS:          0
cpu0_L1D TOTAL     ACCESS:   11462028  HIT:   10195096  MISS:    1266932
cpu0_L1D LOAD      ACCESS:    9328881  HIT:    8078512  MISS:    1250369
cpu0_L1D RFO       ACCESS:    1955270  HIT:    1939408  MISS:      15862
cpu0_L1D PREFETCH  ACCESS:          0  HIT:          0  MISS:          0
cpu0_L1D WRITEBACK ACCESS:          0  HIT:          0  MISS:          0
cpu0_L2C TOTAL     ACCESS:    1681287  HIT:     220419  MISS:    1460868
cpu0_L2C LOAD      ACCESS:    1250425  HIT:      40696  MISS:    1209729
cpu0_L2C RFO       ACCESS:      15860  HIT:       2118  MISS:      13742
cpu0_L2C PREFETCH  ACCESS:          0  HIT:          0  MISS:          0
cpu0_L2C WRITEBACK ACCESS:     414301  HIT:     177569  MISS:     236732
LLC TOTAL     ACCESS:    1628636  HIT:    1527117  MISS:     101519
LLC LOAD      ACCESS:    1209704  HIT:    1108436  MISS:     101268
LLC RFO       ACCESS:      13742  HIT:      13499  MISS:        243
LLC PREFETCH  ACCESS:          0  HIT:          0  MISS:          0
LLC WRITEBACK ACCESS:     404525  HIT:     404525  MISS:          0
Heartbeat CPU 0 instructions: 98000002 cycles: 134653132 heartbeat IPC: 0.408623 cumulative IPC: 0.399359 (Simulation time: 1 hr 8 min 20 sec) 

Region of Interest Statistics
cpu0_DTLB TOTAL     ACCESS:   11974276  HIT:   10889075  MISS:    1085201
cpu0_DTLB LOAD      ACCESS:   10654122  HIT:    9666903  MISS:     987219
cpu0_DTLB RFO       ACCESS:    1320154  HIT:    1222172  MISS:      97982
cpu0_DTLB PREFETCH  ACCESS:          0  HIT:          0  MISS:          0
cpu0_DTLB WRITEBACK ACCESS:          0  HIT:          0  MISS:          0
cpu0_ITLB TOTAL     ACCESS:    6191873  HIT:    6191865  MISS:          8
cpu0_ITLB LOAD      ACCESS:    6191873  HIT:    6191865  MISS:          8
cpu0_ITLB RFO       ACCESS:          0  HIT:          0  MISS:          0
cpu0_ITLB PREFETCH  ACCESS:          0  HIT:          0  MISS:          0
cpu0_ITLB WRITEBACK ACCESS:          0  HIT:          0  MISS:          0
cpu0_L1I TOTAL     ACCESS:       1387  HIT:       1282  MISS:        105
cpu0_L1I LOAD      ACCESS:       1387  HIT:       1282  MISS:        105
cpu0_L1I RFO       ACCESS:          0  HIT:          0  MISS:          0
cpu0_L1I PREFETCH  ACCESS:          0  HIT:          0  MISS:          0
cpu0_L1I WRITEBACK ACCESS:          0  HIT:          0  MISS:          0
cpu0_STLB TOTAL     ACCESS:    1085209  HIT:     895293  MISS:     189916
cpu0_STLB LOAD      ACCESS:     987227  HIT:     814588  MISS:     172639
cpu0_STLB RFO       ACCESS:      97982  HIT:      80705  MISS:      17277
cpu0_STLB PREFETCH  ACCESS:          0  HIT:          0  MISS:          0
cpu0_STLB WRITEBACK ACCESS:          0  HIT:          0  MISS:          0
cpu0_L1D TOTAL     ACCESS:   11948866  HIT:   10627291  MISS:    1321575
cpu0_L1D LOAD      ACCESS:    9730738  HIT:    8426408  MISS:    1304330
cpu0_L1D RFO       ACCESS:    2039850  HIT:    2023315  MISS:      16535
cpu0_L1D PREFETCH  ACCESS:          0  HIT:          0  MISS:          0
cpu0_L1D WRITEBACK ACCESS:          0  HIT:          0  MISS:          0
cpu0_L2C TOTAL     ACCESS:    1754561  HIT:     228811  MISS:    1525750
cpu0_L2C LOAD      ACCESS:    1304386  HIT:      42111  MISS:    1262275
cpu0_L2C RFO       ACCESS:      16533  HIT:       2211  MISS:      14322
cpu0_L2C PREFETCH  ACCESS:          0  HIT:          0  MISS:          0
cpu0_L2C WRITEBACK ACCESS:     432932  HIT:     184453  MISS:     248479
LLC TOTAL     ACCESS:    1700120  HIT:    1594504  MISS:     105616
LLC LOAD      ACCESS:    1262248  HIT:    1156883  MISS:     105365
LLC RFO       ACCESS:      14322  HIT:      14079  MISS:        243
LLC PREFETCH  ACCESS:          0  HIT:          0  MISS:          0
LLC WRITEBACK ACCESS:     422876  HIT:     422876  MISS:          0
Heartbeat CPU 0 instructions: 100000000 cycles: 139482048 heartbeat IPC: 0.414171 cumulative IPC: 0.399931 (Simulation time: 1 hr 9 min 41 sec) 

Region of Interest Statistics
cpu0_DTLB TOTAL     ACCESS:   12461841  HIT:   11328604  MISS:    1133237
cpu0_DTLB LOAD      ACCESS:   11086443  HIT:   10055733  MISS:    1030710
cpu0_DTLB RFO       ACCESS:    1375398  HIT:    1272871  MISS:     102527
cpu0_DTLB PREFETCH  ACCESS:          0  HIT:          0  MISS:          0
cpu0_DTLB WRITEBACK ACCESS:          0  HIT:          0  MISS:          0
cpu0_ITLB TOTAL     ACCESS:    6446531  HIT:    6446523  MISS:          8
cpu0_ITLB LOAD      ACCESS:    6446531  HIT:    6446523  MISS:          8
cpu0_ITLB RFO       ACCESS:          0  HIT:          0  MISS:          0
cpu0_ITLB PREFETCH  ACCESS:          0  HIT:          0  MISS:          0
cpu0_ITLB WRITEBACK ACCESS:          0  HIT:          0  MISS:          0
cpu0_L1I TOTAL     ACCESS:       1402  HIT:       1297  MISS:        105
cpu0_L1I LOAD      ACCESS:       1402  HIT:       1297  MISS:        105
cpu0_L1I RFO       ACCESS:          0  HIT:          0  MISS:          0
cpu0_L1I PREFETCH  ACCESS:          0  HIT:          0  MISS:          0
cpu0_L1I WRITEBACK ACCESS:          0  HIT:          0  MISS:          0
cpu0_STLB TOTAL     ACCESS:    1133245  HIT:     942365  MISS:     190880
cpu0_STLB LOAD      ACCESS:    1030718  HIT:     857158  MISS:     173560
cpu0_STLB RFO       ACCESS:     102527  HIT:      85207  MISS:      17320
cpu0_STLB PREFETCH  ACCESS:          0  HIT:          0  MISS:          0
cpu0_STLB WRITEBACK ACCESS:          0  HIT:          0  MISS:          0
cpu0_L1D TOTAL     ACCESS:   12428790  HIT:   11051733  MISS:    1377057
cpu0_L1D LOAD      ACCESS:   10122972  HIT:    8763753  MISS:    1359219
cpu0_L1D RFO       ACCESS:    2126590  HIT:    2109505  MISS:      17085
cpu0_L1D PREFETCH  ACCESS:          0  HIT:          0  MISS:          0
cpu0_L1D WRITEBACK ACCESS:          0  HIT:          0  MISS:          0
cpu0_L2C TOTAL     ACCESS:    1829602  HIT:     236254  MISS:    1593348
cpu0_L2C LOAD      ACCESS:    1359275  HIT:      43098  MISS:    1316177
cpu0_L2C RFO       ACCESS:      17083  HIT:       2251  MISS:      14832
cpu0_L2C PREFETCH  ACCESS:          0  HIT:          0  MISS:          0
cpu0_L2C WRITEBACK ACCESS:     452491  HIT:     190869  MISS:     261622
LLC TOTAL     ACCESS:    1773950  HIT:    1664072  MISS:     109878
LLC LOAD      ACCESS:    1316150  HIT:    1206523  MISS:     109627
LLC RFO       ACCESS:      14832  HIT:      14589  MISS:        243
LLC PREFETCH  ACCESS:          0  HIT:          0  MISS:          0
LLC WRITEBACK ACCESS:     442251  HIT:     442251  MISS:          0
Heartbeat CPU 0 instructions: 102000000 cycles: 144286282 heartbeat IPC: 0.416299 cumulative IPC: 0.400537 (Simulation time: 1 hr 11 min 0 sec) 

Region of Interest Statistics
cpu0_DTLB TOTAL     ACCESS:   12949945  HIT:   11770396  MISS:    1179549
cpu0_DTLB LOAD      ACCESS:   11519785  HIT:   10447306  MISS:    1072479
cpu0_DTLB RFO       ACCESS:    1430160  HIT:    1323090  MISS:     107070
cpu0_DTLB PREFETCH  ACCESS:          0  HIT:          0  MISS:          0
cpu0_DTLB WRITEBACK ACCESS:          0  HIT:          0  MISS:          0
cpu0_ITLB TOTAL     ACCESS:    6701274  HIT:    6701266  MISS:          8
cpu0_ITLB LOAD      ACCESS:    6701274  HIT:    6701266  MISS:          8
cpu0_ITLB RFO       ACCESS:          0  HIT:          0  MISS:          0
cpu0_ITLB PREFETCH  ACCESS:          0  HIT:          0  MISS:          0
cpu0_ITLB WRITEBACK ACCESS:          0  HIT:          0  MISS:          0
cpu0_L1I TOTAL     ACCESS:       1412  HIT:       1307  MISS:        105
cpu0_L1I LOAD      ACCESS:       1412  HIT:       1307  MISS:        105
cpu0_L1I RFO       ACCESS:          0  HIT:          0  MISS:          0
cpu0_L1I PREFETCH  ACCESS:          0  HIT:          0  MISS:          0
cpu0_L1I WRITEBACK ACCESS:          0  HIT:          0  MISS:          0
cpu0_STLB TOTAL     ACCESS:    1179558  HIT:     988189  MISS:     191369
cpu0_STLB LOAD      ACCESS:    1072488  HIT:     898445  MISS:     174043
cpu0_STLB RFO       ACCESS:     107070  HIT:      89744  MISS:      17326
cpu0_STLB PREFETCH  ACCESS:          0  HIT:          0  MISS:          0
cpu0_STLB WRITEBACK ACCESS:          0  HIT:          0  MISS:          0
cpu0_L1D TOTAL     ACCESS:   12908761  HIT:   11476930  MISS:    1431831
cpu0_L1D LOAD      ACCESS:   10516635  HIT:    9103308  MISS:    1413327
cpu0_L1D RFO       ACCESS:    2212416  HIT:    2194713  MISS:      17703
cpu0_L1D PREFETCH  ACCESS:          0  HIT:          0  MISS:          0
cpu0_L1D WRITEBACK ACCESS:          0  HIT:          0  MISS:          0
cpu0_L2C TOTAL     ACCESS:    1903354  HIT:     244784  MISS:    1658570
cpu0_L2C LOAD      ACCESS:    1413380  HIT:      44485  MISS:    1368895
cpu0_L2C RFO       ACCESS:      17701  HIT:       2327  MISS:      15374
cpu0_L2C PREFETCH  ACCESS:          0  HIT:          0  MISS:          0
cpu0_L2C WRITEBACK ACCESS:     471472  HIT:     197936  MISS:     273536
LLC TOTAL     ACCESS:    1845886  HIT:    1731620  MISS:     114266
LLC LOAD      ACCESS:    1368868  HIT:    1254853  MISS:     114015
LLC RFO       ACCESS:      15374  HIT:      15131  MISS:        243
LLC PREFETCH  ACCESS:          0  HIT:          0  MISS:          0
LLC WRITEBACK ACCESS:     460879  HIT:     460879  MISS:          0
Heartbeat CPU 0 instructions: 104000000 cycles: 149425025 heartbeat IPC: 0.3892 cumulative IPC: 0.400105 (Simulation time: 1 hr 12 min 21 sec) 

Region of Interest Statistics
cpu0_DTLB TOTAL     ACCESS:   13446700  HIT:   12216962  MISS:    1229738
cpu0_DTLB LOAD      ACCESS:   11962051  HIT:   10843203  MISS:    1118848
cpu0_DTLB RFO       ACCESS:    1484649  HIT:    1373759  MISS:     110890
cpu0_DTLB PREFETCH  ACCESS:          0  HIT:          0  MISS:          0
cpu0_DTLB WRITEBACK ACCESS:          0  HIT:          0  MISS:          0
cpu0_ITLB TOTAL     ACCESS:    6959490  HIT:    6959482  MISS:          8
cpu0_ITLB LOAD      ACCESS:    6959490  HIT:    6959482  MISS:          8
cpu0_ITLB RFO       ACCESS:          0  HIT:          0  MISS:          0
cpu0_ITLB PREFETCH  ACCESS:          0  HIT:          0  MISS:          0
cpu0_ITLB WRITEBACK ACCESS:          0  HIT:          0  MISS:          0
cpu0_L1I TOTAL     ACCESS:       1421  HIT:       1316  MISS:        105
cpu0_L1I LOAD      ACCESS:       1421  HIT:       1316  MISS:        105
cpu0_L1I RFO       ACCESS:          0  HIT:          0  MISS:          0
cpu0_L1I PREFETCH  ACCESS:          0  HIT:          0  MISS:          0
cpu0_L1I WRITEBACK ACCESS:          0  HIT:          0  MISS:          0
cpu0_STLB TOTAL     ACCESS:    1229746  HIT:    1036295  MISS:     193451
cpu0_STLB LOAD      ACCESS:    1118856  HIT:     942771  MISS:     176085
cpu0_STLB RFO       ACCESS:     110890  HIT:      93524  MISS:      17366
cpu0_STLB PREFETCH  ACCESS:          0  HIT:          0  MISS:          0
cpu0_STLB WRITEBACK ACCESS:          0  HIT:          0  MISS:          0
cpu0_L1D TOTAL     ACCESS:   13398348  HIT:   11906838  MISS:    1491510
cpu0_L1D LOAD      ACCESS:   10918744  HIT:    9446346  MISS:    1472398
cpu0_L1D RFO       ACCESS:    2297838  HIT:    2279536  MISS:      18302
cpu0_L1D PREFETCH  ACCESS:          0  HIT:          0  MISS:          0
cpu0_L1D WRITEBACK ACCESS:          0  HIT:          0  MISS:          0
cpu0_L2C TOTAL     ACCESS:    1982882  HIT:     254478  MISS:    1728404
cpu0_L2C LOAD      ACCESS:    1472451  HIT:      45908  MISS:    1426543
cpu0_L2C RFO       ACCESS:      18300  HIT:       2404  MISS:      15896
cpu0_L2C PREFETCH  ACCESS:          0  HIT:          0  MISS:          0
cpu0_L2C WRITEBACK ACCESS:     491321  HIT:     206130  MISS:     285191
LLC TOTAL     ACCESS:    1923627  HIT:    1804707  MISS:     118920
LLC LOAD      ACCESS:    1426516  HIT:    1307847  MISS:     118669
LLC RFO       ACCESS:      15896  HIT:      15653  MISS:        243
LLC PREFETCH  ACCESS:          0  HIT:          0  MISS:          0
LLC WRITEBACK ACCESS:     480441  HIT:     480441  MISS:          0
Heartbeat CPU 0 instructions: 106000000 cycles: 154464527 heartbeat IPC: 0.396865 cumulative IPC: 0.399989 (Simulation time: 1 hr 13 min 40 sec) 

Region of Interest Statistics
cpu0_DTLB TOTAL     ACCESS:   13944542  HIT:   12668465  MISS:    1276077
cpu0_DTLB LOAD      ACCESS:   12405015  HIT:   11243942  MISS:    1161073
cpu0_DTLB RFO       ACCESS:    1539527  HIT:    1424523  MISS:     115004
cpu0_DTLB PREFETCH  ACCESS:          0  HIT:          0  MISS:          0
cpu0_DTLB WRITEBACK ACCESS:          0  HIT:          0  MISS:          0
cpu0_ITLB TOTAL     ACCESS:    7217286  HIT:    7217278  MISS:          8
cpu0_ITLB LOAD      ACCESS:    7217286  HIT:    7217278  MISS:          8
cpu0_ITLB RFO       ACCESS:          0  HIT:          0  MISS:          0
cpu0_ITLB PREFETCH  ACCESS:          0  HIT:          0  MISS:          0
cpu0_ITLB WRITEBACK ACCESS:          0  HIT:          0  MISS:          0
cpu0_L1I TOTAL     ACCESS:       1444  HIT:       1339  MISS:        105
cpu0_L1I LOAD      ACCESS:       1444  HIT:       1339  MISS:        105
cpu0_L1I RFO       ACCESS:          0  HIT:          0  MISS:          0
cpu0_L1I PREFETCH  ACCESS:          0  HIT:          0  MISS:          0
cpu0_L1I WRITEBACK ACCESS:          0  HIT:          0  MISS:          0
cpu0_STLB TOTAL     ACCESS:    1276085  HIT:    1075504  MISS:     200581
cpu0_STLB LOAD      ACCESS:    1161081  HIT:     978288  MISS:     182793
cpu0_STLB RFO       ACCESS:     115004  HIT:      97216  MISS:      17788
cpu0_STLB PREFETCH  ACCESS:          0  HIT:          0  MISS:          0
cpu0_STLB WRITEBACK ACCESS:          0  HIT:          0  MISS:          0
cpu0_L1D TOTAL     ACCESS:   13893783  HIT:   12345667  MISS:    1548116
cpu0_L1D LOAD      ACCESS:   11321679  HIT:    9793542  MISS:    1528137
cpu0_L1D RFO       ACCESS:    2383376  HIT:    2364277  MISS:      19099
cpu0_L1D PREFETCH  ACCESS:          0  HIT:          0  MISS:          0
cpu0_L1D WRITEBACK ACCESS:          0  HIT:          0  MISS:          0
cpu0_L2C TOTAL     ACCESS:    2058275  HIT:     263828  MISS:    1794447
cpu0_L2C LOAD      ACCESS:    1528189  HIT:      47592  MISS:    1480597
cpu0_L2C RFO       ACCESS:      19097  HIT:       2493  MISS:      16604
cpu0_L2C PREFETCH  ACCESS:          0  HIT:          0  MISS:          0
[...]
cpu0_DTLB TOTAL     ACCESS:  374865591  HIT:  339598977  MISS:   35266614
cpu0_DTLB LOAD      ACCESS:  333787538  HIT:  302205138  MISS:   31582400
cpu0_DTLB RFO       ACCESS:   41078053  HIT:   37393839  MISS:    3684214
cpu0_DTLB PREFETCH  ACCESS:          0  HIT:          0  MISS:          0
cpu0_DTLB WRITEBACK ACCESS:          0  HIT:          0  MISS:          0
cpu0_DTLB TRANSLATION ACCESS:          0  HIT:          0  MISS:          0
cpu0_DTLB PREFETCH  REQUESTED:          0  ISSUED:          0  USEFUL:          0  USELESS:          0
cpu0_DTLB AVERAGE MISS LATENCY: 11.0833 cycles
cpu0_ITLB TOTAL     ACCESS:  193671180  HIT:  193671172  MISS:          8
cpu0_ITLB LOAD      ACCESS:  193671180  HIT:  193671172  MISS:          8
cpu0_ITLB RFO       ACCESS:          0  HIT:          0  MISS:          0
cpu0_ITLB PREFETCH  ACCESS:          0  HIT:          0  MISS:          0
cpu0_ITLB WRITEBACK ACCESS:          0  HIT:          0  MISS:          0
cpu0_ITLB TRANSLATION ACCESS:          0  HIT:          0  MISS:          0
cpu0_ITLB PREFETCH  REQUESTED:          0  ISSUED:          0  USEFUL:          0  USELESS:          0
cpu0_ITLB AVERAGE MISS LATENCY: 245.25 cycles
cpu0_L1I TOTAL     ACCESS:      84760  HIT:      84643  MISS:        117
cpu0_L1I LOAD      ACCESS:      84760  HIT:      84643  MISS:        117
cpu0_L1I RFO       ACCESS:          0  HIT:          0  MISS:          0
cpu0_L1I PREFETCH  ACCESS:          0  HIT:          0  MISS:          0
cpu0_L1I WRITEBACK ACCESS:          0  HIT:          0  MISS:          0
cpu0_L1I TRANSLATION ACCESS:          0  HIT:          0  MISS:          0
cpu0_L1I PREFETCH  REQUESTED:          0  ISSUED:          0  USEFUL:          0  USELESS:          0
cpu0_L1I AVERAGE MISS LATENCY: 188.564 cycles
cpu0_STLB TOTAL     ACCESS:   35266622  HIT:   26056796  MISS:    9209826
cpu0_STLB LOAD      ACCESS:   31582408  HIT:   23488961  MISS:    8093447
cpu0_STLB RFO       ACCESS:    3684214  HIT:    2567835  MISS:    1116379
cpu0_STLB PREFETCH  ACCESS:          0  HIT:          0  MISS:          0
cpu0_STLB WRITEBACK ACCESS:          0  HIT:          0  MISS:          0
cpu0_STLB TRANSLATION ACCESS:          0  HIT:          0  MISS:          0
cpu0_STLB PREFETCH  REQUESTED:          0  ISSUED:          0  USEFUL:          0  USELESS:          0
cpu0_STLB AVERAGE MISS LATENCY: 7.95643 cycles
cpu0_L1D TOTAL     ACCESS:  377215140  HIT:  334185402  MISS:   43029738
cpu0_L1D LOAD      ACCESS:  304877963  HIT:  262441544  MISS:   42436419
cpu0_L1D RFO       ACCESS:   63659013  HIT:   63084016  MISS:     574997
cpu0_L1D PREFETCH  ACCESS:          0  HIT:          0  MISS:          0
cpu0_L1D WRITEBACK ACCESS:          0  HIT:          0  MISS:          0
cpu0_L1D TRANSLATION ACCESS:    8678164  HIT:    8659842  MISS:      18322
cpu0_L1D PREFETCH  REQUESTED:          0  ISSUED:          0  USEFUL:          0  USELESS:          0
cpu0_L1D AVERAGE MISS LATENCY: 44.521 cycles
cpu0_L2C TOTAL     ACCESS:   57170779  HIT:    7375418  MISS:   49795361
cpu0_L2C LOAD      ACCESS:   42435485  HIT:    1210827  MISS:   41224658
cpu0_L2C RFO       ACCESS:     574973  HIT:      74283  MISS:     500690
cpu0_L2C PREFETCH  ACCESS:          0  HIT:          0  MISS:          0
cpu0_L2C WRITEBACK ACCESS:   14141999  HIT:    6088598  MISS:    8053401
cpu0_L2C TRANSLATION ACCESS:      18322  HIT:       1710  MISS:      16612
cpu0_L2C PREFETCH  REQUESTED:          0  ISSUED:          0  USEFUL:          0  USELESS:          0
cpu0_L2C AVERAGE MISS LATENCY: 28.9491 cycles
LLC TOTAL     ACCESS:   55593299  HIT:   52322598  MISS:    3270701
LLC LOAD      ACCESS:   41223779  HIT:   37956536  MISS:    3267243
LLC RFO       ACCESS:     500687  HIT:     497347  MISS:       3340
LLC PREFETCH  ACCESS:          0  HIT:          0  MISS:          0
LLC WRITEBACK ACCESS:   13852221  HIT:   13852204  MISS:         17
LLC TRANSLATION ACCESS:      16612  HIT:      16511  MISS:        101
LLC PREFETCH  REQUESTED:          0  ISSUED:          0  USEFUL:          0  USELESS:          0
LLC AVERAGE MISS LATENCY: 172.736 cycles
~~~~~~~~~~Reuse Distance Profiler output~~~~~~~~~~
0	39735424	14616912
1	28744784	26237120
2	36553344	31570464
3	23807376	20342624
4	22266256	18032224
5	19928352	16712608
6	19363760	17210656
7	16550944	14653312
8	13897984	12695008
9	12549408	11591184
10	11865376	11000944
11	11184592	10310816
12	10085936	9202368
13	9192640	8224720
14	8211392	7121024
15	7293088	6253904
16	6067744	5143696
17	5260512	4273648
18	4164736	3357840
19	3337568	2673760
20	2798912	2185776
21	2369552	1893056
22	1967760	1590640
23	1639744	1311008
24	1381504	1106768
25	1164816	905248
26	970448	727376
27	843760	608624
28	758240	514240
29	656640	433552
30	564688	357088
31	498032	295088
32	430672	252656
33	384768	224544
34	341088	195744
35	308080	179024
36	280432	166608
37	247920	150128
38	226704	139216
39	206304	128656
40	189120	120560
41	171664	108064
42	162592	104512
43	152896	98816
44	140288	90000
45	134128	86128
46	123824	80608
47	119520	78240
48	114784	75728
49	105440	71472
50	98944	67504
51	92704	65552
52	85872	61280
53	82048	60976
54	78960	59216
55	73536	57168
56	71840	55024
57	66912	51872
58	64624	50080
59	60736	47376
60	59968	48176
61	56144	45648
62	52512	42464
63	52416	43120
64	97392	80352
66	89968	76576
68	86016	74032
70	78032	68432
72	72128	64272
74	66208	59616
76	62976	57072
78	60816	55440
80	58160	52976
82	54688	50576
84	51776	48432
86	48496	45712
88	44528	42224
90	43120	40960
92	42464	40528
94	38576	36880
96	39136	37712
98	35776	34432
100	35376	34224
102	29968	29008
104	32832	32080
106	30560	30016
108	29056	28240
110	29424	28592
112	26512	25936
114	25488	24912
116	25872	25184
118	23200	22640
120	22464	22032
122	21280	21024
124	21040	20528
126	19840	19632
128	40240	39744
132	36736	36240
136	36144	35952
140	32912	32576
144	31920	31600
148	29360	29152
152	28208	27920
156	27392	27184
160	26560	26352
164	26000	25664
168	23952	23824
172	22064	21952
176	20272	20160
180	19680	19552
184	19456	19248
188	18096	18032
192	18320	18176
196	17360	17312
200	17184	17040
204	15600	15536
208	14608	14560
212	14176	14144
216	14320	14224
220	13152	13072
224	12208	12160
228	12032	12016
232	12784	12656
236	11344	11248
240	12320	12224
244	11248	11200
248	12288	12224
252	11376	11328
256	19952	19872
264	20176	20160
272	18592	18560
280	16960	16864
288	16592	16560
296	14384	14336
304	14016	13968
312	13616	13616
320	14448	14416
328	12880	12864
336	12096	12064
344	12288	12256
352	10816	10800
360	10736	10704
368	10400	10368
376	10512	10496
384	9168	9136
392	9408	9376
400	9136	9104
408	9136	9120
416	9040	9040
424	7008	6960
432	7664	7616
440	6880	6848
448	7472	7456
456	7104	7072
464	6944	6928
472	6816	6816
480	6768	6736
488	6848	6816
496	5616	5504
504	5952	5808
512	10896	10752
528	11008	10976
544	10544	10480
560	9152	9056
576	9136	9072
592	9952	9936
608	8256	8176
624	8528	8448
640	7344	7232
656	6512	6448
672	7664	7632
688	6496	6416
704	7248	7184
720	6608	6448
736	6144	6016
752	5904	5792
768	5824	5664
784	6336	6224
800	6080	5904
816	5584	5520
832	5552	5440
848	5376	5200
864	5360	5136
880	5792	5680
896	5552	5408
912	6064	6000
928	5984	5872
944	5872	5792
960	5712	5520
976	6240	6048
992	6064	5872
1008	6128	5920
1024	13232	12960
1056	12048	11680
1088	11728	11264
1120	10944	10656
1152	11728	11328
1184	10944	10576
1216	9984	9776
1248	10656	10192
1280	10992	10624
1312	10544	10112
1344	11824	11440
1376	11664	11264
1408	13120	12672
1440	12976	12560
1472	14128	13536
1504	14400	13920
1536	14160	13792
1568	14560	14112
1600	13952	13392
1632	12960	12496
1664	13872	13312
1696	15168	14848
1728	14640	14112
1760	15056	14608
1792	13808	13360
1824	14224	13696
1856	17408	16688
1888	16208	15808
1920	16448	16064
1952	15248	14656
1984	15968	15488
2016	14976	14416
2048	30128	28896
2112	29920	28832
2176	33536	32224
2240	33088	31776
2304	38656	37520
2368	38816	37264
2432	40048	38592
2496	39984	38448
2560	42560	40944
2624	43616	42112
2688	45056	43296
2752	43456	41968
2816	42864	41296
2880	44560	42864
2944	42752	40944
3008	45104	43120
3072	44848	42768
3136	48816	46832
3200	55504	53696
3264	54992	52912
3328	51264	49376
3392	52384	50464
3456	55680	53840
3520	58032	56400
3584	54528	52752
3648	51984	49872
3712	51328	49136
3776	59648	57408
3840	60160	58048
3904	62768	60640
3968	64960	63104
4032	65984	64176
4096	120800	116816
4224	116720	112608
4352	110304	106800
4480	111808	108032
4608	109760	106256
4736	106624	103152
4864	113312	109632
4992	107728	104160
5120	103664	99952
5248	115280	111696
5376	114208	110384
5504	110944	106784
5632	113872	108992
5760	131184	126352
5888	158928	153600
6016	158480	153136
6144	159696	154912
6272	173296	167728
6400	161392	156320
6528	160288	154496
6656	173984	167792
6784	196352	189344
6912	208976	202352
7040	207552	200448
7168	220128	213168
7296	237072	230256
7424	241504	234704
7552	217296	210720
7680	203664	197488
7808	201808	194704
7936	208976	201936
8064	213488	206880
8192	425072	409792
8448	487632	471248
8704	527968	509952
8960	605312	585856
9216	654128	634736
9472	592672	574416
9728	565088	548240
9984	545728	528464
10240	525136	509712
10496	481952	468272
10752	488208	472768
11008	491712	475344
11264	479088	463264
11520	476176	459040
11776	523712	504576
12032	625152	607360
12288	617952	599136
12544	585504	566448
12800	586160	568736
13056	596544	578544
13312	568512	551248
13568	541584	524960
13824	598896	579840
14080	575808	559840
14336	508832	492448
14592	565536	545664
14848	619760	601104
15104	666352	644736
15360	719120	696352
15616	740960	717744
15872	779984	756944
16128	742736	719712
16384	1332000	1288032
16896	1511744	1469248
17408	1255952	1217472
17920	1114096	1083408
18432	801600	777808
18944	799584	775184
19456	816288	791280
19968	789392	765856
20480	806320	780096
20992	842528	817984
21504	650880	632416
22016	499184	483264
22528	507456	491664
23040	460416	446144
23552	430448	420000
24064	335664	325680
24576	313856	305120
25088	249984	242912
25600	231328	224272
26112	224192	216992
26624	201392	195744
27136	192368	187072
27648	163376	160080
28160	111712	108656
28672	82176	79584
29184	76480	74416
29696	76624	75120
30208	60640	59296
30720	43424	41808
31232	57536	56176
31744	61216	59920
32256	59120	58224
32768	115072	111408
33792	172544	167024
34816	163712	158448
35840	294240	284400
36864	331040	320384
37888	340704	330816
38912	338480	327680
39936	339280	330192
40960	237152	229376
41984	291280	282656
43008	237280	231456
44032	79504	77616
45056	21936	21424
46080	18432	18208
47104	17296	17120
48128	16416	16320
49152	14624	14464
50176	13248	13088
51200	14560	14384
52224	13328	13168
53248	12592	12432
54272	11392	11280
55296	9824	9760
56320	8016	7968
57344	7360	7216
58368	7696	7584
59392	7216	7088
60416	8672	8544
61440	7440	7312
62464	7872	7696
63488	9120	8944
64512	7440	7248
65536	13120	12880
67584	14704	14608
69632	13568	13344
71680	14944	14832
73728	13280	13136
75776	15184	14960
77824	13504	13216
79872	14352	14240
81920	12192	12096
83968	12256	12128
86016	10048	9920
88064	7200	7024
90112	5200	5152
92160	5152	5056
94208	4992	4960
96256	4320	4256
98304	4016	3920
100352	4448	4368
102400	4800	4704
104448	4320	4256
106496	4000	3904
108544	4496	4304
110592	4784	4560
112640	4048	3984
114688	4544	4416
116736	3904	3840
118784	4112	4048
120832	4144	4048
122880	3184	3088
124928	2960	2880
126976	2928	2880
129024	3312	3264
131072	4304	4240
135168	3392	3312
139264	4048	3952
143360	3584	3488
147456	3328	3216
151552	3904	3856
155648	3632	3536
159744	3712	3536
163840	3056	2960
167936	2928	2912
172032	2688	2608
176128	2176	2128
180224	1888	1808
184320	2112	2048
188416	1728	1648
192512	2112	2032
196608	1728	1680
200704	1840	1776
204800	1360	1280
208896	1232	1152
212992	1456	1392
217088	1616	1536
221184	1184	1136
225280	1008	896
229376	1120	1088
233472	1008	992
237568	1488	1392
241664	1136	1104
245760	912	832
249856	992	960
253952	1152	1152
258048	1152	1088
262144	1216	1152
270336	1696	1632
278528	1632	1520
286720	1312	1168
294912	1488	1328
303104	1264	1200
311296	864	800
319488	1280	1232
327680	1072	992
335872	912	848
344064	1184	1104
352256	976	896
360448	912	784
368640	912	800
376832	992	928
385024	928	848
393216	656	560
401408	848	768
409600	864	768
417792	864	720
425984	688	640
434176	640	576
442368	752	688
450560	384	272
458752	800	784
466944	512	480
475136	592	464
483328	496	464
491520	352	336
499712	368	272
507904	416	336
516096	480	432
524288	1024	912
540672	976	784
557056	1056	992
573440	1008	960
589824	928	880
606208	1040	976
622592	848	736
638976	864	832
655360	848	816
671744	720	688
688128	784	720
704512	816	736
720896	1104	992
737280	720	672
753664	864	848
770048	704	656
786432	464	448
802816	688	624
819200	624	560
835584	608	528
851968	752	720
868352	608	560
884736	800	784
901120	720	720
917504	688	624
933888	720	672
950272	512	512
966656	624	576
983040	736	672
999424	704	688
1015808	496	480
1032192	624	560
1048576	1152	1088
1081344	1280	1248
1114112	1392	1376
1146880	1392	1296
1179648	1248	1248
1212416	1360	1312
1245184	1136	1120
1277952	1184	1152
1310720	1136	1088
1343488	1008	992
1376256	1040	960
1409024	1088	1056
1441792	1040	1024
1474560	1072	1024
1507328	976	944
1540096	1168	1120
1572864	1088	1056
1605632	1040	1024
1638400	1040	1008
1671168	1008	992
1703936	1056	1024
1736704	912	912
1769472	1008	992
1802240	1280	1280
1835008	864	864
1867776	1072	1040
1900544	1088	1040
1933312	1056	1040
1966080	1184	1152
1998848	976	960
2031616	1216	1200
2064384	1232	1200
2097152	2256	2160
2162688	2064	1920
2228224	1888	1840
2293760	1712	1712
2359296	1808	1712
2424832	2272	2224
2490368	1792	1744
2555904	1744	1728
2621440	1872	1808
2686976	1712	1664
2752512	1840	1808
2818048	2096	2048
2883584	1808	1792
2949120	2048	2016
3014656	1792	1776
3080192	2096	2048
3145728	1776	1760
3211264	1424	1408
3276800	1360	1312
3342336	1632	1616
3407872	1504	1472
3473408	1792	1776
3538944	1792	1792
3604480	2144	2144
3670016	2384	2304
3735552	2320	2304
3801088	2880	2816
3866624	2720	2704
3932160	2768	2752
3997696	2992	2960
4063232	2528	2512
4128768	2672	2608
4194304	4560	4560
4325376	3744	3728
4456448	4496	4464
4587520	5024	4976
4718592	4112	4064
4849664	4176	4176
4980736	3632	3600
5111808	4400	4368
5242880	5072	5072
5373952	4192	4176
5505024	4384	4384
5636096	4336	4304
5767168	4720	4704
5898240	3792	3776
6029312	3392	3360
6160384	3008	2992
6291456	2848	2832
6422528	2832	2832
6553600	3168	3152
6684672	2960	2944
6815744	3600	3584
6946816	2912	2880
7077888	2736	2704
7208960	3968	3952
7340032	4464	4464
7471104	4592	4560
7602176	3760	3744
7733248	4848	4800
7864320	4752	4752
7995392	5216	5184
8126464	5728	5712
8257536	4512	4512
8388608	9232	9216
8650752	13296	13280
8912896	19280	19248
9175040	12752	12736
9437184	11200	11184
9699328	18912	18912
9961472	28912	28896
10223616	20608	20576
10485760	21184	21152
10747904	23200	23184
11010048	30736	30688
11272192	30080	30080
11534336	24720	24704
11796480	21360	21328
12058624	20656	20656
12320768	16912	16880
12582912	13440	13424
12845056	13216	13216
13107200	12096	12064
13369344	16176	16176
13631488	21024	21024
13893632	26208	26192
14155776	24592	24576
14417920	22320	22320
14680064	17840	17840
14942208	17664	17664
15204352	20928	20720
15466496	21952	21936
15728640	20832	20832
15990784	21984	21984
16252928	21824	21824
16515072	22320	22288
16777216	53872	53856
17301504	37216	37216
17825792	38080	38064
18350080	37520	37488
18874368	40736	40736
19398656	55968	55936
19922944	51552	51552
20447232	35648	35632
20971520	36576	36576
21495808	41536	41536
22020096	44720	44720
22544384	36432	36432
23068672	28624	28592
23592960	31360	31328
24117248	31280	31280
24641536	31664	31664
25165824	31488	31472
25690112	34896	34896
26214400	39936	39936
26738688	37872	37872
27262976	30272	30272
27787264	28800	28800
28311552	29360	29328
28835840	24496	24480
29360128	19056	19040
29884416	18576	18576
30408704	20912	20912
30932992	18848	18848
31457280	19344	19344
31981568	20176	20144
32505856	22480	22480
33030144	26160	26160
33554432	91040	91040
34603008	76784	76784
35651584	67904	67904
36700160	55488	55472
37748736	43584	43568
38797312	55504	55504
39845888	40656	40656
40894464	39744	39744
41943040	41632	41632
42991616	41296	41296
44040192	71504	71504
45088768	50368	50368
46137344	51312	51280
47185920	59072	59072
48234496	51984	51936
49283072	53648	53616
50331648	20016	20000
51380224	21184	21184
52428800	24800	24800
53477376	23376	23360
54525952	19008	19008
55574528	35040	35040
56623104	19936	19936
57671680	26544	26528
58720256	7264	7264
59768832	10560	10560
60817408	59584	59584
61865984	18304	18304
62914560	8128	8128
63963136	4624	4624
65011712	4592	4496
66060288	8064	8064
67108864	10448	10400
69206016	21184	21184
71303168	18544	18544
73400320	5552	5552
75497472	6832	6832
77594624	30864	30864
79691776	16640	16640
81788928	640	640
83886080	1664	1664
85983232	576	576
88080384	368	368
90177536	5232	5232
92274688	6192	6192
94371840	3888	3888
96468992	656	640
98566144	0	0
100663296	80	80
102760448	9344	9344
104857600	2656	2656
106954752	16	16
109051904	0	0
111149056	0	0
113246208	0	0
115343360	0	0
117440512	0	0
119537664	0	0
121634816	0	0
123731968	0	0
125829120	0	0
127926272	0	0
130023424	0	0
132120576	0	0
134217728	0	0
138412032	0	0
142606336	0	0
146800640	32	0
150994944	0	0
155189248	0	0
159383552	0	0
163577856	16	16
167772160	0	0
171966464	0	0
176160768	0	0
180355072	0	0
184549376	0	0
188743680	0	0
192937984	0	0
197132288	0	0
201326592	0	0
205520896	0	0
209715200	0	0
213909504	0	0
218103808	0	0
222298112	144	16
226492416	16	16
230686720	0	0
234881024	0	0
239075328	0	0
243269632	0	0
247463936	0	0
251658240	0	0
255852544	0	0
260046848	0	0
264241152	0	0
268435456	0	0
276824064	0	0
285212672	0	0
293601280	0	0
301989888	0	0
310378496	0	0
318767104	0	0
327155712	0	0
335544320	0	0
343932928	0	0
352321536	0	0
360710144	0	0
369098752	0	0
377487360	0	0
385875968	0	0
394264576	0	0
402653184	0	0
411041792	0	0
419430400	0	0
427819008	0	0
436207616	0	0
444596224	0	0
452984832	0	0
461373440	0	0
469762048	0	0
478150656	0	0
486539264	0	0
494927872	0	0
503316480	0	0
511705088	0	0
520093696	0	0
528482304	0	0
536870912	0	0
553648128	0	0
570425344	0	0
587202560	0	0
603979776	0	0
620756992	0	0
637534208	0	0
654311424	0	0
671088640	0	0
687865856	0	0
704643072	0	0
721420288	0	0
738197504	0	0
754974720	0	0
771751936	0	0
788529152	0	0
805306368	0	0
822083584	0	0
838860800	0	0
855638016	0	0
872415232	0	0
889192448	0	0
905969664	0	0
922746880	0	0
939524096	0	0
956301312	0	0
973078528	0	0
989855744	0	0
1006632960	0	0
1023410176	0	0
1040187392	0	0
1056964608	0	0
1073741824	0	0
1107296256	0	0
1140850688	0	0
1174405120	0	0
1207959552	0	0
1241513984	0	0
1275068416	0	0
1308622848	0	0
1342177280	0	0
1375731712	0	0
1409286144	0	0
1442840576	0	0
1476395008	0	0
1509949440	0	0
1543503872	0	0
1577058304	0	0
1610612736	0	0
1644167168	0	0
1677721600	0	0
1711276032	0	0
1744830464	0	0
1778384896	0	0
1811939328	0	0
1845493760	0	0
1879048192	0	0
1912602624	0	0
1946157056	0	0
1979711488	0	0
2013265920	0	0
2046820352	0	0
2080374784	0	0
2113929216	0	0
2147483648	0	0
2214592512	0	0
2281701376	0	0
2348810240	0	0
2415919104	0	0
2483027968	0	0
2550136832	0	0
2617245696	0	0
2684354560	0	0
2751463424	0	0
2818572288	0	0
2885681152	0	0
2952790016	0	0
3019898880	0	0
3087007744	0	0
3154116608	0	0
3221225472	0	0
3288334336	0	0
3355443200	0	0
3422552064	0	0
3489660928	0	0
3556769792	0	0
3623878656	0	0
3690987520	0	0
3758096384	0	0
3825205248	0	0
3892314112	0	0
3959422976	0	0
4026531840	0	0
4093640704	0	0
4160749568	0	0
4227858432	0	0
~~~~~~~~~~Reuse Distance Profiler output end~~~~~~~~~~

Sampler size:20713

DRAM Statistics
 CHANNEL 0
 RQ ROW_BUFFER_HIT:       2686  ROW_BUFFER_MISS:    3267646
 DBUS AVG_CONGESTED_CYCLE:    3.52444
 WQ ROW_BUFFER_HIT:     102720  ROW_BUFFER_MISS:    1921569  FULL:          0


CPU 0 Branch Prediction Accuracy: 69.4253% MPKI: 57.746 Average ROB Occupancy at Mispredict: 5.46079
Branch type MPKI
BRANCH_DIRECT_JUMP: 2.46667e-05
BRANCH_INDIRECT: 0
BRANCH_CONDITIONAL: 57.746
BRANCH_DIRECT_CALL: 1.2e-05
BRANCH_INDIRECT_CALL: 0
BRANCH_RETURN: 1.33333e-05

