
*** ChampSim Multicore Out-of-Order Simulator ***

Warmup Instructions: 50000000
Simulation Instructions: 1500000000
Number of CPUs: 1
Off-chip DRAM Size: 4 GiB Channels: 1 Width: 64-bit Data Rate: 3200 MT/s

VirtualMemory physical capacity: 8588881920 num_ppages: 2096895
VirtualMemory page size: 4096 log2_page_size: 12

CPU 0 runs /s/traces/champsim_traces/605.mcf_s-994B.champsimtrace.xz
CPU 0 Bimodal branch predictor
Basic BTB sets: 1024 ways: 8 indirect buffer size: 4096 RAS size: 64
Initializing LRU.
Initializing LRU.
Initializing LRU.
Initializing LRU.
Initializing rdLRU.
Initializing LRU.
Initializing LRU.
Heartbeat CPU 0 instructions: 2000002 cycles: 584149 heartbeat IPC: 3.42379 cumulative IPC: 3.42379 (Simulation time: 0 hr 1 min 34 sec) 
Heartbeat CPU 0 instructions: 4000002 cycles: 1169338 heartbeat IPC: 3.4177 cumulative IPC: 3.42074 (Simulation time: 0 hr 3 min 4 sec) 
Heartbeat CPU 0 instructions: 6000001 cycles: 1751457 heartbeat IPC: 3.43572 cumulative IPC: 3.42572 (Simulation time: 0 hr 4 min 32 sec) 
Heartbeat CPU 0 instructions: 8000002 cycles: 2330939 heartbeat IPC: 3.45136 cumulative IPC: 3.43209 (Simulation time: 0 hr 5 min 54 sec) 
Heartbeat CPU 0 instructions: 10000001 cycles: 2902195 heartbeat IPC: 3.50106 cumulative IPC: 3.44567 (Simulation time: 0 hr 7 min 16 sec) 
Heartbeat CPU 0 instructions: 12000002 cycles: 3503420 heartbeat IPC: 3.32654 cumulative IPC: 3.42523 (Simulation time: 0 hr 8 min 48 sec) 
Heartbeat CPU 0 instructions: 14000001 cycles: 4100422 heartbeat IPC: 3.35007 cumulative IPC: 3.41428 (Simulation time: 0 hr 10 min 20 sec) 
Heartbeat CPU 0 instructions: 16000000 cycles: 4672000 heartbeat IPC: 3.49908 cumulative IPC: 3.42466 (Simulation time: 0 hr 11 min 48 sec) 
Heartbeat CPU 0 instructions: 18000003 cycles: 5251767 heartbeat IPC: 3.44967 cumulative IPC: 3.42742 (Simulation time: 0 hr 13 min 19 sec) 
Heartbeat CPU 0 instructions: 20000003 cycles: 5844059 heartbeat IPC: 3.37671 cumulative IPC: 3.42228 (Simulation time: 0 hr 14 min 51 sec) 
Heartbeat CPU 0 instructions: 22000004 cycles: 6415380 heartbeat IPC: 3.50066 cumulative IPC: 3.42926 (Simulation time: 0 hr 16 min 24 sec) 
Heartbeat CPU 0 instructions: 24000003 cycles: 6981439 heartbeat IPC: 3.5332 cumulative IPC: 3.43769 (Simulation time: 0 hr 17 min 50 sec) 
Heartbeat CPU 0 instructions: 26000000 cycles: 7611405 heartbeat IPC: 3.17477 cumulative IPC: 3.41593 (Simulation time: 0 hr 19 min 29 sec) 
Heartbeat CPU 0 instructions: 28000003 cycles: 8199424 heartbeat IPC: 3.40126 cumulative IPC: 3.41487 (Simulation time: 0 hr 20 min 59 sec) 
Heartbeat CPU 0 instructions: 30000004 cycles: 8782967 heartbeat IPC: 3.42734 cumulative IPC: 3.4157 (Simulation time: 0 hr 22 min 21 sec) 
Heartbeat CPU 0 instructions: 32000000 cycles: 9348890 heartbeat IPC: 3.53404 cumulative IPC: 3.42287 (Simulation time: 0 hr 23 min 42 sec) 
Heartbeat CPU 0 instructions: 34000000 cycles: 9920855 heartbeat IPC: 3.49672 cumulative IPC: 3.42712 (Simulation time: 0 hr 25 min 7 sec) 
Heartbeat CPU 0 instructions: 36000000 cycles: 10513169 heartbeat IPC: 3.37659 cumulative IPC: 3.42428 (Simulation time: 0 hr 26 min 34 sec) 
Heartbeat CPU 0 instructions: 38000000 cycles: 11097976 heartbeat IPC: 3.41993 cumulative IPC: 3.42405 (Simulation time: 0 hr 27 min 59 sec) 
Heartbeat CPU 0 instructions: 40000000 cycles: 11679044 heartbeat IPC: 3.44194 cumulative IPC: 3.42494 (Simulation time: 0 hr 29 min 30 sec) 
Heartbeat CPU 0 instructions: 42000000 cycles: 12247299 heartbeat IPC: 3.51955 cumulative IPC: 3.42933 (Simulation time: 0 hr 30 min 49 sec) 
Heartbeat CPU 0 instructions: 44000000 cycles: 12849979 heartbeat IPC: 3.31851 cumulative IPC: 3.42413 (Simulation time: 0 hr 32 min 16 sec) 
Heartbeat CPU 0 instructions: 46000002 cycles: 13498293 heartbeat IPC: 3.08493 cumulative IPC: 3.40784 (Simulation time: 0 hr 33 min 56 sec) 
Heartbeat CPU 0 instructions: 48000000 cycles: 14150840 heartbeat IPC: 3.06491 cumulative IPC: 3.39202 (Simulation time: 0 hr 35 min 31 sec) 
Heartbeat CPU 0 instructions: 50000001 cycles: 14810516 heartbeat IPC: 3.03179 cumulative IPC: 3.37598 (Simulation time: 0 hr 37 min 7 sec) 

Warmup complete CPU 0 instructions: 50000001 cycles: 14810516 (Simulation time: 0 hr 37 min 7 sec) 

Heartbeat CPU 0 instructions: 52000003 cycles: 27766024 heartbeat IPC: 0.154375 cumulative IPC: 0.154375 (Simulation time: 0 hr 40 min 12 sec) 

Region of Interest Statistics
cpu0_DTLB TOTAL     ACCESS:     659557  HIT:     604306  MISS:      55251
cpu0_DTLB LOAD      ACCESS:     523425  HIT:     468175  MISS:      55250
cpu0_DTLB RFO       ACCESS:     136132  HIT:     136131  MISS:          1
cpu0_DTLB PREFETCH  ACCESS:          0  HIT:          0  MISS:          0
cpu0_DTLB WRITEBACK ACCESS:          0  HIT:          0  MISS:          0
cpu0_ITLB TOTAL     ACCESS:     353249  HIT:     353249  MISS:          0
cpu0_ITLB LOAD      ACCESS:     353249  HIT:     353249  MISS:          0
cpu0_ITLB RFO       ACCESS:          0  HIT:          0  MISS:          0
cpu0_ITLB PREFETCH  ACCESS:          0  HIT:          0  MISS:          0
cpu0_ITLB WRITEBACK ACCESS:          0  HIT:          0  MISS:          0
cpu0_L1I TOTAL     ACCESS:         16  HIT:         16  MISS:          0
cpu0_L1I LOAD      ACCESS:         16  HIT:         16  MISS:          0
cpu0_L1I RFO       ACCESS:          0  HIT:          0  MISS:          0
cpu0_L1I PREFETCH  ACCESS:          0  HIT:          0  MISS:          0
cpu0_L1I WRITEBACK ACCESS:          0  HIT:          0  MISS:          0
cpu0_STLB TOTAL     ACCESS:      55251  HIT:      12705  MISS:      42546
cpu0_STLB LOAD      ACCESS:      55250  HIT:      12704  MISS:      42546
cpu0_STLB RFO       ACCESS:          1  HIT:          1  MISS:          0
cpu0_STLB PREFETCH  ACCESS:          0  HIT:          0  MISS:          0
cpu0_STLB WRITEBACK ACCESS:          0  HIT:          0  MISS:          0
cpu0_L1D TOTAL     ACCESS:     846329  HIT:     722209  MISS:     124120
cpu0_L1D LOAD      ACCESS:     629349  HIT:     507085  MISS:     122264
cpu0_L1D RFO       ACCESS:     174625  HIT:     174611  MISS:         14
cpu0_L1D PREFETCH  ACCESS:          0  HIT:          0  MISS:          0
cpu0_L1D WRITEBACK ACCESS:          0  HIT:          0  MISS:          0
cpu0_L2C TOTAL     ACCESS:     133314  HIT:       7916  MISS:     125398
cpu0_L2C LOAD      ACCESS:     122264  HIT:        176  MISS:     122088
cpu0_L2C RFO       ACCESS:         14  HIT:          0  MISS:         14
cpu0_L2C PREFETCH  ACCESS:          0  HIT:          0  MISS:          0
cpu0_L2C WRITEBACK ACCESS:       9194  HIT:       7572  MISS:       1622
LLC TOTAL     ACCESS:     132965  HIT:      50756  MISS:      82209
LLC LOAD      ACCESS:     122088  HIT:      39905  MISS:      82183
LLC RFO       ACCESS:         14  HIT:          0  MISS:         14
LLC PREFETCH  ACCESS:          0  HIT:          0  MISS:          0
LLC WRITEBACK ACCESS:       9189  HIT:       9186  MISS:          3
Heartbeat CPU 0 instructions: 54000002 cycles: 30080249 heartbeat IPC: 0.86422 cumulative IPC: 0.261956 (Simulation time: 0 hr 41 min 21 sec) 

Region of Interest Statistics
cpu0_DTLB TOTAL     ACCESS:    1201542  HIT:    1122471  MISS:      79071
cpu0_DTLB LOAD      ACCESS:     947975  HIT:     868936  MISS:      79039
cpu0_DTLB RFO       ACCESS:     253567  HIT:     253535  MISS:         32
cpu0_DTLB PREFETCH  ACCESS:          0  HIT:          0  MISS:          0
cpu0_DTLB WRITEBACK ACCESS:          0  HIT:          0  MISS:          0
cpu0_ITLB TOTAL     ACCESS:     672284  HIT:     672284  MISS:          0
cpu0_ITLB LOAD      ACCESS:     672284  HIT:     672284  MISS:          0
cpu0_ITLB RFO       ACCESS:          0  HIT:          0  MISS:          0
cpu0_ITLB PREFETCH  ACCESS:          0  HIT:          0  MISS:          0
cpu0_ITLB WRITEBACK ACCESS:          0  HIT:          0  MISS:          0
cpu0_L1I TOTAL     ACCESS:        474  HIT:        474  MISS:          0
cpu0_L1I LOAD      ACCESS:        474  HIT:        474  MISS:          0
cpu0_L1I RFO       ACCESS:          0  HIT:          0  MISS:          0
cpu0_L1I PREFETCH  ACCESS:          0  HIT:          0  MISS:          0
cpu0_L1I WRITEBACK ACCESS:          0  HIT:          0  MISS:          0
cpu0_STLB TOTAL     ACCESS:      79071  HIT:      28951  MISS:      50120
cpu0_STLB LOAD      ACCESS:      79039  HIT:      28924  MISS:      50115
cpu0_STLB RFO       ACCESS:         32  HIT:         27  MISS:          5
cpu0_STLB PREFETCH  ACCESS:          0  HIT:          0  MISS:          0
cpu0_STLB WRITEBACK ACCESS:          0  HIT:          0  MISS:          0
cpu0_L1D TOTAL     ACCESS:    1582969  HIT:    1394123  MISS:     188846
cpu0_L1D LOAD      ACCESS:    1153576  HIT:     967413  MISS:     186163
cpu0_L1D RFO       ACCESS:     379591  HIT:     378903  MISS:        688
cpu0_L1D PREFETCH  ACCESS:          0  HIT:          0  MISS:          0
cpu0_L1D WRITEBACK ACCESS:          0  HIT:          0  MISS:          0
cpu0_L2C TOTAL     ACCESS:     202386  HIT:      15757  MISS:     186629
cpu0_L2C LOAD      ACCESS:     186163  HIT:       4633  MISS:     181530
cpu0_L2C RFO       ACCESS:        688  HIT:        227  MISS:        461
cpu0_L2C PREFETCH  ACCESS:          0  HIT:          0  MISS:          0
cpu0_L2C WRITEBACK ACCESS:      13540  HIT:      10716  MISS:       2824
LLC TOTAL     ACCESS:     196901  HIT:     114511  MISS:      82390
LLC LOAD      ACCESS:     181530  HIT:      99262  MISS:      82268
LLC RFO       ACCESS:        461  HIT:        353  MISS:        108
LLC PREFETCH  ACCESS:          0  HIT:          0  MISS:          0
LLC WRITEBACK ACCESS:      13096  HIT:      13092  MISS:          4
Heartbeat CPU 0 instructions: 56000001 cycles: 32131206 heartbeat IPC: 0.975154 cumulative IPC: 0.346407 (Simulation time: 0 hr 42 min 26 sec) 

Region of Interest Statistics
cpu0_DTLB TOTAL     ACCESS:    1728686  HIT:    1630998  MISS:      97688
cpu0_DTLB LOAD      ACCESS:    1358030  HIT:    1260406  MISS:      97624
cpu0_DTLB RFO       ACCESS:     370656  HIT:     370592  MISS:         64
cpu0_DTLB PREFETCH  ACCESS:          0  HIT:          0  MISS:          0
cpu0_DTLB WRITEBACK ACCESS:          0  HIT:          0  MISS:          0
cpu0_ITLB TOTAL     ACCESS:     986791  HIT:     986791  MISS:          0
cpu0_ITLB LOAD      ACCESS:     986791  HIT:     986791  MISS:          0
cpu0_ITLB RFO       ACCESS:          0  HIT:          0  MISS:          0
cpu0_ITLB PREFETCH  ACCESS:          0  HIT:          0  MISS:          0
cpu0_ITLB WRITEBACK ACCESS:          0  HIT:          0  MISS:          0
cpu0_L1I TOTAL     ACCESS:       1037  HIT:       1037  MISS:          0
cpu0_L1I LOAD      ACCESS:       1037  HIT:       1037  MISS:          0
cpu0_L1I RFO       ACCESS:          0  HIT:          0  MISS:          0
cpu0_L1I PREFETCH  ACCESS:          0  HIT:          0  MISS:          0
cpu0_L1I WRITEBACK ACCESS:          0  HIT:          0  MISS:          0
cpu0_STLB TOTAL     ACCESS:      97688  HIT:      44147  MISS:      53541
cpu0_STLB LOAD      ACCESS:      97624  HIT:      44089  MISS:      53535
cpu0_STLB RFO       ACCESS:         64  HIT:         58  MISS:          6
cpu0_STLB PREFETCH  ACCESS:          0  HIT:          0  MISS:          0
cpu0_STLB WRITEBACK ACCESS:          0  HIT:          0  MISS:          0
cpu0_L1D TOTAL     ACCESS:    2304788  HIT:    2069921  MISS:     234867
cpu0_L1D LOAD      ACCESS:    1659719  HIT:    1428294  MISS:     231425
cpu0_L1D RFO       ACCESS:     591940  HIT:     590570  MISS:       1370
cpu0_L1D PREFETCH  ACCESS:          0  HIT:          0  MISS:          0
cpu0_L1D WRITEBACK ACCESS:          0  HIT:          0  MISS:          0
cpu0_L2C TOTAL     ACCESS:     251818  HIT:      23426  MISS:     228392
cpu0_L2C LOAD      ACCESS:     231425  HIT:       9614  MISS:     221811
cpu0_L2C RFO       ACCESS:       1370  HIT:        420  MISS:        950
cpu0_L2C PREFETCH  ACCESS:          0  HIT:          0  MISS:          0
cpu0_L2C WRITEBACK ACCESS:      16951  HIT:      13208  MISS:       3743
LLC TOTAL     ACCESS:     240741  HIT:     158347  MISS:      82394
LLC LOAD      ACCESS:     221811  HIT:     139540  MISS:      82271
LLC RFO       ACCESS:        950  HIT:        842  MISS:        108
LLC PREFETCH  ACCESS:          0  HIT:          0  MISS:          0
LLC WRITEBACK ACCESS:      16092  HIT:      16088  MISS:          4
Heartbeat CPU 0 instructions: 58000003 cycles: 34433574 heartbeat IPC: 0.868672 cumulative IPC: 0.407684 (Simulation time: 0 hr 43 min 35 sec) 

Region of Interest Statistics
cpu0_DTLB TOTAL     ACCESS:    2272180  HIT:    2150006  MISS:     122174
cpu0_DTLB LOAD      ACCESS:    1785026  HIT:    1662939  MISS:     122087
cpu0_DTLB RFO       ACCESS:     487154  HIT:     487067  MISS:         87
cpu0_DTLB PREFETCH  ACCESS:          0  HIT:          0  MISS:          0
cpu0_DTLB WRITEBACK ACCESS:          0  HIT:          0  MISS:          0
cpu0_ITLB TOTAL     ACCESS:    1306895  HIT:    1306895  MISS:          0
cpu0_ITLB LOAD      ACCESS:    1306895  HIT:    1306895  MISS:          0
cpu0_ITLB RFO       ACCESS:          0  HIT:          0  MISS:          0
cpu0_ITLB PREFETCH  ACCESS:          0  HIT:          0  MISS:          0
cpu0_ITLB WRITEBACK ACCESS:          0  HIT:          0  MISS:          0
cpu0_L1I TOTAL     ACCESS:       1710  HIT:       1710  MISS:          0
cpu0_L1I LOAD      ACCESS:       1710  HIT:       1710  MISS:          0
cpu0_L1I RFO       ACCESS:          0  HIT:          0  MISS:          0
cpu0_L1I PREFETCH  ACCESS:          0  HIT:          0  MISS:          0
cpu0_L1I WRITEBACK ACCESS:          0  HIT:          0  MISS:          0
cpu0_STLB TOTAL     ACCESS:     122174  HIT:      56732  MISS:      65442
cpu0_STLB LOAD      ACCESS:     122087  HIT:      56652  MISS:      65435
cpu0_STLB RFO       ACCESS:         87  HIT:         80  MISS:          7
cpu0_STLB PREFETCH  ACCESS:          0  HIT:          0  MISS:          0
cpu0_STLB WRITEBACK ACCESS:          0  HIT:          0  MISS:          0
cpu0_L1D TOTAL     ACCESS:    3036493  HIT:    2734149  MISS:     302344
cpu0_L1D LOAD      ACCESS:    2181440  HIT:    1883433  MISS:     298007
cpu0_L1D RFO       ACCESS:     790172  HIT:     788324  MISS:       1848
cpu0_L1D PREFETCH  ACCESS:          0  HIT:          0  MISS:          0
cpu0_L1D WRITEBACK ACCESS:          0  HIT:          0  MISS:          0
cpu0_L2C TOTAL     ACCESS:     323852  HIT:      30618  MISS:     293234
cpu0_L2C LOAD      ACCESS:     298005  HIT:      13175  MISS:     284830
cpu0_L2C RFO       ACCESS:       1848  HIT:        619  MISS:       1229
cpu0_L2C PREFETCH  ACCESS:          0  HIT:          0  MISS:          0
cpu0_L2C WRITEBACK ACCESS:      21510  HIT:      16616  MISS:       4894
LLC TOTAL     ACCESS:     308676  HIT:     225841  MISS:      82835
LLC LOAD      ACCESS:     284830  HIT:     202118  MISS:      82712
LLC RFO       ACCESS:       1229  HIT:       1121  MISS:        108
LLC PREFETCH  ACCESS:          0  HIT:          0  MISS:          0
LLC WRITEBACK ACCESS:      20336  HIT:      20332  MISS:          4
Heartbeat CPU 0 instructions: 60000003 cycles: 36544688 heartbeat IPC: 0.947367 cumulative IPC: 0.460105 (Simulation time: 0 hr 44 min 42 sec) 

Region of Interest Statistics
cpu0_DTLB TOTAL     ACCESS:    2799239  HIT:    2653402  MISS:     145837
cpu0_DTLB LOAD      ACCESS:    2195646  HIT:    2049938  MISS:     145708
cpu0_DTLB RFO       ACCESS:     603593  HIT:     603464  MISS:        129
cpu0_DTLB PREFETCH  ACCESS:          0  HIT:          0  MISS:          0
cpu0_DTLB WRITEBACK ACCESS:          0  HIT:          0  MISS:          0
cpu0_ITLB TOTAL     ACCESS:    1621567  HIT:    1621567  MISS:          0
cpu0_ITLB LOAD      ACCESS:    1621567  HIT:    1621567  MISS:          0
cpu0_ITLB RFO       ACCESS:          0  HIT:          0  MISS:          0
cpu0_ITLB PREFETCH  ACCESS:          0  HIT:          0  MISS:          0
cpu0_ITLB WRITEBACK ACCESS:          0  HIT:          0  MISS:          0
cpu0_L1I TOTAL     ACCESS:       2261  HIT:       2261  MISS:          0
cpu0_L1I LOAD      ACCESS:       2261  HIT:       2261  MISS:          0
cpu0_L1I RFO       ACCESS:          0  HIT:          0  MISS:          0
cpu0_L1I PREFETCH  ACCESS:          0  HIT:          0  MISS:          0
cpu0_L1I WRITEBACK ACCESS:          0  HIT:          0  MISS:          0
cpu0_STLB TOTAL     ACCESS:     145837  HIT:      74717  MISS:      71120
cpu0_STLB LOAD      ACCESS:     145708  HIT:      74598  MISS:      71110
cpu0_STLB RFO       ACCESS:        129  HIT:        119  MISS:         10
cpu0_STLB PREFETCH  ACCESS:          0  HIT:          0  MISS:          0
cpu0_STLB WRITEBACK ACCESS:          0  HIT:          0  MISS:          0
cpu0_L1D TOTAL     ACCESS:    3759777  HIT:    3411105  MISS:     348672
cpu0_L1D LOAD      ACCESS:    2687364  HIT:    2343848  MISS:     343516
cpu0_L1D RFO       ACCESS:    1002004  HIT:     999447  MISS:       2557
cpu0_L1D PREFETCH  ACCESS:          0  HIT:          0  MISS:          0
cpu0_L1D WRITEBACK ACCESS:          0  HIT:          0  MISS:          0
cpu0_L2C TOTAL     ACCESS:     373623  HIT:      38266  MISS:     335357
cpu0_L2C LOAD      ACCESS:     343514  HIT:      18185  MISS:     325329
cpu0_L2C RFO       ACCESS:       2557  HIT:        842  MISS:       1715
cpu0_L2C PREFETCH  ACCESS:          0  HIT:          0  MISS:          0
cpu0_L2C WRITEBACK ACCESS:      24953  HIT:      19025  MISS:       5928
LLC TOTAL     ACCESS:     352750  HIT:     269907  MISS:      82843
LLC LOAD      ACCESS:     325329  HIT:     242617  MISS:      82712
LLC RFO       ACCESS:       1715  HIT:       1599  MISS:        116
LLC PREFETCH  ACCESS:          0  HIT:          0  MISS:          0
LLC WRITEBACK ACCESS:      23321  HIT:      23317  MISS:          4
Heartbeat CPU 0 instructions: 62000002 cycles: 42942379 heartbeat IPC: 0.312613 cumulative IPC: 0.426563 (Simulation time: 0 hr 46 min 42 sec) 

Region of Interest Statistics
cpu0_DTLB TOTAL     ACCESS:    3359824  HIT:    3176283  MISS:     183541
cpu0_DTLB LOAD      ACCESS:    2633797  HIT:    2450413  MISS:     183384
cpu0_DTLB RFO       ACCESS:     726027  HIT:     725870  MISS:        157
cpu0_DTLB PREFETCH  ACCESS:          0  HIT:          0  MISS:          0
cpu0_DTLB WRITEBACK ACCESS:          0  HIT:          0  MISS:          0
cpu0_ITLB TOTAL     ACCESS:    1948896  HIT:    1948896  MISS:          0
cpu0_ITLB LOAD      ACCESS:    1948896  HIT:    1948896  MISS:          0
cpu0_ITLB RFO       ACCESS:          0  HIT:          0  MISS:          0
cpu0_ITLB PREFETCH  ACCESS:          0  HIT:          0  MISS:          0
cpu0_ITLB WRITEBACK ACCESS:          0  HIT:          0  MISS:          0
cpu0_L1I TOTAL     ACCESS:       2813  HIT:       2813  MISS:          0
cpu0_L1I LOAD      ACCESS:       2813  HIT:       2813  MISS:          0
cpu0_L1I RFO       ACCESS:          0  HIT:          0  MISS:          0
cpu0_L1I PREFETCH  ACCESS:          0  HIT:          0  MISS:          0
cpu0_L1I WRITEBACK ACCESS:          0  HIT:          0  MISS:          0
cpu0_STLB TOTAL     ACCESS:     183541  HIT:      91673  MISS:      91868
cpu0_STLB LOAD      ACCESS:     183384  HIT:      91526  MISS:      91858
cpu0_STLB RFO       ACCESS:        157  HIT:        147  MISS:         10
cpu0_STLB PREFETCH  ACCESS:          0  HIT:          0  MISS:          0
cpu0_STLB WRITEBACK ACCESS:          0  HIT:          0  MISS:          0
cpu0_L1D TOTAL     ACCESS:    4527090  HIT:    4100963  MISS:     426127
cpu0_L1D LOAD      ACCESS:    3233060  HIT:    2813481  MISS:     419579
cpu0_L1D RFO       ACCESS:    1203036  HIT:    1200052  MISS:       2984
cpu0_L1D PREFETCH  ACCESS:          0  HIT:          0  MISS:          0
cpu0_L1D WRITEBACK ACCESS:          0  HIT:          0  MISS:          0
cpu0_L2C TOTAL     ACCESS:     456226  HIT:      45495  MISS:     410731
cpu0_L2C LOAD      ACCESS:     419577  HIT:      21128  MISS:     398449
cpu0_L2C RFO       ACCESS:       2984  HIT:       1047  MISS:       1937
cpu0_L2C PREFETCH  ACCESS:          0  HIT:          0  MISS:          0
cpu0_L2C WRITEBACK ACCESS:      30101  HIT:      23026  MISS:       7075
LLC TOTAL     ACCESS:     431805  HIT:     299827  MISS:     131978
LLC LOAD      ACCESS:     398449  HIT:     266608  MISS:     131841
LLC RFO       ACCESS:       1937  HIT:       1821  MISS:        116
LLC PREFETCH  ACCESS:          0  HIT:          0  MISS:          0
LLC WRITEBACK ACCESS:      28149  HIT:      28145  MISS:          4
Heartbeat CPU 0 instructions: 64000003 cycles: 51620251 heartbeat IPC: 0.230471 cumulative IPC: 0.380334 (Simulation time: 0 hr 49 min 3 sec) 

Region of Interest Statistics
cpu0_DTLB TOTAL     ACCESS:    3982281  HIT:    3736443  MISS:     245838
cpu0_DTLB LOAD      ACCESS:    3132545  HIT:    2886871  MISS:     245674
cpu0_DTLB RFO       ACCESS:     849736  HIT:     849572  MISS:        164
cpu0_DTLB PREFETCH  ACCESS:          0  HIT:          0  MISS:          0
cpu0_DTLB WRITEBACK ACCESS:          0  HIT:          0  MISS:          0
cpu0_ITLB TOTAL     ACCESS:    2297549  HIT:    2297549  MISS:          0
cpu0_ITLB LOAD      ACCESS:    2297549  HIT:    2297549  MISS:          0
cpu0_ITLB RFO       ACCESS:          0  HIT:          0  MISS:          0
cpu0_ITLB PREFETCH  ACCESS:          0  HIT:          0  MISS:          0
cpu0_ITLB WRITEBACK ACCESS:          0  HIT:          0  MISS:          0
cpu0_L1I TOTAL     ACCESS:       2883  HIT:       2883  MISS:          0
cpu0_L1I LOAD      ACCESS:       2883  HIT:       2883  MISS:          0
cpu0_L1I RFO       ACCESS:          0  HIT:          0  MISS:          0
cpu0_L1I PREFETCH  ACCESS:          0  HIT:          0  MISS:          0
cpu0_L1I WRITEBACK ACCESS:          0  HIT:          0  MISS:          0
cpu0_STLB TOTAL     ACCESS:     245838  HIT:     105112  MISS:     140726
cpu0_STLB LOAD      ACCESS:     245674  HIT:     104962  MISS:     140712
cpu0_STLB RFO       ACCESS:        164  HIT:        150  MISS:         14
cpu0_STLB PREFETCH  ACCESS:          0  HIT:          0  MISS:          0
cpu0_STLB WRITEBACK ACCESS:          0  HIT:          0  MISS:          0
cpu0_L1D TOTAL     ACCESS:    5358708  HIT:    4806385  MISS:     552323
cpu0_L1D LOAD      ACCESS:    3845816  HIT:    3301975  MISS:     543841
cpu0_L1D RFO       ACCESS:    1373403  HIT:    1370269  MISS:       3134
cpu0_L1D PREFETCH  ACCESS:          0  HIT:          0  MISS:          0
cpu0_L1D WRITEBACK ACCESS:          0  HIT:          0  MISS:          0
cpu0_L2C TOTAL     ACCESS:     590429  HIT:      53282  MISS:     537147
cpu0_L2C LOAD      ACCESS:     543839  HIT:      22211  MISS:     521628
cpu0_L2C RFO       ACCESS:       3134  HIT:       1058  MISS:       2076
cpu0_L2C PREFETCH  ACCESS:          0  HIT:          0  MISS:          0
cpu0_L2C WRITEBACK ACCESS:      38108  HIT:      29561  MISS:       8547
LLC TOTAL     ACCESS:     564669  HIT:     376566  MISS:     188103
LLC LOAD      ACCESS:     521628  HIT:     333753  MISS:     187875
LLC RFO       ACCESS:       2076  HIT:       1877  MISS:        199
LLC PREFETCH  ACCESS:          0  HIT:          0  MISS:          0
LLC WRITEBACK ACCESS:      36069  HIT:      36060  MISS:          9
Heartbeat CPU 0 instructions: 66000001 cycles: 54067162 heartbeat IPC: 0.817356 cumulative IPC: 0.407574 (Simulation time: 0 hr 50 min 13 sec) 

Region of Interest Statistics
cpu0_DTLB TOTAL     ACCESS:    4512810  HIT:    4234339  MISS:     278471
cpu0_DTLB LOAD      ACCESS:    3544269  HIT:    3266011  MISS:     278258
cpu0_DTLB RFO       ACCESS:     968541  HIT:     968328  MISS:        213
cpu0_DTLB PREFETCH  ACCESS:          0  HIT:          0  MISS:          0
cpu0_DTLB WRITEBACK ACCESS:          0  HIT:          0  MISS:          0
cpu0_ITLB TOTAL     ACCESS:    2615230  HIT:    2615230  MISS:          0
cpu0_ITLB LOAD      ACCESS:    2615230  HIT:    2615230  MISS:          0
cpu0_ITLB RFO       ACCESS:          0  HIT:          0  MISS:          0
cpu0_ITLB PREFETCH  ACCESS:          0  HIT:          0  MISS:          0
cpu0_ITLB WRITEBACK ACCESS:          0  HIT:          0  MISS:          0
cpu0_L1I TOTAL     ACCESS:       3319  HIT:       3319  MISS:          0
cpu0_L1I LOAD      ACCESS:       3319  HIT:       3319  MISS:          0
cpu0_L1I RFO       ACCESS:          0  HIT:          0  MISS:          0
cpu0_L1I PREFETCH  ACCESS:          0  HIT:          0  MISS:          0
cpu0_L1I WRITEBACK ACCESS:          0  HIT:          0  MISS:          0
cpu0_STLB TOTAL     ACCESS:     278471  HIT:     127222  MISS:     151249
cpu0_STLB LOAD      ACCESS:     278258  HIT:     127025  MISS:     151233
cpu0_STLB RFO       ACCESS:        213  HIT:        197  MISS:         16
cpu0_STLB PREFETCH  ACCESS:          0  HIT:          0  MISS:          0
cpu0_STLB WRITEBACK ACCESS:          0  HIT:          0  MISS:          0
cpu0_L1D TOTAL     ACCESS:    6096216  HIT:    5502630  MISS:     593586
cpu0_L1D LOAD      ACCESS:    4353554  HIT:    3769654  MISS:     583900
cpu0_L1D RFO       ACCESS:    1592748  HIT:    1588959  MISS:       3789
cpu0_L1D PREFETCH  ACCESS:          0  HIT:          0  MISS:          0
cpu0_L1D WRITEBACK ACCESS:          0  HIT:          0  MISS:          0
cpu0_L2C TOTAL     ACCESS:     635020  HIT:      60668  MISS:     574352
cpu0_L2C LOAD      ACCESS:     583898  HIT:      26902  MISS:     556996
cpu0_L2C RFO       ACCESS:       3789  HIT:       1326  MISS:       2463
cpu0_L2C PREFETCH  ACCESS:          0  HIT:          0  MISS:          0
cpu0_L2C WRITEBACK ACCESS:      41436  HIT:      31947  MISS:       9489
LLC TOTAL     ACCESS:     603789  HIT:     415464  MISS:     188325
LLC LOAD      ACCESS:     556996  HIT:     368912  MISS:     188084
LLC RFO       ACCESS:       2463  HIT:       2251  MISS:        212
LLC PREFETCH  ACCESS:          0  HIT:          0  MISS:          0
LLC WRITEBACK ACCESS:      38926  HIT:      38917  MISS:          9
Heartbeat CPU 0 instructions: 68000000 cycles: 56177640 heartbeat IPC: 0.947652 cumulative IPC: 0.435128 (Simulation time: 0 hr 51 min 20 sec) 

Region of Interest Statistics
cpu0_DTLB TOTAL     ACCESS:    5034485  HIT:    4722343  MISS:     312142
cpu0_DTLB LOAD      ACCESS:    3949889  HIT:    3638019  MISS:     311870
cpu0_DTLB RFO       ACCESS:    1084596  HIT:    1084324  MISS:        272
cpu0_DTLB PREFETCH  ACCESS:          0  HIT:          0  MISS:          0
cpu0_DTLB WRITEBACK ACCESS:          0  HIT:          0  MISS:          0
cpu0_ITLB TOTAL     ACCESS:    2927987  HIT:    2927987  MISS:          0
cpu0_ITLB LOAD      ACCESS:    2927987  HIT:    2927987  MISS:          0
cpu0_ITLB RFO       ACCESS:          0  HIT:          0  MISS:          0
cpu0_ITLB PREFETCH  ACCESS:          0  HIT:          0  MISS:          0
cpu0_ITLB WRITEBACK ACCESS:          0  HIT:          0  MISS:          0
cpu0_L1I TOTAL     ACCESS:       3883  HIT:       3883  MISS:          0
cpu0_L1I LOAD      ACCESS:       3883  HIT:       3883  MISS:          0
cpu0_L1I RFO       ACCESS:          0  HIT:          0  MISS:          0
cpu0_L1I PREFETCH  ACCESS:          0  HIT:          0  MISS:          0
cpu0_L1I WRITEBACK ACCESS:          0  HIT:          0  MISS:          0
cpu0_STLB TOTAL     ACCESS:     312142  HIT:     151341  MISS:     160801
cpu0_STLB LOAD      ACCESS:     311870  HIT:     151088  MISS:     160782
cpu0_STLB RFO       ACCESS:        272  HIT:        253  MISS:         19
cpu0_STLB PREFETCH  ACCESS:          0  HIT:          0  MISS:          0
cpu0_STLB WRITEBACK ACCESS:          0  HIT:          0  MISS:          0
cpu0_L1D TOTAL     ACCESS:    6825831  HIT:    6186176  MISS:     639655
cpu0_L1D LOAD      ACCESS:    4858750  HIT:    4229772  MISS:     628978
cpu0_L1D RFO       ACCESS:    1807846  HIT:    1803337  MISS:       4509
cpu0_L1D PREFETCH  ACCESS:          0  HIT:          0  MISS:          0
cpu0_L1D WRITEBACK ACCESS:          0  HIT:          0  MISS:          0
cpu0_L2C TOTAL     ACCESS:     684315  HIT:      68174  MISS:     616141
cpu0_L2C LOAD      ACCESS:     628976  HIT:      31820  MISS:     597156
cpu0_L2C RFO       ACCESS:       4509  HIT:       1592  MISS:       2917
cpu0_L2C PREFETCH  ACCESS:          0  HIT:          0  MISS:          0
cpu0_L2C WRITEBACK ACCESS:      44662  HIT:      34257  MISS:      10405
LLC TOTAL     ACCESS:     647430  HIT:     459058  MISS:     188372
LLC LOAD      ACCESS:     597156  HIT:     409025  MISS:     188131
LLC RFO       ACCESS:       2917  HIT:       2705  MISS:        212
LLC PREFETCH  ACCESS:          0  HIT:          0  MISS:          0
LLC WRITEBACK ACCESS:      41694  HIT:      41685  MISS:          9
Heartbeat CPU 0 instructions: 70000000 cycles: 58832746 heartbeat IPC: 0.753266 cumulative IPC: 0.454316 (Simulation time: 0 hr 52 min 39 sec) 

Region of Interest Statistics
cpu0_DTLB TOTAL     ACCESS:    5579952  HIT:    5222457  MISS:     357495
cpu0_DTLB LOAD      ACCESS:    4382475  HIT:    4025298  MISS:     357177
cpu0_DTLB RFO       ACCESS:    1197477  HIT:    1197159  MISS:        318
cpu0_DTLB PREFETCH  ACCESS:          0  HIT:          0  MISS:          0
cpu0_DTLB WRITEBACK ACCESS:          0  HIT:          0  MISS:          0
cpu0_ITLB TOTAL     ACCESS:    3247451  HIT:    3247451  MISS:          0
cpu0_ITLB LOAD      ACCESS:    3247451  HIT:    3247451  MISS:          0
cpu0_ITLB RFO       ACCESS:          0  HIT:          0  MISS:          0
cpu0_ITLB PREFETCH  ACCESS:          0  HIT:          0  MISS:          0
cpu0_ITLB WRITEBACK ACCESS:          0  HIT:          0  MISS:          0
cpu0_L1I TOTAL     ACCESS:       4778  HIT:       4778  MISS:          0
cpu0_L1I LOAD      ACCESS:       4778  HIT:       4778  MISS:          0
cpu0_L1I RFO       ACCESS:          0  HIT:          0  MISS:          0
cpu0_L1I PREFETCH  ACCESS:          0  HIT:          0  MISS:          0
cpu0_L1I WRITEBACK ACCESS:          0  HIT:          0  MISS:          0
cpu0_STLB TOTAL     ACCESS:     357495  HIT:     170762  MISS:     186733
cpu0_STLB LOAD      ACCESS:     357177  HIT:     170468  MISS:     186709
cpu0_STLB RFO       ACCESS:        318  HIT:        294  MISS:         24
cpu0_STLB PREFETCH  ACCESS:          0  HIT:          0  MISS:          0
cpu0_STLB WRITEBACK ACCESS:          0  HIT:          0  MISS:          0
cpu0_L1D TOTAL     ACCESS:    7571988  HIT:    6848133  MISS:     723855
cpu0_L1D LOAD      ACCESS:    5390042  HIT:    4678062  MISS:     711980
cpu0_L1D RFO       ACCESS:    1997460  HIT:    1992493  MISS:       4967
cpu0_L1D PREFETCH  ACCESS:          0  HIT:          0  MISS:          0
cpu0_L1D WRITEBACK ACCESS:          0  HIT:          0  MISS:          0
cpu0_L2C TOTAL     ACCESS:     773515  HIT:      75619  MISS:     697896
cpu0_L2C LOAD      ACCESS:     711978  HIT:      35381  MISS:     676597
cpu0_L2C RFO       ACCESS:       4967  HIT:       1715  MISS:       3252
cpu0_L2C PREFETCH  ACCESS:          0  HIT:          0  MISS:          0
cpu0_L2C WRITEBACK ACCESS:      49662  HIT:      37944  MISS:      11718
LLC TOTAL     ACCESS:     732668  HIT:     538076  MISS:     194592
LLC LOAD      ACCESS:     676597  HIT:     482247  MISS:     194350
LLC RFO       ACCESS:       3252  HIT:       3040  MISS:        212
LLC PREFETCH  ACCESS:          0  HIT:          0  MISS:          0
LLC WRITEBACK ACCESS:      46490  HIT:      46481  MISS:          9
Heartbeat CPU 0 instructions: 72000001 cycles: 61308558 heartbeat IPC: 0.807816 cumulative IPC: 0.473138 (Simulation time: 0 hr 53 min 53 sec) 

Region of Interest Statistics
cpu0_DTLB TOTAL     ACCESS:    6125102  HIT:    5728073  MISS:     397029
cpu0_DTLB LOAD      ACCESS:    4810124  HIT:    4413512  MISS:     396612
cpu0_DTLB RFO       ACCESS:    1314978  HIT:    1314561  MISS:        417
cpu0_DTLB PREFETCH  ACCESS:          0  HIT:          0  MISS:          0
cpu0_DTLB WRITEBACK ACCESS:          0  HIT:          0  MISS:          0
cpu0_ITLB TOTAL     ACCESS:    3567657  HIT:    3567657  MISS:          0
cpu0_ITLB LOAD      ACCESS:    3567657  HIT:    3567657  MISS:          0
cpu0_ITLB RFO       ACCESS:          0  HIT:          0  MISS:          0
cpu0_ITLB PREFETCH  ACCESS:          0  HIT:          0  MISS:          0
cpu0_ITLB WRITEBACK ACCESS:          0  HIT:          0  MISS:          0
cpu0_L1I TOTAL     ACCESS:       5135  HIT:       5135  MISS:          0
cpu0_L1I LOAD      ACCESS:       5135  HIT:       5135  MISS:          0
cpu0_L1I RFO       ACCESS:          0  HIT:          0  MISS:          0
cpu0_L1I PREFETCH  ACCESS:          0  HIT:          0  MISS:          0
cpu0_L1I WRITEBACK ACCESS:          0  HIT:          0  MISS:          0
cpu0_STLB TOTAL     ACCESS:     397029  HIT:     192714  MISS:     204315
cpu0_STLB LOAD      ACCESS:     396612  HIT:     192325  MISS:     204287
cpu0_STLB RFO       ACCESS:        417  HIT:        389  MISS:         28
cpu0_STLB PREFETCH  ACCESS:          0  HIT:          0  MISS:          0
cpu0_STLB WRITEBACK ACCESS:          0  HIT:          0  MISS:          0
cpu0_L1D TOTAL     ACCESS:    8320733  HIT:    7526432  MISS:     794301
cpu0_L1D LOAD      ACCESS:    5918370  HIT:    5136700  MISS:     781670
cpu0_L1D RFO       ACCESS:    2200654  HIT:    2195144  MISS:       5510
cpu0_L1D PREFETCH  ACCESS:          0  HIT:          0  MISS:          0
cpu0_L1D WRITEBACK ACCESS:          0  HIT:          0  MISS:          0
cpu0_L2C TOTAL     ACCESS:     848555  HIT:      82960  MISS:     765595
cpu0_L2C LOAD      ACCESS:     781668  HIT:      39207  MISS:     742461
cpu0_L2C RFO       ACCESS:       5510  HIT:       1878  MISS:       3632
cpu0_L2C PREFETCH  ACCESS:          0  HIT:          0  MISS:          0
cpu0_L2C WRITEBACK ACCESS:      54256  HIT:      41279  MISS:      12977
LLC TOTAL     ACCESS:     803386  HIT:     608774  MISS:     194612
LLC LOAD      ACCESS:     742461  HIT:     548091  MISS:     194370
LLC RFO       ACCESS:       3632  HIT:       3420  MISS:        212
LLC PREFETCH  ACCESS:          0  HIT:          0  MISS:          0
LLC WRITEBACK ACCESS:      50768  HIT:      50759  MISS:          9
Heartbeat CPU 0 instructions: 74000000 cycles: 63393552 heartbeat IPC: 0.959235 cumulative IPC: 0.494 (Simulation time: 0 hr 54 min 56 sec) 

Region of Interest Statistics
cpu0_DTLB TOTAL     ACCESS:    6647166  HIT:    6221898  MISS:     425268
cpu0_DTLB LOAD      ACCESS:    5216772  HIT:    4791983  MISS:     424789
cpu0_DTLB RFO       ACCESS:    1430394  HIT:    1429915  MISS:        479
cpu0_DTLB PREFETCH  ACCESS:          0  HIT:          0  MISS:          0
cpu0_DTLB WRITEBACK ACCESS:          0  HIT:          0  MISS:          0
cpu0_ITLB TOTAL     ACCESS:    3879993  HIT:    3879993  MISS:          0
cpu0_ITLB LOAD      ACCESS:    3879993  HIT:    3879993  MISS:          0
cpu0_ITLB RFO       ACCESS:          0  HIT:          0  MISS:          0
cpu0_ITLB PREFETCH  ACCESS:          0  HIT:          0  MISS:          0
cpu0_ITLB WRITEBACK ACCESS:          0  HIT:          0  MISS:          0
cpu0_L1I TOTAL     ACCESS:       5874  HIT:       5874  MISS:          0
cpu0_L1I LOAD      ACCESS:       5874  HIT:       5874  MISS:          0
cpu0_L1I RFO       ACCESS:          0  HIT:          0  MISS:          0
cpu0_L1I PREFETCH  ACCESS:          0  HIT:          0  MISS:          0
cpu0_L1I WRITEBACK ACCESS:          0  HIT:          0  MISS:          0
cpu0_STLB TOTAL     ACCESS:     425268  HIT:     215571  MISS:     209697
cpu0_STLB LOAD      ACCESS:     424789  HIT:     215122  MISS:     209667
cpu0_STLB RFO       ACCESS:        479  HIT:        449  MISS:         30
cpu0_STLB PREFETCH  ACCESS:          0  HIT:          0  MISS:          0
cpu0_STLB WRITEBACK ACCESS:          0  HIT:          0  MISS:          0
cpu0_L1D TOTAL     ACCESS:    9046937  HIT:    8207787  MISS:     839150
cpu0_L1D LOAD      ACCESS:    6425292  HIT:    5599645  MISS:     825647
cpu0_L1D RFO       ACCESS:    2414803  HIT:    2408495  MISS:       6308
cpu0_L1D PREFETCH  ACCESS:          0  HIT:          0  MISS:          0
cpu0_L1D WRITEBACK ACCESS:          0  HIT:          0  MISS:          0
cpu0_L2C TOTAL     ACCESS:     896699  HIT:      91000  MISS:     805699
cpu0_L2C LOAD      ACCESS:     825645  HIT:      44729  MISS:     780916
cpu0_L2C RFO       ACCESS:       6308  HIT:       2134  MISS:       4174
cpu0_L2C PREFETCH  ACCESS:          0  HIT:          0  MISS:          0
cpu0_L2C WRITEBACK ACCESS:      57551  HIT:      43536  MISS:      14015
LLC TOTAL     ACCESS:     845243  HIT:     650630  MISS:     194613
LLC LOAD      ACCESS:     780916  HIT:     586545  MISS:     194371
LLC RFO       ACCESS:       4174  HIT:       3962  MISS:        212
LLC PREFETCH  ACCESS:          0  HIT:          0  MISS:          0
LLC WRITEBACK ACCESS:      53559  HIT:      53550  MISS:          9
Heartbeat CPU 0 instructions: 76000001 cycles: 67988738 heartbeat IPC: 0.435238 cumulative IPC: 0.488922 (Simulation time: 0 hr 56 min 37 sec) 

Region of Interest Statistics
cpu0_DTLB TOTAL     ACCESS:    7199328  HIT:    6740090  MISS:     459238
cpu0_DTLB LOAD      ACCESS:    5653574  HIT:    5194852  MISS:     458722
cpu0_DTLB RFO       ACCESS:    1545754  HIT:    1545238  MISS:        516
cpu0_DTLB PREFETCH  ACCESS:          0  HIT:          0  MISS:          0
cpu0_DTLB WRITEBACK ACCESS:          0  HIT:          0  MISS:          0
cpu0_ITLB TOTAL     ACCESS:    4201056  HIT:    4201056  MISS:          0
cpu0_ITLB LOAD      ACCESS:    4201056  HIT:    4201056  MISS:          0
cpu0_ITLB RFO       ACCESS:          0  HIT:          0  MISS:          0
cpu0_ITLB PREFETCH  ACCESS:          0  HIT:          0  MISS:          0
cpu0_ITLB WRITEBACK ACCESS:          0  HIT:          0  MISS:          0
cpu0_L1I TOTAL     ACCESS:       6159  HIT:       6159  MISS:          0
cpu0_L1I LOAD      ACCESS:       6159  HIT:       6159  MISS:          0
cpu0_L1I RFO       ACCESS:          0  HIT:          0  MISS:          0
cpu0_L1I PREFETCH  ACCESS:          0  HIT:          0  MISS:          0
cpu0_L1I WRITEBACK ACCESS:          0  HIT:          0  MISS:          0
cpu0_STLB TOTAL     ACCESS:     459238  HIT:     233706  MISS:     225532
cpu0_STLB LOAD      ACCESS:     458722  HIT:     233224  MISS:     225498
cpu0_STLB RFO       ACCESS:        516  HIT:        482  MISS:         34
cpu0_STLB PREFETCH  ACCESS:          0  HIT:          0  MISS:          0
cpu0_STLB WRITEBACK ACCESS:          0  HIT:          0  MISS:          0
cpu0_L1D TOTAL     ACCESS:    9801843  HIT:    8881843  MISS:     920000
cpu0_L1D LOAD      ACCESS:    6967822  HIT:    6062267  MISS:     905555
cpu0_L1D RFO       ACCESS:    2611547  HIT:    2604754  MISS:       6793
cpu0_L1D PREFETCH  ACCESS:          0  HIT:          0  MISS:          0
cpu0_L1D WRITEBACK ACCESS:          0  HIT:          0  MISS:          0
cpu0_L2C TOTAL     ACCESS:     982664  HIT:      98391  MISS:     884273
cpu0_L2C LOAD      ACCESS:     905553  HIT:      48080  MISS:     857473
cpu0_L2C RFO       ACCESS:       6793  HIT:       2286  MISS:       4507
cpu0_L2C PREFETCH  ACCESS:          0  HIT:          0  MISS:          0
cpu0_L2C WRITEBACK ACCESS:      62666  HIT:      47387  MISS:      15279
LLC TOTAL     ACCESS:     927409  HIT:     700379  MISS:     227030
LLC LOAD      ACCESS:     857473  HIT:     630687  MISS:     226786
LLC RFO       ACCESS:       4507  HIT:       4294  MISS:        213
LLC PREFETCH  ACCESS:          0  HIT:          0  MISS:          0
LLC WRITEBACK ACCESS:      58415  HIT:      58406  MISS:          9
Heartbeat CPU 0 instructions: 78000000 cycles: 70064822 heartbeat IPC: 0.963352 cumulative IPC: 0.506748 (Simulation time: 0 hr 57 min 47 sec) 

Region of Interest Statistics
cpu0_DTLB TOTAL     ACCESS:    7732441  HIT:    7245230  MISS:     487211
cpu0_DTLB LOAD      ACCESS:    6072455  HIT:    5585797  MISS:     486658
cpu0_DTLB RFO       ACCESS:    1659986  HIT:    1659433  MISS:        553
cpu0_DTLB PREFETCH  ACCESS:          0  HIT:          0  MISS:          0
cpu0_DTLB WRITEBACK ACCESS:          0  HIT:          0  MISS:          0
cpu0_ITLB TOTAL     ACCESS:    4515759  HIT:    4515759  MISS:          0
cpu0_ITLB LOAD      ACCESS:    4515759  HIT:    4515759  MISS:          0
cpu0_ITLB RFO       ACCESS:          0  HIT:          0  MISS:          0
cpu0_ITLB PREFETCH  ACCESS:          0  HIT:          0  MISS:          0
cpu0_ITLB WRITEBACK ACCESS:          0  HIT:          0  MISS:          0
cpu0_L1I TOTAL     ACCESS:       8763  HIT:       8763  MISS:          0
cpu0_L1I LOAD      ACCESS:       8763  HIT:       8763  MISS:          0
cpu0_L1I RFO       ACCESS:          0  HIT:          0  MISS:          0
cpu0_L1I PREFETCH  ACCESS:          0  HIT:          0  MISS:          0
cpu0_L1I WRITEBACK ACCESS:          0  HIT:          0  MISS:          0
cpu0_STLB TOTAL     ACCESS:     487211  HIT:     252358  MISS:     234853
cpu0_STLB LOAD      ACCESS:     486658  HIT:     251842  MISS:     234816
cpu0_STLB RFO       ACCESS:        553  HIT:        516  MISS:         37
cpu0_STLB PREFETCH  ACCESS:          0  HIT:          0  MISS:          0
cpu0_STLB WRITEBACK ACCESS:          0  HIT:          0  MISS:          0
cpu0_L1D TOTAL     ACCESS:   10528958  HIT:    9546402  MISS:     982556
cpu0_L1D LOAD      ACCESS:    7483913  HIT:    6516628  MISS:     967285
cpu0_L1D RFO       ACCESS:    2813760  HIT:    2806244  MISS:       7516
cpu0_L1D PREFETCH  ACCESS:          0  HIT:          0  MISS:          0
cpu0_L1D WRITEBACK ACCESS:          0  HIT:          0  MISS:          0
cpu0_L2C TOTAL     ACCESS:    1049134  HIT:     106563  MISS:     942571
cpu0_L2C LOAD      ACCESS:     967283  HIT:      53068  MISS:     914215
cpu0_L2C RFO       ACCESS:       7516  HIT:       2630  MISS:       4886
cpu0_L2C PREFETCH  ACCESS:          0  HIT:          0  MISS:          0
cpu0_L2C WRITEBACK ACCESS:      66580  HIT:      50223  MISS:      16357
LLC TOTAL     ACCESS:     988021  HIT:     760986  MISS:     227035
LLC LOAD      ACCESS:     914215  HIT:     687424  MISS:     226791
LLC RFO       ACCESS:       4886  HIT:       4673  MISS:        213
LLC PREFETCH  ACCESS:          0  HIT:          0  MISS:          0
LLC WRITEBACK ACCESS:      61807  HIT:      61798  MISS:          9
Heartbeat CPU 0 instructions: 80000003 cycles: 72480896 heartbeat IPC: 0.82779 cumulative IPC: 0.520198 (Simulation time: 0 hr 58 min 56 sec) 

Region of Interest Statistics
cpu0_DTLB TOTAL     ACCESS:    8285360  HIT:    7767897  MISS:     517463
cpu0_DTLB LOAD      ACCESS:    6506622  HIT:    5989743  MISS:     516879
cpu0_DTLB RFO       ACCESS:    1778738  HIT:    1778154  MISS:        584
cpu0_DTLB PREFETCH  ACCESS:          0  HIT:          0  MISS:          0
cpu0_DTLB WRITEBACK ACCESS:          0  HIT:          0  MISS:          0
cpu0_ITLB TOTAL     ACCESS:    4839737  HIT:    4839737  MISS:          0
cpu0_ITLB LOAD      ACCESS:    4839737  HIT:    4839737  MISS:          0
cpu0_ITLB RFO       ACCESS:          0  HIT:          0  MISS:          0
cpu0_ITLB PREFETCH  ACCESS:          0  HIT:          0  MISS:          0
cpu0_ITLB WRITEBACK ACCESS:          0  HIT:          0  MISS:          0
cpu0_L1I TOTAL     ACCESS:       9366  HIT:       9366  MISS:          0
cpu0_L1I LOAD      ACCESS:       9366  HIT:       9366  MISS:          0
cpu0_L1I RFO       ACCESS:          0  HIT:          0  MISS:          0
cpu0_L1I PREFETCH  ACCESS:          0  HIT:          0  MISS:          0
cpu0_L1I WRITEBACK ACCESS:          0  HIT:          0  MISS:          0
cpu0_STLB TOTAL     ACCESS:     517463  HIT:     270642  MISS:     246821
cpu0_STLB LOAD      ACCESS:     516879  HIT:     270095  MISS:     246784
cpu0_STLB RFO       ACCESS:        584  HIT:        547  MISS:         37
cpu0_STLB PREFETCH  ACCESS:          0  HIT:          0  MISS:          0
cpu0_STLB WRITEBACK ACCESS:          0  HIT:          0  MISS:          0
cpu0_L1D TOTAL     ACCESS:   11270404  HIT:   10207512  MISS:    1062892
cpu0_L1D LOAD      ACCESS:    8017931  HIT:    6971040  MISS:    1046891
cpu0_L1D RFO       ACCESS:    3009498  HIT:    3001526  MISS:       7972
cpu0_L1D PREFETCH  ACCESS:          0  HIT:          0  MISS:          0
cpu0_L1D WRITEBACK ACCESS:          0  HIT:          0  MISS:          0
cpu0_L2C TOTAL     ACCESS:    1134461  HIT:     113753  MISS:    1020708
cpu0_L2C LOAD      ACCESS:    1046889  HIT:      56429  MISS:     990460
cpu0_L2C RFO       ACCESS:       7972  HIT:       2770  MISS:       5202
cpu0_L2C PREFETCH  ACCESS:          0  HIT:          0  MISS:          0
cpu0_L2C WRITEBACK ACCESS:      71571  HIT:      53890  MISS:      17681
LLC TOTAL     ACCESS:    1069549  HIT:     842126  MISS:     227423
LLC LOAD      ACCESS:     990460  HIT:     763281  MISS:     227179
LLC RFO       ACCESS:       5202  HIT:       4989  MISS:        213
LLC PREFETCH  ACCESS:          0  HIT:          0  MISS:          0
LLC WRITEBACK ACCESS:      66522  HIT:      66513  MISS:          9
Heartbeat CPU 0 instructions: 82000003 cycles: 74528760 heartbeat IPC: 0.976627 cumulative IPC: 0.53585 (Simulation time: 1 hr 0 min 0 sec) 

Region of Interest Statistics
cpu0_DTLB TOTAL     ACCESS:    8805710  HIT:    8269319  MISS:     536391
cpu0_DTLB LOAD      ACCESS:    6910479  HIT:    6374708  MISS:     535771
cpu0_DTLB RFO       ACCESS:    1895231  HIT:    1894611  MISS:        620
cpu0_DTLB PREFETCH  ACCESS:          0  HIT:          0  MISS:          0
cpu0_DTLB WRITEBACK ACCESS:          0  HIT:          0  MISS:          0
cpu0_ITLB TOTAL     ACCESS:    5152688  HIT:    5152688  MISS:          0
cpu0_ITLB LOAD      ACCESS:    5152688  HIT:    5152688  MISS:          0
cpu0_ITLB RFO       ACCESS:          0  HIT:          0  MISS:          0
cpu0_ITLB PREFETCH  ACCESS:          0  HIT:          0  MISS:          0
cpu0_ITLB WRITEBACK ACCESS:          0  HIT:          0  MISS:          0
cpu0_L1I TOTAL     ACCESS:       9926  HIT:       9926  MISS:          0
cpu0_L1I LOAD      ACCESS:       9926  HIT:       9926  MISS:          0
cpu0_L1I RFO       ACCESS:          0  HIT:          0  MISS:          0
cpu0_L1I PREFETCH  ACCESS:          0  HIT:          0  MISS:          0
cpu0_L1I WRITEBACK ACCESS:          0  HIT:          0  MISS:          0
cpu0_STLB TOTAL     ACCESS:     536391  HIT:     288082  MISS:     248309
cpu0_STLB LOAD      ACCESS:     535771  HIT:     287501  MISS:     248270
cpu0_STLB RFO       ACCESS:        620  HIT:        581  MISS:         39
cpu0_STLB PREFETCH  ACCESS:          0  HIT:          0  MISS:          0
cpu0_STLB WRITEBACK ACCESS:          0  HIT:          0  MISS:          0
cpu0_L1D TOTAL     ACCESS:   11994718  HIT:   10887318  MISS:    1107400
cpu0_L1D LOAD      ACCESS:    8524298  HIT:    7433708  MISS:    1090590
cpu0_L1D RFO       ACCESS:    3225991  HIT:    3217251  MISS:       8740
cpu0_L1D PREFETCH  ACCESS:          0  HIT:          0  MISS:          0
cpu0_L1D WRITEBACK ACCESS:          0  HIT:          0  MISS:          0
cpu0_L2C TOTAL     ACCESS:    1182183  HIT:     121617  MISS:    1060566
cpu0_L2C LOAD      ACCESS:    1090588  HIT:      61966  MISS:    1028622
cpu0_L2C RFO       ACCESS:       8740  HIT:       3046  MISS:       5694
cpu0_L2C PREFETCH  ACCESS:          0  HIT:          0  MISS:          0
cpu0_L2C WRITEBACK ACCESS:      74785  HIT:      55938  MISS:      18847
LLC TOTAL     ACCESS:    1111011  HIT:     883588  MISS:     227423
LLC LOAD      ACCESS:    1028620  HIT:     801441  MISS:     227179
LLC RFO       ACCESS:       5694  HIT:       5481  MISS:        213
LLC PREFETCH  ACCESS:          0  HIT:          0  MISS:          0
LLC WRITEBACK ACCESS:      69294  HIT:      69285  MISS:          9
Heartbeat CPU 0 instructions: 84000001 cycles: 76536434 heartbeat IPC: 0.996177 cumulative IPC: 0.550822 (Simulation time: 1 hr 1 min 5 sec) 

Region of Interest Statistics
cpu0_DTLB TOTAL     ACCESS:    9329162  HIT:    8777214  MISS:     551948
cpu0_DTLB LOAD      ACCESS:    7317751  HIT:    6766454  MISS:     551297
cpu0_DTLB RFO       ACCESS:    2011411  HIT:    2010760  MISS:        651
cpu0_DTLB PREFETCH  ACCESS:          0  HIT:          0  MISS:          0
cpu0_DTLB WRITEBACK ACCESS:          0  HIT:          0  MISS:          0
cpu0_ITLB TOTAL     ACCESS:    5465926  HIT:    5465926  MISS:          0
cpu0_ITLB LOAD      ACCESS:    5465926  HIT:    5465926  MISS:          0
cpu0_ITLB RFO       ACCESS:          0  HIT:          0  MISS:          0
cpu0_ITLB PREFETCH  ACCESS:          0  HIT:          0  MISS:          0
cpu0_ITLB WRITEBACK ACCESS:          0  HIT:          0  MISS:          0
cpu0_L1I TOTAL     ACCESS:      11478  HIT:      11478  MISS:          0
cpu0_L1I LOAD      ACCESS:      11478  HIT:      11478  MISS:          0
cpu0_L1I RFO       ACCESS:          0  HIT:          0  MISS:          0
cpu0_L1I PREFETCH  ACCESS:          0  HIT:          0  MISS:          0
cpu0_L1I WRITEBACK ACCESS:          0  HIT:          0  MISS:          0
cpu0_STLB TOTAL     ACCESS:     551948  HIT:     301419  MISS:     250529
cpu0_STLB LOAD      ACCESS:     551297  HIT:     300807  MISS:     250490
cpu0_STLB RFO       ACCESS:        651  HIT:        612  MISS:         39
cpu0_STLB PREFETCH  ACCESS:          0  HIT:          0  MISS:          0
cpu0_STLB WRITEBACK ACCESS:          0  HIT:          0  MISS:          0
cpu0_L1D TOTAL     ACCESS:   12715959  HIT:   11560649  MISS:    1155310
cpu0_L1D LOAD      ACCESS:    9030718  HIT:    7892915  MISS:    1137803
cpu0_L1D RFO       ACCESS:    3438680  HIT:    3429283  MISS:       9397
cpu0_L1D PREFETCH  ACCESS:          0  HIT:          0  MISS:          0
cpu0_L1D WRITEBACK ACCESS:          0  HIT:          0  MISS:          0
cpu0_L2C TOTAL     ACCESS:    1233386  HIT:     128539  MISS:    1104847
cpu0_L2C LOAD      ACCESS:    1137801  HIT:      66437  MISS:    1071364
cpu0_L2C RFO       ACCESS:       9397  HIT:       3251  MISS:       6146
cpu0_L2C PREFETCH  ACCESS:          0  HIT:          0  MISS:          0
cpu0_L2C WRITEBACK ACCESS:      78078  HIT:      58184  MISS:      19894
LLC TOTAL     ACCESS:    1157163  HIT:     929740  MISS:     227423
LLC LOAD      ACCESS:    1071362  HIT:     844183  MISS:     227179
LLC RFO       ACCESS:       6146  HIT:       5933  MISS:        213
LLC PREFETCH  ACCESS:          0  HIT:          0  MISS:          0
LLC WRITEBACK ACCESS:      72212  HIT:      72203  MISS:          9
Heartbeat CPU 0 instructions: 86000004 cycles: 82677948 heartbeat IPC: 0.325653 cumulative IPC: 0.530446 (Simulation time: 1 hr 3 min 50 sec) 

Region of Interest Statistics
cpu0_DTLB TOTAL     ACCESS:    9911931  HIT:    9322998  MISS:     588933
cpu0_DTLB LOAD      ACCESS:    7784750  HIT:    7196474  MISS:     588276
cpu0_DTLB RFO       ACCESS:    2127181  HIT:    2126524  MISS:        657
cpu0_DTLB PREFETCH  ACCESS:          0  HIT:          0  MISS:          0
cpu0_DTLB WRITEBACK ACCESS:          0  HIT:          0  MISS:          0
cpu0_ITLB TOTAL     ACCESS:    5795454  HIT:    5795454  MISS:          0
cpu0_ITLB LOAD      ACCESS:    5795454  HIT:    5795454  MISS:          0
cpu0_ITLB RFO       ACCESS:          0  HIT:          0  MISS:          0
cpu0_ITLB PREFETCH  ACCESS:          0  HIT:          0  MISS:          0
cpu0_ITLB WRITEBACK ACCESS:          0  HIT:          0  MISS:          0
cpu0_L1I TOTAL     ACCESS:      16380  HIT:      16380  MISS:          0
cpu0_L1I LOAD      ACCESS:      16380  HIT:      16380  MISS:          0
cpu0_L1I RFO       ACCESS:          0  HIT:          0  MISS:          0
cpu0_L1I PREFETCH  ACCESS:          0  HIT:          0  MISS:          0
cpu0_L1I WRITEBACK ACCESS:          0  HIT:          0  MISS:          0
cpu0_STLB TOTAL     ACCESS:     588933  HIT:     310425  MISS:     278508
cpu0_STLB LOAD      ACCESS:     588276  HIT:     309807  MISS:     278469
cpu0_STLB RFO       ACCESS:        657  HIT:        618  MISS:         39
cpu0_STLB PREFETCH  ACCESS:          0  HIT:          0  MISS:          0
cpu0_STLB WRITEBACK ACCESS:          0  HIT:          0  MISS:          0
cpu0_L1D TOTAL     ACCESS:   13473398  HIT:   12204390  MISS:    1269008
cpu0_L1D LOAD      ACCESS:    9591135  HIT:    8341979  MISS:    1249156
cpu0_L1D RFO       ACCESS:    3608004  HIT:    3598447  MISS:       9557
cpu0_L1D PREFETCH  ACCESS:          0  HIT:          0  MISS:          0
cpu0_L1D WRITEBACK ACCESS:          0  HIT:          0  MISS:          0
cpu0_L2C TOTAL     ACCESS:    1353471  HIT:     135514  MISS:    1217957
cpu0_L2C LOAD      ACCESS:    1249154  HIT:      68034  MISS:    1181120
cpu0_L2C RFO       ACCESS:       9557  HIT:       3285  MISS:       6272
cpu0_L2C PREFETCH  ACCESS:          0  HIT:          0  MISS:          0
cpu0_L2C WRITEBACK ACCESS:      84465  HIT:      63313  MISS:      21152
LLC TOTAL     ACCESS:    1275287  HIT:     983950  MISS:     291337
LLC LOAD      ACCESS:    1181118  HIT:     890047  MISS:     291071
LLC RFO       ACCESS:       6272  HIT:       6054  MISS:        218
LLC PREFETCH  ACCESS:          0  HIT:          0  MISS:          0
LLC WRITEBACK ACCESS:      78484  HIT:      78474  MISS:         10
Heartbeat CPU 0 instructions: 88000001 cycles: 85074488 heartbeat IPC: 0.834535 cumulative IPC: 0.540818 (Simulation time: 1 hr 5 min 0 sec) 

Region of Interest Statistics
cpu0_DTLB TOTAL     ACCESS:   10463137  HIT:    9852096  MISS:     611041
cpu0_DTLB LOAD      ACCESS:    8217897  HIT:    7607539  MISS:     610358
cpu0_DTLB RFO       ACCESS:    2245240  HIT:    2244557  MISS:        683
cpu0_DTLB PREFETCH  ACCESS:          0  HIT:          0  MISS:          0
cpu0_DTLB WRITEBACK ACCESS:          0  HIT:          0  MISS:          0
cpu0_ITLB TOTAL     ACCESS:    6118876  HIT:    6118876  MISS:          0
cpu0_ITLB LOAD      ACCESS:    6118876  HIT:    6118876  MISS:          0
cpu0_ITLB RFO       ACCESS:          0  HIT:          0  MISS:          0
cpu0_ITLB PREFETCH  ACCESS:          0  HIT:          0  MISS:          0
cpu0_ITLB WRITEBACK ACCESS:          0  HIT:          0  MISS:          0
cpu0_L1I TOTAL     ACCESS:      17308  HIT:      17308  MISS:          0
cpu0_L1I LOAD      ACCESS:      17308  HIT:      17308  MISS:          0
cpu0_L1I RFO       ACCESS:          0  HIT:          0  MISS:          0
cpu0_L1I PREFETCH  ACCESS:          0  HIT:          0  MISS:          0
cpu0_L1I WRITEBACK ACCESS:          0  HIT:          0  MISS:          0
cpu0_STLB TOTAL     ACCESS:     611041  HIT:     323824  MISS:     287217
cpu0_STLB LOAD      ACCESS:     610358  HIT:     323181  MISS:     287177
cpu0_STLB RFO       ACCESS:        683  HIT:        643  MISS:         40
cpu0_STLB PREFETCH  ACCESS:          0  HIT:          0  MISS:          0
cpu0_STLB WRITEBACK ACCESS:          0  HIT:          0  MISS:          0
cpu0_L1D TOTAL     ACCESS:   14205727  HIT:   12863305  MISS:    1342422
cpu0_L1D LOAD      ACCESS:   10120369  HIT:    8798543  MISS:    1321826
cpu0_L1D RFO       ACCESS:    3802582  HIT:    3792496  MISS:      10086
cpu0_L1D PREFETCH  ACCESS:          0  HIT:          0  MISS:          0
cpu0_L1D WRITEBACK ACCESS:          0  HIT:          0  MISS:          0
cpu0_L2C TOTAL     ACCESS:    1431807  HIT:     142685  MISS:    1289122
cpu0_L2C LOAD      ACCESS:    1321823  HIT:      71280  MISS:    1250543
cpu0_L2C RFO       ACCESS:      10086  HIT:       3435  MISS:       6651
cpu0_L2C PREFETCH  ACCESS:          0  HIT:          0  MISS:          0
cpu0_L2C WRITEBACK ACCESS:      89388  HIT:      67072  MISS:      22316
LLC TOTAL     ACCESS:    1349891  HIT:    1057438  MISS:     292453
LLC LOAD      ACCESS:    1250540  HIT:     958422  MISS:     292118
LLC RFO       ACCESS:       6651  HIT:       6366  MISS:        285
LLC PREFETCH  ACCESS:          0  HIT:          0  MISS:          0
LLC WRITEBACK ACCESS:      83088  HIT:      83078  MISS:         10
Heartbeat CPU 0 instructions: 90000003 cycles: 86994568 heartbeat IPC: 1.04162 cumulative IPC: 0.554139 (Simulation time: 1 hr 6 min 2 sec) 

Region of Interest Statistics
cpu0_DTLB TOTAL     ACCESS:   10978907  HIT:   10352766  MISS:     626141
cpu0_DTLB LOAD      ACCESS:    8619218  HIT:    7993806  MISS:     625412
cpu0_DTLB RFO       ACCESS:    2359689  HIT:    2358960  MISS:        729
cpu0_DTLB PREFETCH  ACCESS:          0  HIT:          0  MISS:          0
cpu0_DTLB WRITEBACK ACCESS:          0  HIT:          0  MISS:          0
cpu0_ITLB TOTAL     ACCESS:    6429370  HIT:    6429370  MISS:          0
cpu0_ITLB LOAD      ACCESS:    6429370  HIT:    6429370  MISS:          0
cpu0_ITLB RFO       ACCESS:          0  HIT:          0  MISS:          0
cpu0_ITLB PREFETCH  ACCESS:          0  HIT:          0  MISS:          0
cpu0_ITLB WRITEBACK ACCESS:          0  HIT:          0  MISS:          0
cpu0_L1I TOTAL     ACCESS:      19697  HIT:      19697  MISS:          0
cpu0_L1I LOAD      ACCESS:      19697  HIT:      19697  MISS:          0
cpu0_L1I RFO       ACCESS:          0  HIT:          0  MISS:          0
cpu0_L1I PREFETCH  ACCESS:          0  HIT:          0  MISS:          0
cpu0_L1I WRITEBACK ACCESS:          0  HIT:          0  MISS:          0
cpu0_STLB TOTAL     ACCESS:     626141  HIT:     336680  MISS:     289461
cpu0_STLB LOAD      ACCESS:     625412  HIT:     335991  MISS:     289421
cpu0_STLB RFO       ACCESS:        729  HIT:        689  MISS:         40
cpu0_STLB PREFETCH  ACCESS:          0  HIT:          0  MISS:          0
cpu0_STLB WRITEBACK ACCESS:          0  HIT:          0  MISS:          0
cpu0_L1D TOTAL     ACCESS:   14918452  HIT:   13535793  MISS:    1382659
cpu0_L1D LOAD      ACCESS:   10618173  HIT:    9256862  MISS:    1361311
cpu0_L1D RFO       ACCESS:    4015372  HIT:    4004588  MISS:      10784
cpu0_L1D PREFETCH  ACCESS:          0  HIT:          0  MISS:          0
cpu0_L1D WRITEBACK ACCESS:          0  HIT:          0  MISS:          0
cpu0_L2C TOTAL     ACCESS:    1474984  HIT:     149911  MISS:    1325073
cpu0_L2C LOAD      ACCESS:    1361307  HIT:      76203  MISS:    1285104
cpu0_L2C RFO       ACCESS:      10784  HIT:       3710  MISS:       7074
cpu0_L2C PREFETCH  ACCESS:          0  HIT:          0  MISS:          0
cpu0_L2C WRITEBACK ACCESS:      92329  HIT:      69094  MISS:      23235
LLC TOTAL     ACCESS:    1387427  HIT:    1094974  MISS:     292453
LLC LOAD      ACCESS:    1285101  HIT:     992983  MISS:     292118
LLC RFO       ACCESS:       7074  HIT:       6789  MISS:        285
LLC PREFETCH  ACCESS:          0  HIT:          0  MISS:          0
LLC WRITEBACK ACCESS:      85592  HIT:      85582  MISS:         10
Heartbeat CPU 0 instructions: 92000003 cycles: 89500672 heartbeat IPC: 0.798051 cumulative IPC: 0.562323 (Simulation time: 1 hr 7 min 13 sec) 

Region of Interest Statistics
cpu0_DTLB TOTAL     ACCESS:   11517791  HIT:   10869093  MISS:     648698
cpu0_DTLB LOAD      ACCESS:    9043503  HIT:    8395554  MISS:     647949
cpu0_DTLB RFO       ACCESS:    2474288  HIT:    2473539  MISS:        749
cpu0_DTLB PREFETCH  ACCESS:          0  HIT:          0  MISS:          0
cpu0_DTLB WRITEBACK ACCESS:          0  HIT:          0  MISS:          0
cpu0_ITLB TOTAL     ACCESS:    6747795  HIT:    6747795  MISS:          0
cpu0_ITLB LOAD      ACCESS:    6747795  HIT:    6747795  MISS:          0
cpu0_ITLB RFO       ACCESS:          0  HIT:          0  MISS:          0
cpu0_ITLB PREFETCH  ACCESS:          0  HIT:          0  MISS:          0
cpu0_ITLB WRITEBACK ACCESS:          0  HIT:          0  MISS:          0
cpu0_L1I TOTAL     ACCESS:      20513  HIT:      20513  MISS:          0
cpu0_L1I LOAD      ACCESS:      20513  HIT:      20513  MISS:          0
cpu0_L1I RFO       ACCESS:          0  HIT:          0  MISS:          0
cpu0_L1I PREFETCH  ACCESS:          0  HIT:          0  MISS:          0
cpu0_L1I WRITEBACK ACCESS:          0  HIT:          0  MISS:          0
cpu0_STLB TOTAL     ACCESS:     648698  HIT:     348441  MISS:     300257
cpu0_STLB LOAD      ACCESS:     647949  HIT:     347735  MISS:     300214
cpu0_STLB RFO       ACCESS:        749  HIT:        706  MISS:         43
cpu0_STLB PREFETCH  ACCESS:          0  HIT:          0  MISS:          0
cpu0_STLB WRITEBACK ACCESS:          0  HIT:          0  MISS:          0
cpu0_L1D TOTAL     ACCESS:   15649005  HIT:   14199086  MISS:    1449919
cpu0_L1D LOAD      ACCESS:   11140490  HIT:    9712733  MISS:    1427757
cpu0_L1D RFO       ACCESS:    4212985  HIT:    4201717  MISS:      11268
cpu0_L1D PREFETCH  ACCESS:          0  HIT:          0  MISS:          0
cpu0_L1D WRITEBACK ACCESS:          0  HIT:          0  MISS:          0
cpu0_L2C TOTAL     ACCESS:    1546776  HIT:     156892  MISS:    1389884
cpu0_L2C LOAD      ACCESS:    1427753  HIT:      79646  MISS:    1348107
cpu0_L2C RFO       ACCESS:      11268  HIT:       3890  MISS:       7378
cpu0_L2C PREFETCH  ACCESS:          0  HIT:          0  MISS:          0
cpu0_L2C WRITEBACK ACCESS:      96861  HIT:      72422  MISS:      24439
LLC TOTAL     ACCESS:    1455226  HIT:    1158852  MISS:     296374
LLC LOAD      ACCESS:    1348104  HIT:    1052068  MISS:     296036
LLC RFO       ACCESS:       7378  HIT:       7090  MISS:        288
LLC PREFETCH  ACCESS:          0  HIT:          0  MISS:          0
LLC WRITEBACK ACCESS:      89784  HIT:      89774  MISS:         10
Heartbeat CPU 0 instructions: 94000001 cycles: 91825300 heartbeat IPC: 0.860352 cumulative IPC: 0.571319 (Simulation time: 1 hr 8 min 21 sec) 

Region of Interest Statistics
cpu0_DTLB TOTAL     ACCESS:   12054172  HIT:   11379103  MISS:     675069
cpu0_DTLB LOAD      ACCESS:    9462360  HIT:    8788081  MISS:     674279
cpu0_DTLB RFO       ACCESS:    2591812  HIT:    2591022  MISS:        790
cpu0_DTLB PREFETCH  ACCESS:          0  HIT:          0  MISS:          0
cpu0_DTLB WRITEBACK ACCESS:          0  HIT:          0  MISS:          0
cpu0_ITLB TOTAL     ACCESS:    7065260  HIT:    7065260  MISS:          0
cpu0_ITLB LOAD      ACCESS:    7065260  HIT:    7065260  MISS:          0
cpu0_ITLB RFO       ACCESS:          0  HIT:          0  MISS:          0
cpu0_ITLB PREFETCH  ACCESS:          0  HIT:          0  MISS:          0
cpu0_ITLB WRITEBACK ACCESS:          0  HIT:          0  MISS:          0
cpu0_L1I TOTAL     ACCESS:      20981  HIT:      20981  MISS:          0
cpu0_L1I LOAD      ACCESS:      20981  HIT:      20981  MISS:          0
cpu0_L1I RFO       ACCESS:          0  HIT:          0  MISS:          0
cpu0_L1I PREFETCH  ACCESS:          0  HIT:          0  MISS:          0
cpu0_L1I WRITEBACK ACCESS:          0  HIT:          0  MISS:          0
cpu0_STLB TOTAL     ACCESS:     675069  HIT:     364312  MISS:     310757
cpu0_STLB LOAD      ACCESS:     674279  HIT:     363566  MISS:     310713
cpu0_STLB RFO       ACCESS:        790  HIT:        746  MISS:         44
cpu0_STLB PREFETCH  ACCESS:          0  HIT:          0  MISS:          0
cpu0_STLB WRITEBACK ACCESS:          0  HIT:          0  MISS:          0
cpu0_L1D TOTAL     ACCESS:   16388042  HIT:   14880661  MISS:    1507381
cpu0_L1D LOAD      ACCESS:   11659735  HIT:   10175280  MISS:    1484455
cpu0_L1D RFO       ACCESS:    4422404  HIT:    4410561  MISS:      11843
cpu0_L1D PREFETCH  ACCESS:          0  HIT:          0  MISS:          0
cpu0_L1D WRITEBACK ACCESS:          0  HIT:          0  MISS:          0
cpu0_L2C TOTAL     ACCESS:    1608325  HIT:     164064  MISS:    1444261
cpu0_L2C LOAD      ACCESS:    1484451  HIT:      83441  MISS:    1401010
cpu0_L2C RFO       ACCESS:      11843  HIT:       4153  MISS:       7690
cpu0_L2C PREFETCH  ACCESS:          0  HIT:          0  MISS:          0
cpu0_L2C WRITEBACK ACCESS:     100948  HIT:      75527  MISS:      25421
LLC TOTAL     ACCESS:    1512272  HIT:    1215791  MISS:     296481
LLC LOAD      ACCESS:    1401006  HIT:    1104863  MISS:     296143
LLC RFO       ACCESS:       7690  HIT:       7402  MISS:        288
LLC PREFETCH  ACCESS:          0  HIT:          0  MISS:          0
LLC WRITEBACK ACCESS:      93436  HIT:      93426  MISS:         10
Heartbeat CPU 0 instructions: 96000000 cycles: 94020734 heartbeat IPC: 0.910981 cumulative IPC: 0.580733 (Simulation time: 1 hr 9 min 26 sec) 

Region of Interest Statistics
cpu0_DTLB TOTAL     ACCESS:   12587667  HIT:   11888137  MISS:     699530
cpu0_DTLB LOAD      ACCESS:    9877982  HIT:    9179274  MISS:     698708
cpu0_DTLB RFO       ACCESS:    2709685  HIT:    2708863  MISS:        822
cpu0_DTLB PREFETCH  ACCESS:          0  HIT:          0  MISS:          0
cpu0_DTLB WRITEBACK ACCESS:          0  HIT:          0  MISS:          0
cpu0_ITLB TOTAL     ACCESS:    7382897  HIT:    7382897  MISS:          0
cpu0_ITLB LOAD      ACCESS:    7382897  HIT:    7382897  MISS:          0
cpu0_ITLB RFO       ACCESS:          0  HIT:          0  MISS:          0
cpu0_ITLB PREFETCH  ACCESS:          0  HIT:          0  MISS:          0
cpu0_ITLB WRITEBACK ACCESS:          0  HIT:          0  MISS:          0
cpu0_L1I TOTAL     ACCESS:      21648  HIT:      21648  MISS:          0
cpu0_L1I LOAD      ACCESS:      21648  HIT:      21648  MISS:          0
cpu0_L1I RFO       ACCESS:          0  HIT:          0  MISS:          0
cpu0_L1I PREFETCH  ACCESS:          0  HIT:          0  MISS:          0
cpu0_L1I WRITEBACK ACCESS:          0  HIT:          0  MISS:          0
cpu0_STLB TOTAL     ACCESS:     699530  HIT:     380264  MISS:     319266
cpu0_STLB LOAD      ACCESS:     698708  HIT:     379487  MISS:     319221
cpu0_STLB RFO       ACCESS:        822  HIT:        777  MISS:         45
cpu0_STLB PREFETCH  ACCESS:          0  HIT:          0  MISS:          0
cpu0_STLB WRITEBACK ACCESS:          0  HIT:          0  MISS:          0
cpu0_L1D TOTAL     ACCESS:   17118385  HIT:   15556382  MISS:    1562003
cpu0_L1D LOAD      ACCESS:   12173203  HIT:   10634844  MISS:    1538359
cpu0_L1D RFO       ACCESS:    4631017  HIT:    4618586  MISS:      12431
cpu0_L1D PREFETCH  ACCESS:          0  HIT:          0  MISS:          0
cpu0_L1D WRITEBACK ACCESS:          0  HIT:          0  MISS:          0
cpu0_L2C TOTAL     ACCESS:    1666838  HIT:     171227  MISS:    1495611
cpu0_L2C LOAD      ACCESS:    1538355  HIT:      87541  MISS:    1450814
cpu0_L2C RFO       ACCESS:      12431  HIT:       4401  MISS:       8030
cpu0_L2C PREFETCH  ACCESS:          0  HIT:          0  MISS:          0
cpu0_L2C WRITEBACK ACCESS:     104839  HIT:      78336  MISS:      26503
LLC TOTAL     ACCESS:    1566018  HIT:    1269531  MISS:     296487
LLC LOAD      ACCESS:    1450810  HIT:    1154661  MISS:     296149
LLC RFO       ACCESS:       8030  HIT:       7742  MISS:        288
LLC PREFETCH  ACCESS:          0  HIT:          0  MISS:          0
LLC WRITEBACK ACCESS:      96914  HIT:      96904  MISS:         10
Heartbeat CPU 0 instructions: 98000003 cycles: 96062912 heartbeat IPC: 0.979348 cumulative IPC: 0.590752 (Simulation time: 1 hr 10 min 27 sec) 

Region of Interest Statistics
cpu0_DTLB TOTAL     ACCESS:   13108866  HIT:   12384779  MISS:     724087
cpu0_DTLB LOAD      ACCESS:   10282976  HIT:    9559756  MISS:     723220
cpu0_DTLB RFO       ACCESS:    2825890  HIT:    2825023  MISS:        867
cpu0_DTLB PREFETCH  ACCESS:          0  HIT:          0  MISS:          0
cpu0_DTLB WRITEBACK ACCESS:          0  HIT:          0  MISS:          0
cpu0_ITLB TOTAL     ACCESS:    7696146  HIT:    7696146  MISS:          0
cpu0_ITLB LOAD      ACCESS:    7696146  HIT:    7696146  MISS:          0
cpu0_ITLB RFO       ACCESS:          0  HIT:          0  MISS:          0
cpu0_ITLB PREFETCH  ACCESS:          0  HIT:          0  MISS:          0
cpu0_ITLB WRITEBACK ACCESS:          0  HIT:          0  MISS:          0
cpu0_L1I TOTAL     ACCESS:      22191  HIT:      22191  MISS:          0
cpu0_L1I LOAD      ACCESS:      22191  HIT:      22191  MISS:          0
cpu0_L1I RFO       ACCESS:          0  HIT:          0  MISS:          0
cpu0_L1I PREFETCH  ACCESS:          0  HIT:          0  MISS:          0
cpu0_L1I WRITEBACK ACCESS:          0  HIT:          0  MISS:          0
cpu0_STLB TOTAL     ACCESS:     724087  HIT:     400882  MISS:     323205
cpu0_STLB LOAD      ACCESS:     723220  HIT:     400062  MISS:     323158
cpu0_STLB RFO       ACCESS:        867  HIT:        820  MISS:         47
cpu0_STLB PREFETCH  ACCESS:          0  HIT:          0  MISS:          0
cpu0_STLB WRITEBACK ACCESS:          0  HIT:          0  MISS:          0
cpu0_L1D TOTAL     ACCESS:   17837512  HIT:   16234350  MISS:    1603162
cpu0_L1D LOAD      ACCESS:   12672459  HIT:   11093679  MISS:    1578780
cpu0_L1D RFO       ACCESS:    4847089  HIT:    4833994  MISS:      13095
cpu0_L1D PREFETCH  ACCESS:          0  HIT:          0  MISS:          0
cpu0_L1D WRITEBACK ACCESS:          0  HIT:          0  MISS:          0
cpu0_L2C TOTAL     ACCESS:    1711070  HIT:     178531  MISS:    1532539
cpu0_L2C LOAD      ACCESS:    1578776  HIT:      92539  MISS:    1486237
cpu0_L2C RFO       ACCESS:      13095  HIT:       4595  MISS:       8500
cpu0_L2C PREFETCH  ACCESS:          0  HIT:          0  MISS:          0
cpu0_L2C WRITEBACK ACCESS:     107912  HIT:      80443  MISS:      27469
LLC TOTAL     ACCESS:    1604679  HIT:    1308192  MISS:     296487
LLC LOAD      ACCESS:    1486233  HIT:    1190084  MISS:     296149
LLC RFO       ACCESS:       8500  HIT:       8212  MISS:        288
LLC PREFETCH  ACCESS:          0  HIT:          0  MISS:          0
LLC WRITEBACK ACCESS:      99613  HIT:      99603  MISS:         10
Heartbeat CPU 0 instructions: 100000004 cycles: 99196061 heartbeat IPC: 0.638336 cumulative IPC: 0.592519 (Simulation time: 1 hr 11 min 43 sec) 

Region of Interest Statistics
cpu0_DTLB TOTAL     ACCESS:   13643021  HIT:   12889761  MISS:     753260
cpu0_DTLB LOAD      ACCESS:   10697875  HIT:    9945513  MISS:     752362
cpu0_DTLB RFO       ACCESS:    2945146  HIT:    2944248  MISS:        898
cpu0_DTLB PREFETCH  ACCESS:          0  HIT:          0  MISS:          0
cpu0_DTLB WRITEBACK ACCESS:          0  HIT:          0  MISS:          0
cpu0_ITLB TOTAL     ACCESS:    8016009  HIT:    8016009  MISS:          0
cpu0_ITLB LOAD      ACCESS:    8016009  HIT:    8016009  MISS:          0
cpu0_ITLB RFO       ACCESS:          0  HIT:          0  MISS:          0
cpu0_ITLB PREFETCH  ACCESS:          0  HIT:          0  MISS:          0
cpu0_ITLB WRITEBACK ACCESS:          0  HIT:          0  MISS:          0
cpu0_L1I TOTAL     ACCESS:      22739  HIT:      22739  MISS:          0
cpu0_L1I LOAD      ACCESS:      22739  HIT:      22739  MISS:          0
cpu0_L1I RFO       ACCESS:          0  HIT:          0  MISS:          0
cpu0_L1I PREFETCH  ACCESS:          0  HIT:          0  MISS:          0
cpu0_L1I WRITEBACK ACCESS:          0  HIT:          0  MISS:          0
cpu0_STLB TOTAL     ACCESS:     753260  HIT:     419966  MISS:     333294
cpu0_STLB LOAD      ACCESS:     752362  HIT:     419117  MISS:     333245
cpu0_STLB RFO       ACCESS:        898  HIT:        849  MISS:         49
cpu0_STLB PREFETCH  ACCESS:          0  HIT:          0  MISS:          0
cpu0_STLB WRITEBACK ACCESS:          0  HIT:          0  MISS:          0
cpu0_L1D TOTAL     ACCESS:   18575378  HIT:   16928142  MISS:    1647236
cpu0_L1D LOAD      ACCESS:   13183488  HIT:   11561898  MISS:    1621590
cpu0_L1D RFO       ACCESS:    5063990  HIT:    5050250  MISS:      13740
cpu0_L1D PREFETCH  ACCESS:          0  HIT:          0  MISS:          0
cpu0_L1D WRITEBACK ACCESS:          0  HIT:          0  MISS:          0
cpu0_L2C TOTAL     ACCESS:    1758743  HIT:     185966  MISS:    1572777
cpu0_L2C LOAD      ACCESS:    1621586  HIT:      97076  MISS:    1524510
cpu0_L2C RFO       ACCESS:      13740  HIT:       4855  MISS:       8885
cpu0_L2C PREFETCH  ACCESS:          0  HIT:          0  MISS:          0
cpu0_L2C WRITEBACK ACCESS:     111511  HIT:      83031  MISS:      28480
LLC TOTAL     ACCESS:    1647054  HIT:    1343176  MISS:     303878
LLC LOAD      ACCESS:    1524506  HIT:    1220975  MISS:     303531
LLC RFO       ACCESS:       8885  HIT:       8594  MISS:        291
LLC PREFETCH  ACCESS:          0  HIT:          0  MISS:          0
LLC WRITEBACK ACCESS:     102761  HIT:     102751  MISS:         10
Heartbeat CPU 0 instructions: 102000003 cycles: 115923280 heartbeat IPC: 0.119566 cumulative IPC: 0.514277 (Simulation time: 1 hr 15 min 13 sec) 

Region of Interest Statistics
cpu0_DTLB TOTAL     ACCESS:   14318362  HIT:   13506032  MISS:     812330
cpu0_DTLB LOAD      ACCESS:   11232865  HIT:   10421433  MISS:     811432
cpu0_DTLB RFO       ACCESS:    3085497  HIT:    3084599  MISS:        898
cpu0_DTLB PREFETCH  ACCESS:          0  HIT:          0  MISS:          0
cpu0_DTLB WRITEBACK ACCESS:          0  HIT:          0  MISS:          0
cpu0_ITLB TOTAL     ACCESS:    8379341  HIT:    8379341  MISS:          0
cpu0_ITLB LOAD      ACCESS:    8379341  HIT:    8379341  MISS:          0
cpu0_ITLB RFO       ACCESS:          0  HIT:          0  MISS:          0
cpu0_ITLB PREFETCH  ACCESS:          0  HIT:          0  MISS:          0
cpu0_ITLB WRITEBACK ACCESS:          0  HIT:          0  MISS:          0
cpu0_L1I TOTAL     ACCESS:      22915  HIT:      22915  MISS:          0
cpu0_L1I LOAD      ACCESS:      22915  HIT:      22915  MISS:          0
cpu0_L1I RFO       ACCESS:          0  HIT:          0  MISS:          0
cpu0_L1I PREFETCH  ACCESS:          0  HIT:          0  MISS:          0
cpu0_L1I WRITEBACK ACCESS:          0  HIT:          0  MISS:          0
cpu0_STLB TOTAL     ACCESS:     812330  HIT:     428765  MISS:     383565
cpu0_STLB LOAD      ACCESS:     811432  HIT:     427916  MISS:     383516
cpu0_STLB RFO       ACCESS:        898  HIT:        849  MISS:         49
cpu0_STLB PREFETCH  ACCESS:          0  HIT:          0  MISS:          0
cpu0_STLB WRITEBACK ACCESS:          0  HIT:          0  MISS:          0
cpu0_L1D TOTAL     ACCESS:   19440938  HIT:   17669745  MISS:    1771193
cpu0_L1D LOAD      ACCESS:   13816930  HIT:   12073164  MISS:    1743766
cpu0_L1D RFO       ACCESS:    5246037  HIT:    5232290  MISS:      13747
cpu0_L1D PREFETCH  ACCESS:          0  HIT:          0  MISS:          0
cpu0_L1D WRITEBACK ACCESS:          0  HIT:          0  MISS:          0
cpu0_L2C TOTAL     ACCESS:    1891939  HIT:     193940  MISS:    1697999
cpu0_L2C LOAD      ACCESS:    1743762  HIT:      97214  MISS:    1646548
cpu0_L2C RFO       ACCESS:      13747  HIT:       4855  MISS:       8892
cpu0_L2C PREFETCH  ACCESS:          0  HIT:          0  MISS:          0
cpu0_L2C WRITEBACK ACCESS:     120750  HIT:      90723  MISS:      30027
LLC TOTAL     ACCESS:    1779971  HIT:    1366510  MISS:     413461
LLC LOAD      ACCESS:    1646544  HIT:    1233453  MISS:     413091
LLC RFO       ACCESS:       8892  HIT:       8594  MISS:        298
LLC PREFETCH  ACCESS:          0  HIT:          0  MISS:          0
LLC WRITEBACK ACCESS:     112003  HIT:     111989  MISS:         14
Heartbeat CPU 0 instructions: 104000004 cycles: 120041739 heartbeat IPC: 0.485619 cumulative IPC: 0.513156 (Simulation time: 1 hr 17 min 1 sec) 

Region of Interest Statistics
cpu0_DTLB TOTAL     ACCESS:   14875672  HIT:   14025891  MISS:     849781
cpu0_DTLB LOAD      ACCESS:   11680749  HIT:   10831888  MISS:     848861
cpu0_DTLB RFO       ACCESS:    3194923  HIT:    3194003  MISS:        920
cpu0_DTLB PREFETCH  ACCESS:          0  HIT:          0  MISS:          0
cpu0_DTLB WRITEBACK ACCESS:          0  HIT:          0  MISS:          0
cpu0_ITLB TOTAL     ACCESS:    8699650  HIT:    8699650  MISS:          0
cpu0_ITLB LOAD      ACCESS:    8699650  HIT:    8699650  MISS:          0
cpu0_ITLB RFO       ACCESS:          0  HIT:          0  MISS:          0
cpu0_ITLB PREFETCH  ACCESS:          0  HIT:          0  MISS:          0
cpu0_ITLB WRITEBACK ACCESS:          0  HIT:          0  MISS:          0
cpu0_L1I TOTAL     ACCESS:      25150  HIT:      25150  MISS:          0
cpu0_L1I LOAD      ACCESS:      25150  HIT:      25150  MISS:          0
cpu0_L1I RFO       ACCESS:          0  HIT:          0  MISS:          0
cpu0_L1I PREFETCH  ACCESS:          0  HIT:          0  MISS:          0
cpu0_L1I WRITEBACK ACCESS:          0  HIT:          0  MISS:          0
cpu0_STLB TOTAL     ACCESS:     849781  HIT:     441677  MISS:     408104
cpu0_STLB LOAD      ACCESS:     848861  HIT:     440809  MISS:     408052
cpu0_STLB RFO       ACCESS:        920  HIT:        868  MISS:         52
cpu0_STLB PREFETCH  ACCESS:          0  HIT:          0  MISS:          0
cpu0_STLB WRITEBACK ACCESS:          0  HIT:          0  MISS:          0
cpu0_L1D TOTAL     ACCESS:   20183153  HIT:   18309777  MISS:    1873376
cpu0_L1D LOAD      ACCESS:   14359228  HIT:   12515182  MISS:    1844046
cpu0_L1D RFO       ACCESS:    5421730  HIT:    5407606  MISS:      14124
cpu0_L1D PREFETCH  ACCESS:          0  HIT:          0  MISS:          0
cpu0_L1D WRITEBACK ACCESS:          0  HIT:          0  MISS:          0
cpu0_L2C TOTAL     ACCESS:    1999967  HIT:     201400  MISS:    1798567
cpu0_L2C LOAD      ACCESS:    1844042  HIT:      99802  MISS:    1744240
cpu0_L2C RFO       ACCESS:      14124  HIT:       4949  MISS:       9175
cpu0_L2C PREFETCH  ACCESS:          0  HIT:          0  MISS:          0
cpu0_L2C WRITEBACK ACCESS:     126595  HIT:      95347  MISS:      31248
LLC TOTAL     ACCESS:    1884936  HIT:    1444002  MISS:     440934
LLC LOAD      ACCESS:    1744236  HIT:    1303756  MISS:     440480
LLC RFO       ACCESS:       9175  HIT:       8799  MISS:        376
LLC PREFETCH  ACCESS:          0  HIT:          0  MISS:          0
LLC WRITEBACK ACCESS:     117621  HIT:     117604  MISS:         17
Heartbeat CPU 0 instructions: 106000001 cycles: 122203034 heartbeat IPC: 0.92537 cumulative IPC: 0.521452 (Simulation time: 1 hr 18 min 6 sec) 

Region of Interest Statistics
cpu0_DTLB TOTAL     ACCESS:   15393422  HIT:   14518440  MISS:     874982
cpu0_DTLB LOAD      ACCESS:   12083597  HIT:   11209564  MISS:     874033
cpu0_DTLB RFO       ACCESS:    3309825  HIT:    3308876  MISS:        949
cpu0_DTLB PREFETCH  ACCESS:          0  HIT:          0  MISS:          0
cpu0_DTLB WRITEBACK ACCESS:          0  HIT:          0  MISS:          0
cpu0_ITLB TOTAL     ACCESS:    9010376  HIT:    9010376  MISS:          0
cpu0_ITLB LOAD      ACCESS:    9010376  HIT:    9010376  MISS:          0
cpu0_ITLB RFO       ACCESS:          0  HIT:          0  MISS:          0
cpu0_ITLB PREFETCH  ACCESS:          0  HIT:          0  MISS:          0
cpu0_ITLB WRITEBACK ACCESS:          0  HIT:          0  MISS:          0
cpu0_L1I TOTAL     ACCESS:      26005  HIT:      26005  MISS:          0
cpu0_L1I LOAD      ACCESS:      26005  HIT:      26005  MISS:          0
cpu0_L1I RFO       ACCESS:          0  HIT:          0  MISS:          0
cpu0_L1I PREFETCH  ACCESS:          0  HIT:          0  MISS:          0
cpu0_L1I WRITEBACK ACCESS:          0  HIT:          0  MISS:          0
cpu0_STLB TOTAL     ACCESS:     874982  HIT:     459806  MISS:     415176
cpu0_STLB LOAD      ACCESS:     874033  HIT:     458911  MISS:     415122
cpu0_STLB RFO       ACCESS:        949  HIT:        895  MISS:         54
cpu0_STLB PREFETCH  ACCESS:          0  HIT:          0  MISS:          0
cpu0_STLB WRITEBACK ACCESS:          0  HIT:          0  MISS:          0
cpu0_L1D TOTAL     ACCESS:   20909756  HIT:   18993218  MISS:    1916538
cpu0_L1D LOAD      ACCESS:   14863474  HIT:   12977307  MISS:    1886167
cpu0_L1D RFO       ACCESS:    5637112  HIT:    5622249  MISS:      14863
cpu0_L1D PREFETCH  ACCESS:          0  HIT:          0  MISS:          0
cpu0_L1D WRITEBACK ACCESS:          0  HIT:          0  MISS:          0
cpu0_L2C TOTAL     ACCESS:    2046268  HIT:     209102  MISS:    1837166
cpu0_L2C LOAD      ACCESS:    1886163  HIT:     105067  MISS:    1781096
cpu0_L2C RFO       ACCESS:      14863  HIT:       5221  MISS:       9642
cpu0_L2C PREFETCH  ACCESS:          0  HIT:          0  MISS:          0
[...]
cpu0_STLB PREFETCH  ACCESS:          0  HIT:          0  MISS:          0
cpu0_STLB WRITEBACK ACCESS:          0  HIT:          0  MISS:          0
cpu0_STLB TRANSLATION ACCESS:          0  HIT:          0  MISS:          0
cpu0_STLB PREFETCH  REQUESTED:          0  ISSUED:          0  USEFUL:          0  USELESS:          0
cpu0_STLB AVERAGE MISS LATENCY: 14.2688 cycles
cpu0_L1D TOTAL     ACCESS:  568687083  HIT:  511924314  MISS:   56762769
cpu0_L1D LOAD      ACCESS:  410289041  HIT:  354382596  MISS:   55906445
cpu0_L1D RFO       ACCESS:  148488328  HIT:  148173751  MISS:     314577
cpu0_L1D PREFETCH  ACCESS:          0  HIT:          0  MISS:          0
cpu0_L1D WRITEBACK ACCESS:          0  HIT:          0  MISS:          0
cpu0_L1D TRANSLATION ACCESS:    9909714  HIT:    9367967  MISS:     541747
cpu0_L1D PREFETCH  REQUESTED:          0  ISSUED:          0  USEFUL:          0  USELESS:          0
cpu0_L1D AVERAGE MISS LATENCY: 134.069 cycles
cpu0_L2C TOTAL     ACCESS:   60930894  HIT:    5542567  MISS:   55388327
cpu0_L2C LOAD      ACCESS:   55906375  HIT:    2208034  MISS:   53698341
cpu0_L2C RFO       ACCESS:     314574  HIT:     104914  MISS:     209660
cpu0_L2C PREFETCH  ACCESS:          0  HIT:          0  MISS:          0
cpu0_L2C WRITEBACK ACCESS:    4168198  HIT:    3173648  MISS:     994550
cpu0_L2C TRANSLATION ACCESS:     541747  HIT:      55971  MISS:     485776
cpu0_L2C PREFETCH  REQUESTED:          0  ISSUED:          0  USEFUL:          0  USELESS:          0
cpu0_L2C AVERAGE MISS LATENCY: 125.87 cycles
LLC TOTAL     ACCESS:   58366943  HIT:   32494030  MISS:   25872913
LLC LOAD      ACCESS:   53698271  HIT:   27836285  MISS:   25861986
LLC RFO       ACCESS:     209656  HIT:     202923  MISS:       6733
LLC PREFETCH  ACCESS:          0  HIT:          0  MISS:          0
LLC WRITEBACK ACCESS:    3973240  HIT:    3972807  MISS:        433
LLC TRANSLATION ACCESS:     485776  HIT:     482015  MISS:       3761
LLC PREFETCH  REQUESTED:          0  ISSUED:          0  USEFUL:          0  USELESS:          0
LLC AVERAGE MISS LATENCY: 225.312 cycles
~~~~~~~~~~Reuse Distance Profiler output~~~~~~~~~~
0	30097568	13259264
1	49124640	32734256
2	47815728	33151360
3	54195376	36308128
4	36733472	23433776
5	26167712	18100352
6	20434656	15206992
7	21860864	15890160
8	21897328	13792800
9	16447184	11395488
10	15799920	10922400
11	13015600	9878928
12	11417024	7695680
13	11230768	7828720
14	9515392	6663248
15	8806688	6247040
16	8602320	6190864
17	7749408	5626832
18	6771920	5112976
19	6207008	4546560
20	5289632	4119616
21	4727536	3634480
22	4449648	3434752
23	3818800	3061168
24	3378640	2786336
25	3008880	2469696
26	2731616	2243120
27	2617856	2204672
28	2369184	1969728
29	2009712	1669648
30	1867136	1565280
31	1620544	1368480
32	1488016	1266768
33	1292528	1082304
34	1219664	1023856
35	1101680	947360
36	1023776	902128
37	940416	810000
38	860224	706000
39	769168	644736
40	726896	605248
41	604608	537904
42	579600	518112
43	552608	497664
44	546432	493600
45	582672	502944
46	489968	440384
47	441232	392384
48	398960	352880
49	377536	341008
50	364176	321264
51	345584	302208
52	321968	290208
53	293600	269904
54	289120	264768
55	267744	243440
56	242160	217856
57	228944	210976
58	216672	203424
59	202832	190000
60	208624	196576
61	186976	175232
62	179360	167520
63	177568	165584
64	335872	316432
66	298032	282560
68	268944	255472
70	261408	246288
72	243568	229824
74	216416	201952
76	202176	189296
78	194752	180624
80	184064	171376
82	173008	160864
84	165936	153824
86	161440	148528
88	155744	144992
90	146176	136176
92	140416	129728
94	135904	126880
96	140576	131776
98	131264	123392
100	122832	113888
102	125600	114688
104	126016	114640
106	127488	115648
108	120272	106160
110	117376	103872
112	113280	100704
114	113952	102112
116	110704	100176
118	106192	96816
120	108176	99520
122	105360	97248
124	106560	98784
126	110560	102576
128	216848	200736
132	222448	203664
136	219120	197824
140	216336	191360
144	218704	189920
148	212960	183840
152	209360	182672
156	211600	185168
160	212032	184496
164	210640	183728
168	202160	175280
172	202112	176928
176	199728	173168
180	194912	169120
184	195200	170704
188	191696	166240
192	187872	162400
196	188000	162480
200	184720	160064
204	182224	158496
208	180352	156304
212	174400	152992
216	174128	152672
220	169840	148560
224	168944	148384
228	164864	143888
232	163648	143408
236	160304	140400
240	155280	136400
244	156720	137264
248	153184	134256
252	150992	132544
256	292160	257440
264	282544	249008
272	274880	242496
280	269392	237008
288	259056	226864
296	251328	218832
304	250608	218832
312	240784	210400
320	231280	202032
328	226320	196608
336	220112	192000
344	213136	185632
352	208304	182896
360	202848	180400
368	194784	172560
376	193072	170480
384	187184	164000
392	182128	160752
400	178976	158272
408	175216	154944
416	170208	150720
424	163040	144192
432	158880	141152
440	155296	138800
448	157104	140544
456	150304	133488
464	148176	132064
472	145776	131488
480	140896	126592
488	138832	125552
496	138240	124640
504	134176	121392
512	260048	234608
528	254960	228992
544	247792	222912
560	238688	211856
576	232880	207648
592	224112	198816
608	217248	192656
624	213488	187280
640	206560	181952
656	199776	174432
672	194784	171360
688	188544	164208
704	183744	160544
720	179728	156000
736	176080	153200
752	166192	145008
768	166448	145504
784	161760	140960
800	157136	137424
816	152656	133200
832	149520	130800
848	146448	128176
864	142688	125184
880	139584	122416
896	134880	118320
912	135664	119600
928	129792	114288
944	127344	111888
960	126048	111008
976	122208	108016
992	120704	106720
1008	118080	103872
1024	228480	202704
1056	223584	196464
1088	216352	190928
1120	213120	188032
1152	206560	182512
1184	199744	176736
1216	198256	175296
1248	189536	167968
1280	183328	162192
1312	180608	161040
1344	178320	158224
1376	172448	154304
1408	169840	152128
1440	166880	148688
1472	161440	145072
1504	156448	141168
1536	154192	138368
1568	154096	138592
1600	147472	132032
1632	144768	129664
1664	141664	127008
1696	140848	126752
1728	141200	127376
1760	134608	121072
1792	134576	121776
1824	132560	120608
1856	129936	117504
1888	128208	116368
1920	124368	112992
1952	121968	110976
1984	120528	109616
2016	119696	107920
2048	230096	209456
2112	225392	204128
2176	220416	200544
2240	210912	192688
2304	201344	183744
2368	196256	179440
2432	187664	171744
2496	184352	169216
2560	180528	165152
2624	174720	160352
2688	170256	156800
2752	168432	155232
2816	162640	150208
2880	159744	147728
2944	156288	144528
3008	147808	136832
3072	145792	134992
3136	144064	133408
3200	140448	129120
3264	141472	131184
3328	137296	126880
3392	136480	125760
3456	126672	117712
3520	125872	116688
3584	122672	114016
3648	120240	111440
3712	119888	111712
3776	117072	108896
3840	119152	111040
3904	117904	109712
3968	112784	105168
4032	108912	101808
4096	220416	206640
4224	210752	196960
4352	207936	196096
4480	199472	187248
4608	192672	180752
4736	190160	178736
4864	191744	181040
4992	178080	168160
5120	173184	163680
5248	168992	159520
5376	166752	157408
5504	161072	152784
5632	154912	147056
5760	155952	148016
5888	149392	140800
6016	145584	138144
6144	144336	137088
6272	140976	134016
6400	137280	129904
6528	134768	128784
6656	134752	128032
6784	129824	123744
6912	125328	119808
7040	125424	119008
7168	123072	117424
7296	122368	116320
7424	118736	112992
7552	118064	112496
7680	114640	109280
7808	110688	105792
7936	107248	102304
8064	108096	103568
8192	214112	205840
8448	204992	196976
8704	203104	194976
8960	199120	191072
9216	190096	182816
9472	180400	173712
9728	179232	171872
9984	174480	168128
10240	167200	161024
10496	162560	156736
10752	156352	150528
11008	157808	152784
11264	147008	141440
11520	145712	140208
11776	144528	139280
12032	136128	131632
12288	137008	132480
12544	137296	133152
12800	141120	136704
13056	134960	130912
13312	129744	125616
13568	127248	123600
13824	127744	123776
14080	122080	118688
14336	117808	114320
14592	114944	111552
14848	117632	114432
15104	114992	111328
15360	112112	108800
15616	111568	108128
15872	107040	104192
16128	105296	102512
16384	208560	203136
16896	204512	199296
17408	196640	191600
17920	194224	189408
18432	186064	181248
18944	181760	177728
19456	173792	169616
19968	171312	167472
20480	162608	158704
20992	161488	157344
21504	154576	151440
22016	151024	147584
22528	150704	147568
23040	145760	142304
23552	145408	142224
24064	142960	140432
24576	138960	136208
25088	134048	131328
25600	132560	129952
26112	132672	130224
26624	130176	127776
27136	127280	124912
27648	123392	121408
28160	122336	120112
28672	121792	119504
29184	119680	117776
29696	112848	111120
30208	111280	109376
30720	109824	107792
31232	114480	112880
31744	109744	108112
32256	106848	105312
32768	217776	214256
33792	209040	206320
34816	198528	195664
35840	194192	191280
36864	194592	192496
37888	173936	171568
38912	178400	175824
39936	171328	169408
40960	174944	172816
41984	167136	164928
43008	155712	153936
44032	165440	163440
45056	156176	154624
46080	149184	147248
47104	133408	131840
48128	133568	131888
49152	131776	130144
50176	128608	127280
51200	134944	133360
52224	123984	122784
53248	126064	124656
54272	122080	120752
55296	116544	115312
56320	122784	121728
57344	110000	108720
58368	104112	102912
59392	112528	111232
60416	114144	113120
61440	110128	109168
62464	108704	107504
63488	100928	99952
64512	103888	102848
65536	198400	196256
67584	199600	197936
69632	201616	199792
71680	182672	181024
73728	179152	177408
75776	177200	175888
77824	156928	155680
79872	160096	158736
81920	161792	160624
83968	152656	151616
86016	158800	157632
88064	145520	144160
90112	148864	147760
92160	167696	166736
94208	145680	144736
96256	138176	137264
98304	134304	133568
100352	127696	126912
102400	127088	126224
104448	137952	137152
106496	145392	144624
108544	127664	127088
110592	129344	128432
112640	114560	113760
114688	117760	117312
116736	112560	111744
118784	113728	113056
120832	119024	118368
122880	108432	107680
124928	94960	94192
126976	94720	94256
129024	98240	97664
131072	199360	198208
135168	180576	179728
139264	173776	172752
143360	173760	172832
147456	162656	161712
151552	176800	175968
155648	167712	166944
159744	186784	185904
163840	177008	176208
167936	178928	178176
172032	184336	183680
176128	167312	166496
180224	145744	145328
184320	149152	148448
188416	150864	150336
192512	146352	145792
196608	121008	120512
200704	121072	120704
204800	115648	115040
208896	134608	134320
212992	132208	131792
217088	126656	126336
221184	112576	112272
225280	121008	120544
229376	125824	125280
233472	110992	110592
237568	114384	113984
241664	107648	107232
245760	113152	112800
249856	119824	119472
253952	109584	109408
258048	95808	95552
262144	185264	184752
270336	173568	173168
278528	150080	149504
286720	169952	169440
294912	166912	166448
303104	183280	182848
311296	152928	152720
319488	138480	138240
327680	140896	140432
335872	179008	178480
344064	123696	123344
352256	124064	123696
360448	178928	178608
368640	171808	171456
376832	127152	126992
385024	139520	139152
393216	133008	132688
401408	134720	134496
409600	159008	158592
417792	130336	130080
425984	126528	126320
434176	114576	114352
442368	120352	119936
450560	107856	107648
458752	94272	93952
466944	94224	94096
475136	114784	114576
483328	98880	98656
491520	103248	103024
499712	92432	92288
507904	85328	85232
516096	90704	90608
524288	190304	190016
540672	196752	196416
557056	206816	206624
573440	164416	164288
589824	151680	151440
606208	169504	169200
622592	167216	166944
638976	119360	119104
655360	134784	134576
671744	136832	136528
688128	131680	131568
704512	130752	130624
720896	123808	123520
737280	126032	125792
753664	139776	139536
770048	159344	159216
786432	138944	138704
802816	153440	153312
819200	126256	126160
835584	125680	125520
851968	172896	172704
868352	158960	158848
884736	129456	129376
901120	118096	117936
917504	113728	113632
933888	103408	103344
950272	110192	110160
966656	108608	108496
983040	97072	97008
999424	72992	72944
1015808	80112	79936
1032192	77232	77168
1048576	173856	173680
1081344	151824	151632
1114112	150496	150304
1146880	158672	158560
1179648	152384	152208
1212416	180336	180288
1245184	142800	142640
1277952	120288	120160
1310720	136720	136624
1343488	125536	125344
1376256	109376	109200
1409024	118224	118128
1441792	125216	125152
1474560	160496	160416
1507328	130480	130368
1540096	92976	92912
1572864	121152	121040
1605632	108688	108576
1638400	97488	97344
1671168	98912	98800
1703936	85744	85664
1736704	80928	80896
1769472	107984	107920
1802240	119344	119248
1835008	120512	120464
1867776	167200	167152
1900544	130448	130416
1933312	106944	106912
1966080	163984	163968
1998848	136624	136560
2031616	142256	142144
2064384	111600	111520
2097152	163104	163008
2162688	165968	165936
2228224	146336	146288
2293760	171104	170976
2359296	136016	135936
2424832	139856	139840
2490368	123984	123920
2555904	76048	75968
2621440	78016	77968
2686976	68944	68864
2752512	73632	73600
2818048	102224	102176
2883584	85088	85008
2949120	88208	88144
3014656	107968	107920
3080192	120416	120416
3145728	142576	142528
3211264	136736	136672
3276800	140368	140288
3342336	90368	90320
3407872	64896	64848
3473408	102656	102624
3538944	106032	105936
3604480	64480	64432
3670016	91056	91008
3735552	81776	81696
3801088	116160	116096
3866624	57056	57008
3932160	86304	86272
3997696	92496	92480
4063232	61008	60992
4128768	61376	61312
4194304	141920	141856
4325376	123648	123600
4456448	95472	95440
4587520	107040	106944
4718592	94208	94176
4849664	104576	104576
4980736	266208	266160
5111808	189360	189344
5242880	82640	82560
5373952	109248	109200
5505024	35872	35792
5636096	54656	54592
5767168	41264	41264
5898240	79408	79376
6029312	55376	55344
6160384	59408	59376
6291456	59952	59952
6422528	34608	34608
6553600	47024	46992
6684672	57088	57072
6815744	41408	41408
6946816	58608	58592
7077888	52832	52816
7208960	85008	85008
7340032	66032	65936
7471104	79568	79536
7602176	28976	28928
7733248	29120	29072
7864320	56064	56064
7995392	63984	63984
8126464	49840	49840
8257536	46560	46544
8388608	48448	48416
8650752	71744	71696
8912896	69328	69312
9175040	135280	135248
9437184	88896	88816
9699328	164768	164720
9961472	344944	344944
10223616	141168	141120
10485760	78352	78320
10747904	80480	80464
11010048	91872	91872
11272192	117616	117616
11534336	54592	54576
11796480	43712	43712
12058624	64752	64736
12320768	166896	166896
12582912	171952	171936
12845056	115344	115344
13107200	80608	80592
13369344	105264	105248
13631488	112960	112944
13893632	89776	89776
14155776	70608	70608
14417920	75856	75856
14680064	103168	103168
14942208	119040	119024
15204352	114272	114256
15466496	112816	112800
15728640	100064	100048
15990784	136416	136368
16252928	127744	127744
16515072	79712	79712
16777216	102432	102432
17301504	47104	47088
17825792	92896	92896
18350080	131312	131312
18874368	136288	136272
19398656	146880	146880
19922944	127872	127872
20447232	185136	185136
20971520	88976	88976
21495808	96272	96272
22020096	186864	186864
22544384	117408	117408
23068672	94144	94144
23592960	56992	56992
24117248	42160	42160
24641536	54000	54000
25165824	66640	66640
25690112	82192	82192
26214400	76400	76400
26738688	65424	65424
27262976	50608	50608
27787264	49024	49024
28311552	58608	58608
28835840	61952	61952
29360128	57600	57600
29884416	55984	55984
30408704	70000	70000
30932992	51472	51472
31457280	62064	62064
31981568	72288	72288
32505856	54000	53984
33030144	23280	23280
33554432	29072	29072
34603008	38432	38432
35651584	66592	66592
36700160	74928	74928
37748736	80416	80416
38797312	200784	200784
39845888	137888	137888
40894464	103696	103680
41943040	11744	11728
42991616	23056	23056
44040192	34384	34384
45088768	61568	61568
46137344	231440	231440
47185920	43424	43424
48234496	183840	183840
49283072	182512	182512
50331648	42128	42128
51380224	38352	38352
52428800	72864	72864
53477376	82752	82752
54525952	2480	2480
55574528	4032	4032
56623104	2528	2528
57671680	1648	1648
58720256	3104	3104
59768832	2272	2272
60817408	2016	2016
61865984	2032	2032
62914560	1712	1712
63963136	3088	3072
65011712	2448	2432
66060288	2336	2320
67108864	4368	4368
69206016	4016	3984
71303168	3872	3872
73400320	4688	4672
75497472	2896	2896
77594624	3680	3680
79691776	5008	4992
81788928	3824	3824
83886080	5552	5552
85983232	4096	4080
88080384	3648	3648
90177536	6128	6128
92274688	4352	4352
94371840	3664	3664
96468992	40384	40384
98566144	50592	50592
100663296	50656	50656
102760448	53152	53152
104857600	413600	413600
106954752	61728	61728
109051904	13664	13664
111149056	17952	17952
113246208	12880	12880
115343360	3216	3216
117440512	2576	2576
119537664	2848	2848
121634816	2720	2720
123731968	3072	3072
125829120	2944	2944
127926272	3904	3888
130023424	2992	2992
132120576	3184	3184
134217728	7040	7040
138412032	6192	6192
142606336	6912	6912
146800640	6288	6288
150994944	10592	10592
155189248	7760	7760
159383552	8720	8720
163577856	10336	10336
167772160	8784	8784
171966464	7856	7856
176160768	9648	9648
180355072	8928	8928
184549376	8960	8960
188743680	7824	7824
192937984	7232	7232
197132288	6576	6576
201326592	5776	5776
205520896	5568	5568
209715200	5440	5440
213909504	3744	3744
218103808	4576	4576
222298112	18048	18048
226492416	15280	15280
230686720	24480	24464
234881024	66208	66208
239075328	184256	184256
243269632	227360	227360
247463936	1856	1856
251658240	1760	1760
255852544	1456	1456
260046848	1664	1664
264241152	2800	2800
268435456	8592	8592
276824064	8848	8848
285212672	8208	8208
293601280	8576	8576
301989888	3344	3344
310378496	1616	1616
318767104	11184	11184
327155712	16000	16000
335544320	181456	181456
343932928	206624	206624
352321536	50528	50528
360710144	719136	719136
369098752	142288	142288
377487360	1488	1488
385875968	1232	1232
394264576	464	464
402653184	880	880
411041792	1088	1088
419430400	1056	1056
427819008	624	624
436207616	1152	1152
444596224	1040	1040
452984832	1152	1152
461373440	784	784
469762048	464	464
478150656	592	592
486539264	640	640
494927872	336	336
503316480	240	240
511705088	224	224
520093696	224	224
528482304	256	256
536870912	544	544
553648128	576	576
570425344	112	112
587202560	0	0
603979776	0	0
620756992	0	0
637534208	0	0
654311424	0	0
671088640	0	0
687865856	0	0
704643072	0	0
721420288	0	0
738197504	0	0
754974720	0	0
771751936	0	0
788529152	0	0
805306368	0	0
822083584	0	0
838860800	0	0
855638016	0	0
872415232	0	0
889192448	0	0
905969664	0	0
922746880	0	0
939524096	0	0
956301312	0	0
973078528	0	0
989855744	0	0
1006632960	0	0
1023410176	0	0
1040187392	0	0
1056964608	0	0
1073741824	0	0
1107296256	0	0
1140850688	0	0
1174405120	0	0
1207959552	0	0
1241513984	0	0
1275068416	0	0
1308622848	0	0
1342177280	0	0
1375731712	0	0
1409286144	0	0
1442840576	0	0
1476395008	0	0
1509949440	0	0
1543503872	0	0
1577058304	0	0
1610612736	0	0
1644167168	0	0
1677721600	0	0
1711276032	0	0
1744830464	0	0
1778384896	0	0
1811939328	0	0
1845493760	0	0
1879048192	0	0
1912602624	0	0
1946157056	0	0
1979711488	0	0
2013265920	0	0
2046820352	0	0
2080374784	0	0
2113929216	0	0
2147483648	0	0
2214592512	0	0
2281701376	0	0
2348810240	0	0
2415919104	0	0
2483027968	0	0
2550136832	0	0
2617245696	0	0
2684354560	0	0
2751463424	0	0
2818572288	0	0
2885681152	0	0
2952790016	0	0
3019898880	0	0
3087007744	0	0
3154116608	0	0
3221225472	0	0
3288334336	0	0
3355443200	0	0
3422552064	0	0
3489660928	0	0
3556769792	0	0
3623878656	0	0
3690987520	0	0
3758096384	0	0
3825205248	0	0
3892314112	0	0
3959422976	0	0
4026531840	0	0
4093640704	0	0
4160749568	0	0
4227858432	0	0
~~~~~~~~~~Reuse Distance Profiler output end~~~~~~~~~~

Sampler size:396639

DRAM Statistics
 CHANNEL 0
 RQ ROW_BUFFER_HIT:     285601  ROW_BUFFER_MISS:   25586272
 DBUS AVG_CONGESTED_CYCLE:    3.87483
 WQ ROW_BUFFER_HIT:     261354  ROW_BUFFER_MISS:    1803097  FULL:          0


CPU 0 Branch Prediction Accuracy: 92.3111% MPKI: 19.7921 Average ROB Occupancy at Mispredict: 33.8997
Branch type MPKI
BRANCH_DIRECT_JUMP: 0
BRANCH_INDIRECT: 0
BRANCH_CONDITIONAL: 19.7916
BRANCH_DIRECT_CALL: 0
BRANCH_INDIRECT_CALL: 0.000420667
BRANCH_RETURN: 2e-06

