
*** ChampSim Multicore Out-of-Order Simulator ***

Warmup Instructions: 50000000
Simulation Instructions: 1500000000
Number of CPUs: 1
Off-chip DRAM Size: 4 GiB Channels: 1 Width: 64-bit Data Rate: 3200 MT/s

VirtualMemory physical capacity: 8588881920 num_ppages: 2096895
VirtualMemory page size: 4096 log2_page_size: 12

CPU 0 runs /s/traces/champsim_traces/607.cactuBSSN_s-3477B.champsimtrace.xz
CPU 0 Bimodal branch predictor
Basic BTB sets: 1024 ways: 8 indirect buffer size: 4096 RAS size: 64
Initializing LRU.
Initializing LRU.
Initializing LRU.
Initializing LRU.
Initializing rdLRU.
Initializing LRU.
Initializing LRU.
Heartbeat CPU 0 instructions: 2000001 cycles: 753773 heartbeat IPC: 2.65332 cumulative IPC: 2.65332 (Simulation time: 0 hr 1 min 55 sec) 
Heartbeat CPU 0 instructions: 4000003 cycles: 1507716 heartbeat IPC: 2.65272 cumulative IPC: 2.65302 (Simulation time: 0 hr 4 min 1 sec) 
Heartbeat CPU 0 instructions: 6000001 cycles: 2260973 heartbeat IPC: 2.65513 cumulative IPC: 2.65373 (Simulation time: 0 hr 5 min 53 sec) 
Heartbeat CPU 0 instructions: 8000003 cycles: 3014896 heartbeat IPC: 2.65279 cumulative IPC: 2.65349 (Simulation time: 0 hr 7 min 51 sec) 
Heartbeat CPU 0 instructions: 10000004 cycles: 3768435 heartbeat IPC: 2.65414 cumulative IPC: 2.65362 (Simulation time: 0 hr 9 min 48 sec) 
Heartbeat CPU 0 instructions: 12000001 cycles: 4522381 heartbeat IPC: 2.65271 cumulative IPC: 2.65347 (Simulation time: 0 hr 11 min 45 sec) 
Heartbeat CPU 0 instructions: 14000000 cycles: 5274734 heartbeat IPC: 2.65833 cumulative IPC: 2.65416 (Simulation time: 0 hr 13 min 42 sec) 
Heartbeat CPU 0 instructions: 16000002 cycles: 6028371 heartbeat IPC: 2.6538 cumulative IPC: 2.65412 (Simulation time: 0 hr 15 min 39 sec) 
Heartbeat CPU 0 instructions: 18000001 cycles: 6781963 heartbeat IPC: 2.65395 cumulative IPC: 2.6541 (Simulation time: 0 hr 17 min 38 sec) 
Heartbeat CPU 0 instructions: 20000002 cycles: 7535672 heartbeat IPC: 2.65355 cumulative IPC: 2.65404 (Simulation time: 0 hr 19 min 33 sec) 
Heartbeat CPU 0 instructions: 22000001 cycles: 8289077 heartbeat IPC: 2.65461 cumulative IPC: 2.6541 (Simulation time: 0 hr 21 min 30 sec) 
Heartbeat CPU 0 instructions: 24000000 cycles: 9043159 heartbeat IPC: 2.65223 cumulative IPC: 2.65394 (Simulation time: 0 hr 23 min 32 sec) 
Heartbeat CPU 0 instructions: 26000004 cycles: 9796396 heartbeat IPC: 2.65521 cumulative IPC: 2.65404 (Simulation time: 0 hr 25 min 30 sec) 
Heartbeat CPU 0 instructions: 28000002 cycles: 10550426 heartbeat IPC: 2.65241 cumulative IPC: 2.65392 (Simulation time: 0 hr 27 min 23 sec) 
Heartbeat CPU 0 instructions: 30000002 cycles: 11303550 heartbeat IPC: 2.65561 cumulative IPC: 2.65403 (Simulation time: 0 hr 29 min 21 sec) 
Heartbeat CPU 0 instructions: 32000003 cycles: 12057404 heartbeat IPC: 2.65303 cumulative IPC: 2.65397 (Simulation time: 0 hr 31 min 16 sec) 
Heartbeat CPU 0 instructions: 34000001 cycles: 12810781 heartbeat IPC: 2.65471 cumulative IPC: 2.65401 (Simulation time: 0 hr 33 min 15 sec) 
Heartbeat CPU 0 instructions: 36000002 cycles: 13564434 heartbeat IPC: 2.65374 cumulative IPC: 2.654 (Simulation time: 0 hr 35 min 12 sec) 
Heartbeat CPU 0 instructions: 38000004 cycles: 14317731 heartbeat IPC: 2.655 cumulative IPC: 2.65405 (Simulation time: 0 hr 37 min 9 sec) 
Heartbeat CPU 0 instructions: 40000004 cycles: 15071696 heartbeat IPC: 2.65264 cumulative IPC: 2.65398 (Simulation time: 0 hr 39 min 10 sec) 
Heartbeat CPU 0 instructions: 42000001 cycles: 15825054 heartbeat IPC: 2.65478 cumulative IPC: 2.65402 (Simulation time: 0 hr 41 min 3 sec) 
Heartbeat CPU 0 instructions: 44000003 cycles: 16579067 heartbeat IPC: 2.65248 cumulative IPC: 2.65395 (Simulation time: 0 hr 42 min 54 sec) 
Heartbeat CPU 0 instructions: 46000001 cycles: 17332637 heartbeat IPC: 2.65403 cumulative IPC: 2.65395 (Simulation time: 0 hr 44 min 50 sec) 
Heartbeat CPU 0 instructions: 48000001 cycles: 18086776 heartbeat IPC: 2.65203 cumulative IPC: 2.65387 (Simulation time: 0 hr 46 min 48 sec) 
Heartbeat CPU 0 instructions: 50000000 cycles: 18840539 heartbeat IPC: 2.65335 cumulative IPC: 2.65385 (Simulation time: 0 hr 48 min 49 sec) 

Warmup complete CPU 0 instructions: 50000003 cycles: 18840543 (Simulation time: 0 hr 48 min 49 sec) 

Heartbeat CPU 0 instructions: 52000001 cycles: 20231684 heartbeat IPC: 1.43767 cumulative IPC: 1.43767 (Simulation time: 0 hr 51 min 12 sec) 

Region of Interest Statistics
cpu0_DTLB TOTAL     ACCESS:     546470  HIT:     471330  MISS:      75140
cpu0_DTLB LOAD      ACCESS:     467406  HIT:     401295  MISS:      66111
cpu0_DTLB RFO       ACCESS:      79064  HIT:      70035  MISS:       9029
cpu0_DTLB PREFETCH  ACCESS:          0  HIT:          0  MISS:          0
cpu0_DTLB WRITEBACK ACCESS:          0  HIT:          0  MISS:          0
cpu0_ITLB TOTAL     ACCESS:      38755  HIT:      38755  MISS:          0
cpu0_ITLB LOAD      ACCESS:      38755  HIT:      38755  MISS:          0
cpu0_ITLB RFO       ACCESS:          0  HIT:          0  MISS:          0
cpu0_ITLB PREFETCH  ACCESS:          0  HIT:          0  MISS:          0
cpu0_ITLB WRITEBACK ACCESS:          0  HIT:          0  MISS:          0
cpu0_L1I TOTAL     ACCESS:     195250  HIT:     166087  MISS:      29163
cpu0_L1I LOAD      ACCESS:     195250  HIT:     166087  MISS:      29163
cpu0_L1I RFO       ACCESS:          0  HIT:          0  MISS:          0
cpu0_L1I PREFETCH  ACCESS:          0  HIT:          0  MISS:          0
cpu0_L1I WRITEBACK ACCESS:          0  HIT:          0  MISS:          0
cpu0_STLB TOTAL     ACCESS:      75140  HIT:      75074  MISS:         66
cpu0_STLB LOAD      ACCESS:      66111  HIT:      66046  MISS:         65
cpu0_STLB RFO       ACCESS:       9029  HIT:       9028  MISS:          1
cpu0_STLB PREFETCH  ACCESS:          0  HIT:          0  MISS:          0
cpu0_STLB WRITEBACK ACCESS:          0  HIT:          0  MISS:          0
cpu0_L1D TOTAL     ACCESS:     744514  HIT:     600427  MISS:     144087
cpu0_L1D LOAD      ACCESS:     587665  HIT:     455748  MISS:     131917
cpu0_L1D RFO       ACCESS:     156783  HIT:     144679  MISS:      12104
cpu0_L1D PREFETCH  ACCESS:          0  HIT:          0  MISS:          0
cpu0_L1D WRITEBACK ACCESS:          0  HIT:          0  MISS:          0
cpu0_L2C TOTAL     ACCESS:     185997  HIT:      44060  MISS:     141937
cpu0_L2C LOAD      ACCESS:     161058  HIT:      38371  MISS:     122687
cpu0_L2C RFO       ACCESS:      12029  HIT:       1563  MISS:      10466
cpu0_L2C PREFETCH  ACCESS:          0  HIT:          0  MISS:          0
cpu0_L2C WRITEBACK ACCESS:      12844  HIT:       4126  MISS:       8718
LLC TOTAL     ACCESS:     144937  HIT:     139691  MISS:       5246
LLC LOAD      ACCESS:     122684  HIT:     118614  MISS:       4070
LLC RFO       ACCESS:      10217  HIT:       9042  MISS:       1175
LLC PREFETCH  ACCESS:          0  HIT:          0  MISS:          0
LLC WRITEBACK ACCESS:      11970  HIT:      11970  MISS:          0
Heartbeat CPU 0 instructions: 54000003 cycles: 21612495 heartbeat IPC: 1.44843 cumulative IPC: 1.44303 (Simulation time: 0 hr 53 min 23 sec) 

Region of Interest Statistics
cpu0_DTLB TOTAL     ACCESS:    1093091  HIT:     942662  MISS:     150429
cpu0_DTLB LOAD      ACCESS:     934739  HIT:     802483  MISS:     132256
cpu0_DTLB RFO       ACCESS:     158352  HIT:     140179  MISS:      18173
cpu0_DTLB PREFETCH  ACCESS:          0  HIT:          0  MISS:          0
cpu0_DTLB WRITEBACK ACCESS:          0  HIT:          0  MISS:          0
cpu0_ITLB TOTAL     ACCESS:      77555  HIT:      77555  MISS:          0
cpu0_ITLB LOAD      ACCESS:      77555  HIT:      77555  MISS:          0
cpu0_ITLB RFO       ACCESS:          0  HIT:          0  MISS:          0
cpu0_ITLB PREFETCH  ACCESS:          0  HIT:          0  MISS:          0
cpu0_ITLB WRITEBACK ACCESS:          0  HIT:          0  MISS:          0
cpu0_L1I TOTAL     ACCESS:     390706  HIT:     332405  MISS:      58301
cpu0_L1I LOAD      ACCESS:     390706  HIT:     332405  MISS:      58301
cpu0_L1I RFO       ACCESS:          0  HIT:          0  MISS:          0
cpu0_L1I PREFETCH  ACCESS:          0  HIT:          0  MISS:          0
cpu0_L1I WRITEBACK ACCESS:          0  HIT:          0  MISS:          0
cpu0_STLB TOTAL     ACCESS:     150429  HIT:     150282  MISS:        147
cpu0_STLB LOAD      ACCESS:     132256  HIT:     132135  MISS:        121
cpu0_STLB RFO       ACCESS:      18173  HIT:      18147  MISS:         26
cpu0_STLB PREFETCH  ACCESS:          0  HIT:          0  MISS:          0
cpu0_STLB WRITEBACK ACCESS:          0  HIT:          0  MISS:          0
cpu0_L1D TOTAL     ACCESS:    1487573  HIT:    1199263  MISS:     288310
cpu0_L1D LOAD      ACCESS:    1174057  HIT:     910273  MISS:     263784
cpu0_L1D RFO       ACCESS:     313369  HIT:     288990  MISS:      24379
cpu0_L1D PREFETCH  ACCESS:          0  HIT:          0  MISS:          0
cpu0_L1D WRITEBACK ACCESS:          0  HIT:          0  MISS:          0
cpu0_L2C TOTAL     ACCESS:     372344  HIT:      86423  MISS:     285921
cpu0_L2C LOAD      ACCESS:     322046  HIT:      75297  MISS:     246749
cpu0_L2C RFO       ACCESS:      24237  HIT:       3175  MISS:      21062
cpu0_L2C PREFETCH  ACCESS:          0  HIT:          0  MISS:          0
cpu0_L2C WRITEBACK ACCESS:      25914  HIT:       7951  MISS:      17963
LLC TOTAL     ACCESS:     291549  HIT:     281185  MISS:      10364
LLC LOAD      ACCESS:     246739  HIT:     238701  MISS:       8038
LLC RFO       ACCESS:      20584  HIT:      18259  MISS:       2325
LLC PREFETCH  ACCESS:          0  HIT:          0  MISS:          0
LLC WRITEBACK ACCESS:      24079  HIT:      24079  MISS:          0
Heartbeat CPU 0 instructions: 56000002 cycles: 23004874 heartbeat IPC: 1.43639 cumulative IPC: 1.44081 (Simulation time: 0 hr 55 min 8 sec) 

Region of Interest Statistics
cpu0_DTLB TOTAL     ACCESS:    1638105  HIT:    1412151  MISS:     225954
cpu0_DTLB LOAD      ACCESS:    1400502  HIT:    1201775  MISS:     198727
cpu0_DTLB RFO       ACCESS:     237603  HIT:     210376  MISS:      27227
cpu0_DTLB PREFETCH  ACCESS:          0  HIT:          0  MISS:          0
cpu0_DTLB WRITEBACK ACCESS:          0  HIT:          0  MISS:          0
cpu0_ITLB TOTAL     ACCESS:     116319  HIT:     116319  MISS:          0
cpu0_ITLB LOAD      ACCESS:     116319  HIT:     116319  MISS:          0
cpu0_ITLB RFO       ACCESS:          0  HIT:          0  MISS:          0
cpu0_ITLB PREFETCH  ACCESS:          0  HIT:          0  MISS:          0
cpu0_ITLB WRITEBACK ACCESS:          0  HIT:          0  MISS:          0
cpu0_L1I TOTAL     ACCESS:     586166  HIT:     498573  MISS:      87593
cpu0_L1I LOAD      ACCESS:     586166  HIT:     498573  MISS:      87593
cpu0_L1I RFO       ACCESS:          0  HIT:          0  MISS:          0
cpu0_L1I PREFETCH  ACCESS:          0  HIT:          0  MISS:          0
cpu0_L1I WRITEBACK ACCESS:          0  HIT:          0  MISS:          0
cpu0_STLB TOTAL     ACCESS:     225954  HIT:     225715  MISS:        239
cpu0_STLB LOAD      ACCESS:     198727  HIT:     198539  MISS:        188
cpu0_STLB RFO       ACCESS:      27227  HIT:      27176  MISS:         51
cpu0_STLB PREFETCH  ACCESS:          0  HIT:          0  MISS:          0
cpu0_STLB WRITEBACK ACCESS:          0  HIT:          0  MISS:          0
cpu0_L1D TOTAL     ACCESS:    2229955  HIT:    1797018  MISS:     432937
cpu0_L1D LOAD      ACCESS:    1759667  HIT:    1363546  MISS:     396121
cpu0_L1D RFO       ACCESS:     470049  HIT:     433472  MISS:      36577
cpu0_L1D PREFETCH  ACCESS:          0  HIT:          0  MISS:          0
cpu0_L1D WRITEBACK ACCESS:          0  HIT:          0  MISS:          0
cpu0_L2C TOTAL     ACCESS:     559151  HIT:     129580  MISS:     429571
cpu0_L2C LOAD      ACCESS:     483654  HIT:     112833  MISS:     370821
cpu0_L2C RFO       ACCESS:      36358  HIT:       4757  MISS:      31601
cpu0_L2C PREFETCH  ACCESS:          0  HIT:          0  MISS:          0
cpu0_L2C WRITEBACK ACCESS:      38900  HIT:      11990  MISS:      26910
LLC TOTAL     ACCESS:     437871  HIT:     422189  MISS:      15682
LLC LOAD      ACCESS:     370796  HIT:     358640  MISS:      12156
LLC RFO       ACCESS:      30915  HIT:      27390  MISS:       3525
LLC PREFETCH  ACCESS:          0  HIT:          0  MISS:          0
LLC WRITEBACK ACCESS:      35921  HIT:      35921  MISS:          0
Heartbeat CPU 0 instructions: 58000002 cycles: 24390043 heartbeat IPC: 1.44387 cumulative IPC: 1.44157 (Simulation time: 0 hr 57 min 30 sec) 

Region of Interest Statistics
cpu0_DTLB TOTAL     ACCESS:    2184819  HIT:    1883358  MISS:     301461
cpu0_DTLB LOAD      ACCESS:    1867886  HIT:    1602781  MISS:     265105
cpu0_DTLB RFO       ACCESS:     316933  HIT:     280577  MISS:      36356
cpu0_DTLB PREFETCH  ACCESS:          0  HIT:          0  MISS:          0
cpu0_DTLB WRITEBACK ACCESS:          0  HIT:          0  MISS:          0
cpu0_ITLB TOTAL     ACCESS:     155112  HIT:     155112  MISS:          0
cpu0_ITLB LOAD      ACCESS:     155112  HIT:     155112  MISS:          0
cpu0_ITLB RFO       ACCESS:          0  HIT:          0  MISS:          0
cpu0_ITLB PREFETCH  ACCESS:          0  HIT:          0  MISS:          0
cpu0_ITLB WRITEBACK ACCESS:          0  HIT:          0  MISS:          0
cpu0_L1I TOTAL     ACCESS:     781656  HIT:     664698  MISS:     116958
cpu0_L1I LOAD      ACCESS:     781656  HIT:     664698  MISS:     116958
cpu0_L1I RFO       ACCESS:          0  HIT:          0  MISS:          0
cpu0_L1I PREFETCH  ACCESS:          0  HIT:          0  MISS:          0
cpu0_L1I WRITEBACK ACCESS:          0  HIT:          0  MISS:          0
cpu0_STLB TOTAL     ACCESS:     301461  HIT:     301126  MISS:        335
cpu0_STLB LOAD      ACCESS:     265105  HIT:     264846  MISS:        259
cpu0_STLB RFO       ACCESS:      36356  HIT:      36280  MISS:         76
cpu0_STLB PREFETCH  ACCESS:          0  HIT:          0  MISS:          0
cpu0_STLB WRITEBACK ACCESS:          0  HIT:          0  MISS:          0
cpu0_L1D TOTAL     ACCESS:    2974657  HIT:    2397058  MISS:     577599
cpu0_L1D LOAD      ACCESS:    2347662  HIT:    1819089  MISS:     528573
cpu0_L1D RFO       ACCESS:     626660  HIT:     577969  MISS:      48691
cpu0_L1D PREFETCH  ACCESS:          0  HIT:          0  MISS:          0
cpu0_L1D WRITEBACK ACCESS:          0  HIT:          0  MISS:          0
cpu0_L2C TOTAL     ACCESS:     745972  HIT:     175964  MISS:     570008
cpu0_L2C LOAD      ACCESS:     645448  HIT:     153619  MISS:     491829
cpu0_L2C RFO       ACCESS:      48398  HIT:       6209  MISS:      42189
cpu0_L2C PREFETCH  ACCESS:          0  HIT:          0  MISS:          0
cpu0_L2C WRITEBACK ACCESS:      51791  HIT:      16136  MISS:      35655
LLC TOTAL     ACCESS:     581351  HIT:     560512  MISS:      20839
LLC LOAD      ACCESS:     491788  HIT:     475625  MISS:      16163
LLC RFO       ACCESS:      41332  HIT:      36657  MISS:       4675
LLC PREFETCH  ACCESS:          0  HIT:          0  MISS:          0
LLC WRITEBACK ACCESS:      47896  HIT:      47896  MISS:          0
Heartbeat CPU 0 instructions: 60000004 cycles: 25773290 heartbeat IPC: 1.44587 cumulative IPC: 1.44243 (Simulation time: 0 hr 59 min 56 sec) 

Region of Interest Statistics
cpu0_DTLB TOTAL     ACCESS:    2730060  HIT:    2353128  MISS:     376932
cpu0_DTLB LOAD      ACCESS:    2333942  HIT:    2002507  MISS:     331435
cpu0_DTLB RFO       ACCESS:     396118  HIT:     350621  MISS:      45497
cpu0_DTLB PREFETCH  ACCESS:          0  HIT:          0  MISS:          0
cpu0_DTLB WRITEBACK ACCESS:          0  HIT:          0  MISS:          0
cpu0_ITLB TOTAL     ACCESS:     193918  HIT:     193918  MISS:          0
cpu0_ITLB LOAD      ACCESS:     193918  HIT:     193918  MISS:          0
cpu0_ITLB RFO       ACCESS:          0  HIT:          0  MISS:          0
cpu0_ITLB PREFETCH  ACCESS:          0  HIT:          0  MISS:          0
cpu0_ITLB WRITEBACK ACCESS:          0  HIT:          0  MISS:          0
cpu0_L1I TOTAL     ACCESS:     977157  HIT:     830655  MISS:     146502
cpu0_L1I LOAD      ACCESS:     977157  HIT:     830655  MISS:     146502
cpu0_L1I RFO       ACCESS:          0  HIT:          0  MISS:          0
cpu0_L1I PREFETCH  ACCESS:          0  HIT:          0  MISS:          0
cpu0_L1I WRITEBACK ACCESS:          0  HIT:          0  MISS:          0
cpu0_STLB TOTAL     ACCESS:     376932  HIT:     376548  MISS:        384
cpu0_STLB LOAD      ACCESS:     331435  HIT:     331127  MISS:        308
cpu0_STLB RFO       ACCESS:      45497  HIT:      45421  MISS:         76
cpu0_STLB PREFETCH  ACCESS:          0  HIT:          0  MISS:          0
cpu0_STLB WRITEBACK ACCESS:          0  HIT:          0  MISS:          0
cpu0_L1D TOTAL     ACCESS:    3718300  HIT:    2996769  MISS:     721531
cpu0_L1D LOAD      ACCESS:    2934575  HIT:    2274244  MISS:     660331
cpu0_L1D RFO       ACCESS:     783341  HIT:     722525  MISS:      60816
cpu0_L1D PREFETCH  ACCESS:          0  HIT:          0  MISS:          0
cpu0_L1D WRITEBACK ACCESS:          0  HIT:          0  MISS:          0
cpu0_L2C TOTAL     ACCESS:     932266  HIT:     223382  MISS:     708884
cpu0_L2C LOAD      ACCESS:     806726  HIT:     194699  MISS:     612027
cpu0_L2C RFO       ACCESS:      60439  HIT:       7567  MISS:      52872
cpu0_L2C PREFETCH  ACCESS:          0  HIT:          0  MISS:          0
cpu0_L2C WRITEBACK ACCESS:      64717  HIT:      21116  MISS:      43601
LLC TOTAL     ACCESS:     724219  HIT:     698214  MISS:      26005
LLC LOAD      ACCESS:     611981  HIT:     591827  MISS:      20154
LLC RFO       ACCESS:      51858  HIT:      46008  MISS:       5850
LLC PREFETCH  ACCESS:          0  HIT:          0  MISS:          0
LLC WRITEBACK ACCESS:      59996  HIT:      59996  MISS:          0
Heartbeat CPU 0 instructions: 62000004 cycles: 27161585 heartbeat IPC: 1.44062 cumulative IPC: 1.44213 (Simulation time: 1 hr 2 min 19 sec) 

Region of Interest Statistics
cpu0_DTLB TOTAL     ACCESS:    3276102  HIT:    2823507  MISS:     452595
cpu0_DTLB LOAD      ACCESS:    2800610  HIT:    2402586  MISS:     398024
cpu0_DTLB RFO       ACCESS:     475492  HIT:     420921  MISS:      54571
cpu0_DTLB PREFETCH  ACCESS:          0  HIT:          0  MISS:          0
cpu0_DTLB WRITEBACK ACCESS:          0  HIT:          0  MISS:          0
cpu0_ITLB TOTAL     ACCESS:     232730  HIT:     232730  MISS:          0
cpu0_ITLB LOAD      ACCESS:     232730  HIT:     232730  MISS:          0
cpu0_ITLB RFO       ACCESS:          0  HIT:          0  MISS:          0
cpu0_ITLB PREFETCH  ACCESS:          0  HIT:          0  MISS:          0
cpu0_ITLB WRITEBACK ACCESS:          0  HIT:          0  MISS:          0
cpu0_L1I TOTAL     ACCESS:    1172646  HIT:     996975  MISS:     175671
cpu0_L1I LOAD      ACCESS:    1172646  HIT:     996975  MISS:     175671
cpu0_L1I RFO       ACCESS:          0  HIT:          0  MISS:          0
cpu0_L1I PREFETCH  ACCESS:          0  HIT:          0  MISS:          0
cpu0_L1I WRITEBACK ACCESS:          0  HIT:          0  MISS:          0
cpu0_STLB TOTAL     ACCESS:     452595  HIT:     452115  MISS:        480
cpu0_STLB LOAD      ACCESS:     398024  HIT:     397645  MISS:        379
cpu0_STLB RFO       ACCESS:      54571  HIT:      54470  MISS:        101
cpu0_STLB PREFETCH  ACCESS:          0  HIT:          0  MISS:          0
cpu0_STLB WRITEBACK ACCESS:          0  HIT:          0  MISS:          0
cpu0_L1D TOTAL     ACCESS:    4461709  HIT:    3595619  MISS:     866090
cpu0_L1D LOAD      ACCESS:    3521256  HIT:    2728669  MISS:     792587
cpu0_L1D RFO       ACCESS:     939973  HIT:     866950  MISS:      73023
cpu0_L1D PREFETCH  ACCESS:          0  HIT:          0  MISS:          0
cpu0_L1D WRITEBACK ACCESS:          0  HIT:          0  MISS:          0
cpu0_L2C TOTAL     ACCESS:    1118903  HIT:     267034  MISS:     851869
cpu0_L2C LOAD      ACCESS:     968136  HIT:     233406  MISS:     734730
cpu0_L2C RFO       ACCESS:      72574  HIT:       9046  MISS:      63528
cpu0_L2C PREFETCH  ACCESS:          0  HIT:          0  MISS:          0
cpu0_L2C WRITEBACK ACCESS:      77713  HIT:      24582  MISS:      53131
LLC TOTAL     ACCESS:     869621  HIT:     838399  MISS:      31222
LLC LOAD      ACCESS:     734669  HIT:     710473  MISS:      24196
LLC RFO       ACCESS:      62296  HIT:      55271  MISS:       7025
LLC PREFETCH  ACCESS:          0  HIT:          0  MISS:          0
LLC WRITEBACK ACCESS:      72176  HIT:      72176  MISS:          0
Heartbeat CPU 0 instructions: 64000004 cycles: 28546575 heartbeat IPC: 1.44405 cumulative IPC: 1.4424 (Simulation time: 1 hr 4 min 43 sec) 

Region of Interest Statistics
cpu0_DTLB TOTAL     ACCESS:    3820750  HIT:    3292778  MISS:     527972
cpu0_DTLB LOAD      ACCESS:    3266236  HIT:    2801881  MISS:     464355
cpu0_DTLB RFO       ACCESS:     554514  HIT:     490897  MISS:      63617
cpu0_DTLB PREFETCH  ACCESS:          0  HIT:          0  MISS:          0
cpu0_DTLB WRITEBACK ACCESS:          0  HIT:          0  MISS:          0
cpu0_ITLB TOTAL     ACCESS:     271498  HIT:     271498  MISS:          0
cpu0_ITLB LOAD      ACCESS:     271498  HIT:     271498  MISS:          0
cpu0_ITLB RFO       ACCESS:          0  HIT:          0  MISS:          0
cpu0_ITLB PREFETCH  ACCESS:          0  HIT:          0  MISS:          0
cpu0_ITLB WRITEBACK ACCESS:          0  HIT:          0  MISS:          0
cpu0_L1I TOTAL     ACCESS:    1367991  HIT:    1163168  MISS:     204823
cpu0_L1I LOAD      ACCESS:    1367991  HIT:    1163168  MISS:     204823
cpu0_L1I RFO       ACCESS:          0  HIT:          0  MISS:          0
cpu0_L1I PREFETCH  ACCESS:          0  HIT:          0  MISS:          0
cpu0_L1I WRITEBACK ACCESS:          0  HIT:          0  MISS:          0
cpu0_STLB TOTAL     ACCESS:     527972  HIT:     527404  MISS:        568
cpu0_STLB LOAD      ACCESS:     464355  HIT:     463913  MISS:        442
cpu0_STLB RFO       ACCESS:      63617  HIT:      63491  MISS:        126
cpu0_STLB PREFETCH  ACCESS:          0  HIT:          0  MISS:          0
cpu0_STLB WRITEBACK ACCESS:          0  HIT:          0  MISS:          0
cpu0_L1D TOTAL     ACCESS:    5204866  HIT:    4194495  MISS:    1010371
cpu0_L1D LOAD      ACCESS:    4107691  HIT:    3183117  MISS:     924574
cpu0_L1D RFO       ACCESS:    1096607  HIT:    1011378  MISS:      85229
cpu0_L1D PREFETCH  ACCESS:          0  HIT:          0  MISS:          0
cpu0_L1D WRITEBACK ACCESS:          0  HIT:          0  MISS:          0
cpu0_L2C TOTAL     ACCESS:    1305267  HIT:     309708  MISS:     995559
cpu0_L2C LOAD      ACCESS:    1129255  HIT:     271618  MISS:     857637
cpu0_L2C RFO       ACCESS:      84708  HIT:      10364  MISS:      74344
cpu0_L2C PREFETCH  ACCESS:          0  HIT:          0  MISS:          0
cpu0_L2C WRITEBACK ACCESS:      90736  HIT:      27726  MISS:      63010
LLC TOTAL     ACCESS:    1015492  HIT:     979076  MISS:      36416
LLC LOAD      ACCESS:     857567  HIT:     829327  MISS:      28240
LLC RFO       ACCESS:      72923  HIT:      64748  MISS:       8175
LLC PREFETCH  ACCESS:          0  HIT:          0  MISS:          0
LLC WRITEBACK ACCESS:      84434  HIT:      84434  MISS:          0
Heartbeat CPU 0 instructions: 66000004 cycles: 29931187 heartbeat IPC: 1.44445 cumulative IPC: 1.44266 (Simulation time: 1 hr 7 min 7 sec) 

Region of Interest Statistics
cpu0_DTLB TOTAL     ACCESS:    4366644  HIT:    3763327  MISS:     603317
cpu0_DTLB LOAD      ACCESS:    3733081  HIT:    3202478  MISS:     530603
cpu0_DTLB RFO       ACCESS:     633563  HIT:     560849  MISS:      72714
cpu0_DTLB PREFETCH  ACCESS:          0  HIT:          0  MISS:          0
cpu0_DTLB WRITEBACK ACCESS:          0  HIT:          0  MISS:          0
cpu0_ITLB TOTAL     ACCESS:     310308  HIT:     310308  MISS:          0
cpu0_ITLB LOAD      ACCESS:     310308  HIT:     310308  MISS:          0
cpu0_ITLB RFO       ACCESS:          0  HIT:          0  MISS:          0
cpu0_ITLB PREFETCH  ACCESS:          0  HIT:          0  MISS:          0
cpu0_ITLB WRITEBACK ACCESS:          0  HIT:          0  MISS:          0
cpu0_L1I TOTAL     ACCESS:    1563505  HIT:    1329400  MISS:     234105
cpu0_L1I LOAD      ACCESS:    1563505  HIT:    1329400  MISS:     234105
cpu0_L1I RFO       ACCESS:          0  HIT:          0  MISS:          0
cpu0_L1I PREFETCH  ACCESS:          0  HIT:          0  MISS:          0
cpu0_L1I WRITEBACK ACCESS:          0  HIT:          0  MISS:          0
cpu0_STLB TOTAL     ACCESS:     603317  HIT:     602685  MISS:        632
cpu0_STLB LOAD      ACCESS:     530603  HIT:     530097  MISS:        506
cpu0_STLB RFO       ACCESS:      72714  HIT:      72588  MISS:        126
cpu0_STLB PREFETCH  ACCESS:          0  HIT:          0  MISS:          0
cpu0_STLB WRITEBACK ACCESS:          0  HIT:          0  MISS:          0
cpu0_L1D TOTAL     ACCESS:    5949149  HIT:    4794140  MISS:    1155009
cpu0_L1D LOAD      ACCESS:    4695206  HIT:    3638117  MISS:    1057089
cpu0_L1D RFO       ACCESS:    1253311  HIT:    1156023  MISS:      97288
cpu0_L1D PREFETCH  ACCESS:          0  HIT:          0  MISS:          0
cpu0_L1D WRITEBACK ACCESS:          0  HIT:          0  MISS:          0
cpu0_L2C TOTAL     ACCESS:    1491956  HIT:     353584  MISS:    1138372
cpu0_L2C LOAD      ACCESS:    1291032  HIT:     310325  MISS:     980707
cpu0_L2C RFO       ACCESS:      96690  HIT:      11755  MISS:      84935
cpu0_L2C PREFETCH  ACCESS:          0  HIT:          0  MISS:          0
cpu0_L2C WRITEBACK ACCESS:     103602  HIT:      31504  MISS:      72098
LLC TOTAL     ACCESS:    1161011  HIT:    1119453  MISS:      41558
LLC LOAD      ACCESS:     980626  HIT:     948419  MISS:      32207
LLC RFO       ACCESS:      83279  HIT:      73929  MISS:       9350
LLC PREFETCH  ACCESS:          0  HIT:          0  MISS:          0
LLC WRITEBACK ACCESS:      96474  HIT:      96474  MISS:          0
Heartbeat CPU 0 instructions: 68000004 cycles: 31330919 heartbeat IPC: 1.42884 cumulative IPC: 1.44111 (Simulation time: 1 hr 9 min 33 sec) 

Region of Interest Statistics
cpu0_DTLB TOTAL     ACCESS:    4912905  HIT:    4234309  MISS:     678596
cpu0_DTLB LOAD      ACCESS:    4200208  HIT:    3603378  MISS:     596830
cpu0_DTLB RFO       ACCESS:     712697  HIT:     630931  MISS:      81766
cpu0_DTLB PREFETCH  ACCESS:          0  HIT:          0  MISS:          0
cpu0_DTLB WRITEBACK ACCESS:          0  HIT:          0  MISS:          0
cpu0_ITLB TOTAL     ACCESS:     349120  HIT:     349120  MISS:          0
cpu0_ITLB LOAD      ACCESS:     349120  HIT:     349120  MISS:          0
cpu0_ITLB RFO       ACCESS:          0  HIT:          0  MISS:          0
cpu0_ITLB PREFETCH  ACCESS:          0  HIT:          0  MISS:          0
cpu0_ITLB WRITEBACK ACCESS:          0  HIT:          0  MISS:          0
cpu0_L1I TOTAL     ACCESS:    1759036  HIT:    1495496  MISS:     263540
cpu0_L1I LOAD      ACCESS:    1759036  HIT:    1495496  MISS:     263540
cpu0_L1I RFO       ACCESS:          0  HIT:          0  MISS:          0
cpu0_L1I PREFETCH  ACCESS:          0  HIT:          0  MISS:          0
cpu0_L1I WRITEBACK ACCESS:          0  HIT:          0  MISS:          0
cpu0_STLB TOTAL     ACCESS:     678596  HIT:     677879  MISS:        717
cpu0_STLB LOAD      ACCESS:     596830  HIT:     596264  MISS:        566
cpu0_STLB RFO       ACCESS:      81766  HIT:      81615  MISS:        151
cpu0_STLB PREFETCH  ACCESS:          0  HIT:          0  MISS:          0
cpu0_STLB WRITEBACK ACCESS:          0  HIT:          0  MISS:          0
cpu0_L1D TOTAL     ACCESS:    6693056  HIT:    5394094  MISS:    1298962
cpu0_L1D LOAD      ACCESS:    5282351  HIT:    4093569  MISS:    1188782
cpu0_L1D RFO       ACCESS:    1409988  HIT:    1300525  MISS:     109463
cpu0_L1D PREFETCH  ACCESS:          0  HIT:          0  MISS:          0
cpu0_L1D WRITEBACK ACCESS:          0  HIT:          0  MISS:          0
cpu0_L2C TOTAL     ACCESS:    1678191  HIT:     395703  MISS:    1282488
cpu0_L2C LOAD      ACCESS:    1452142  HIT:     348299  MISS:    1103843
cpu0_L2C RFO       ACCESS:     108807  HIT:      13127  MISS:      95680
cpu0_L2C PREFETCH  ACCESS:          0  HIT:          0  MISS:          0
cpu0_L2C WRITEBACK ACCESS:     116525  HIT:      34277  MISS:      82248
LLC TOTAL     ACCESS:    1306619  HIT:    1259744  MISS:      46875
LLC LOAD      ACCESS:    1103758  HIT:    1067434  MISS:      36324
LLC RFO       ACCESS:      93559  HIT:      83009  MISS:      10550
LLC PREFETCH  ACCESS:          0  HIT:          0  MISS:          0
LLC WRITEBACK ACCESS:     108585  HIT:     108585  MISS:          0
Heartbeat CPU 0 instructions: 70000000 cycles: 32709981 heartbeat IPC: 1.45026 cumulative IPC: 1.44202 (Simulation time: 1 hr 11 min 54 sec) 

Region of Interest Statistics
cpu0_DTLB TOTAL     ACCESS:    5458701  HIT:    4704671  MISS:     754030
cpu0_DTLB LOAD      ACCESS:    4666839  HIT:    4003642  MISS:     663197
cpu0_DTLB RFO       ACCESS:     791862  HIT:     701029  MISS:      90833
cpu0_DTLB PREFETCH  ACCESS:          0  HIT:          0  MISS:          0
cpu0_DTLB WRITEBACK ACCESS:          0  HIT:          0  MISS:          0
cpu0_ITLB TOTAL     ACCESS:     387913  HIT:     387913  MISS:          0
cpu0_ITLB LOAD      ACCESS:     387913  HIT:     387913  MISS:          0
cpu0_ITLB RFO       ACCESS:          0  HIT:          0  MISS:          0
cpu0_ITLB PREFETCH  ACCESS:          0  HIT:          0  MISS:          0
cpu0_ITLB WRITEBACK ACCESS:          0  HIT:          0  MISS:          0
cpu0_L1I TOTAL     ACCESS:    1954564  HIT:    1661814  MISS:     292750
cpu0_L1I LOAD      ACCESS:    1954564  HIT:    1661814  MISS:     292750
cpu0_L1I RFO       ACCESS:          0  HIT:          0  MISS:          0
cpu0_L1I PREFETCH  ACCESS:          0  HIT:          0  MISS:          0
cpu0_L1I WRITEBACK ACCESS:          0  HIT:          0  MISS:          0
cpu0_STLB TOTAL     ACCESS:     754030  HIT:     753221  MISS:        809
cpu0_STLB LOAD      ACCESS:     663197  HIT:     662564  MISS:        633
cpu0_STLB RFO       ACCESS:      90833  HIT:      90657  MISS:        176
cpu0_STLB PREFETCH  ACCESS:          0  HIT:          0  MISS:          0
cpu0_STLB WRITEBACK ACCESS:          0  HIT:          0  MISS:          0
cpu0_L1D TOTAL     ACCESS:    7436343  HIT:    5992845  MISS:    1443498
cpu0_L1D LOAD      ACCESS:    5869035  HIT:    4548036  MISS:    1320999
cpu0_L1D RFO       ACCESS:    1566499  HIT:    1444809  MISS:     121690
cpu0_L1D PREFETCH  ACCESS:          0  HIT:          0  MISS:          0
cpu0_L1D WRITEBACK ACCESS:          0  HIT:          0  MISS:          0
cpu0_L2C TOTAL     ACCESS:    1864930  HIT:     440585  MISS:    1424345
cpu0_L2C LOAD      ACCESS:    1613546  HIT:     387789  MISS:    1225757
cpu0_L2C RFO       ACCESS:     120965  HIT:      14503  MISS:     106462
cpu0_L2C PREFETCH  ACCESS:          0  HIT:          0  MISS:          0
cpu0_L2C WRITEBACK ACCESS:     129610  HIT:      38293  MISS:      91317
LLC TOTAL     ACCESS:    1451228  HIT:    1399236  MISS:      51992
LLC LOAD      ACCESS:    1225666  HIT:    1185375  MISS:      40291
LLC RFO       ACCESS:     104014  HIT:      92314  MISS:      11700
LLC PREFETCH  ACCESS:          0  HIT:          0  MISS:          0
LLC WRITEBACK ACCESS:     120739  HIT:     120739  MISS:          0
Heartbeat CPU 0 instructions: 72000004 cycles: 34096144 heartbeat IPC: 1.44283 cumulative IPC: 1.44209 (Simulation time: 1 hr 14 min 19 sec) 

Region of Interest Statistics
cpu0_DTLB TOTAL     ACCESS:    6004508  HIT:    5174622  MISS:     829886
cpu0_DTLB LOAD      ACCESS:    5133411  HIT:    4403400  MISS:     730011
cpu0_DTLB RFO       ACCESS:     871097  HIT:     771222  MISS:      99875
cpu0_DTLB PREFETCH  ACCESS:          0  HIT:          0  MISS:          0
cpu0_DTLB WRITEBACK ACCESS:          0  HIT:          0  MISS:          0
cpu0_ITLB TOTAL     ACCESS:     426709  HIT:     426709  MISS:          0
cpu0_ITLB LOAD      ACCESS:     426709  HIT:     426709  MISS:          0
cpu0_ITLB RFO       ACCESS:          0  HIT:          0  MISS:          0
cpu0_ITLB PREFETCH  ACCESS:          0  HIT:          0  MISS:          0
cpu0_ITLB WRITEBACK ACCESS:          0  HIT:          0  MISS:          0
cpu0_L1I TOTAL     ACCESS:    2149961  HIT:    1828052  MISS:     321909
cpu0_L1I LOAD      ACCESS:    2149961  HIT:    1828052  MISS:     321909
cpu0_L1I RFO       ACCESS:          0  HIT:          0  MISS:          0
cpu0_L1I PREFETCH  ACCESS:          0  HIT:          0  MISS:          0
cpu0_L1I WRITEBACK ACCESS:          0  HIT:          0  MISS:          0
cpu0_STLB TOTAL     ACCESS:     829886  HIT:     828985  MISS:        901
cpu0_STLB LOAD      ACCESS:     730011  HIT:     729311  MISS:        700
cpu0_STLB RFO       ACCESS:      99875  HIT:      99674  MISS:        201
cpu0_STLB PREFETCH  ACCESS:          0  HIT:          0  MISS:          0
cpu0_STLB WRITEBACK ACCESS:          0  HIT:          0  MISS:          0
cpu0_L1D TOTAL     ACCESS:    8179957  HIT:    6592196  MISS:    1587761
cpu0_L1D LOAD      ACCESS:    6455969  HIT:    5002979  MISS:    1452990
cpu0_L1D RFO       ACCESS:    1723087  HIT:    1589217  MISS:     133870
cpu0_L1D PREFETCH  ACCESS:          0  HIT:          0  MISS:          0
cpu0_L1D WRITEBACK ACCESS:          0  HIT:          0  MISS:          0
cpu0_L2C TOTAL     ACCESS:    2051205  HIT:     487335  MISS:    1563870
cpu0_L2C LOAD      ACCESS:    1774665  HIT:     428597  MISS:    1346068
cpu0_L2C RFO       ACCESS:     133067  HIT:      15938  MISS:     117129
cpu0_L2C PREFETCH  ACCESS:          0  HIT:          0  MISS:          0
cpu0_L2C WRITEBACK ACCESS:     142572  HIT:      42800  MISS:      99772
LLC TOTAL     ACCESS:    1594096  HIT:    1536898  MISS:      57198
LLC LOAD      ACCESS:    1345967  HIT:    1301645  MISS:      44322
LLC RFO       ACCESS:     114510  HIT:     101635  MISS:      12875
LLC PREFETCH  ACCESS:          0  HIT:          0  MISS:          0
LLC WRITEBACK ACCESS:     132718  HIT:     132718  MISS:          0
Heartbeat CPU 0 instructions: 74000003 cycles: 35484594 heartbeat IPC: 1.44045 cumulative IPC: 1.44196 (Simulation time: 1 hr 16 min 43 sec) 

Region of Interest Statistics
cpu0_DTLB TOTAL     ACCESS:    6550634  HIT:    5645163  MISS:     905471
cpu0_DTLB LOAD      ACCESS:    5600358  HIT:    4803819  MISS:     796539
cpu0_DTLB RFO       ACCESS:     950276  HIT:     841344  MISS:     108932
cpu0_DTLB PREFETCH  ACCESS:          0  HIT:          0  MISS:          0
cpu0_DTLB WRITEBACK ACCESS:          0  HIT:          0  MISS:          0
cpu0_ITLB TOTAL     ACCESS:     465506  HIT:     465506  MISS:          0
cpu0_ITLB LOAD      ACCESS:     465506  HIT:     465506  MISS:          0
cpu0_ITLB RFO       ACCESS:          0  HIT:          0  MISS:          0
cpu0_ITLB PREFETCH  ACCESS:          0  HIT:          0  MISS:          0
cpu0_ITLB WRITEBACK ACCESS:          0  HIT:          0  MISS:          0
cpu0_L1I TOTAL     ACCESS:    2345288  HIT:    1994131  MISS:     351157
cpu0_L1I LOAD      ACCESS:    2345288  HIT:    1994131  MISS:     351157
cpu0_L1I RFO       ACCESS:          0  HIT:          0  MISS:          0
cpu0_L1I PREFETCH  ACCESS:          0  HIT:          0  MISS:          0
cpu0_L1I WRITEBACK ACCESS:          0  HIT:          0  MISS:          0
cpu0_STLB TOTAL     ACCESS:     905471  HIT:     904517  MISS:        954
cpu0_STLB LOAD      ACCESS:     796539  HIT:     795786  MISS:        753
cpu0_STLB RFO       ACCESS:     108932  HIT:     108731  MISS:        201
cpu0_STLB PREFETCH  ACCESS:          0  HIT:          0  MISS:          0
cpu0_STLB WRITEBACK ACCESS:          0  HIT:          0  MISS:          0
cpu0_L1D TOTAL     ACCESS:    8924754  HIT:    7192492  MISS:    1732262
cpu0_L1D LOAD      ACCESS:    7044113  HIT:    5458849  MISS:    1585264
cpu0_L1D RFO       ACCESS:    1879687  HIT:    1733643  MISS:     146044
cpu0_L1D PREFETCH  ACCESS:          0  HIT:          0  MISS:          0
cpu0_L1D WRITEBACK ACCESS:          0  HIT:          0  MISS:          0
cpu0_L2C TOTAL     ACCESS:    2237857  HIT:     534170  MISS:    1703687
cpu0_L2C LOAD      ACCESS:    1936159  HIT:     470437  MISS:    1465722
cpu0_L2C RFO       ACCESS:     145188  HIT:      17425  MISS:     127763
cpu0_L2C PREFETCH  ACCESS:          0  HIT:          0  MISS:          0
cpu0_L2C WRITEBACK ACCESS:     155556  HIT:      46308  MISS:     109248
LLC TOTAL     ACCESS:    1736414  HIT:    1673999  MISS:      62415
LLC LOAD      ACCESS:    1465611  HIT:    1417247  MISS:      48364
LLC RFO       ACCESS:     124979  HIT:     110929  MISS:      14050
LLC PREFETCH  ACCESS:          0  HIT:          0  MISS:          0
LLC WRITEBACK ACCESS:     144870  HIT:     144870  MISS:          0
Heartbeat CPU 0 instructions: 76000003 cycles: 36864267 heartbeat IPC: 1.44962 cumulative IPC: 1.44254 (Simulation time: 1 hr 19 min 7 sec) 

Region of Interest Statistics
cpu0_DTLB TOTAL     ACCESS:    7096812  HIT:    6115544  MISS:     981268
cpu0_DTLB LOAD      ACCESS:    6067486  HIT:    5204207  MISS:     863279
cpu0_DTLB RFO       ACCESS:    1029326  HIT:     911337  MISS:     117989
cpu0_DTLB PREFETCH  ACCESS:          0  HIT:          0  MISS:          0
cpu0_DTLB WRITEBACK ACCESS:          0  HIT:          0  MISS:          0
cpu0_ITLB TOTAL     ACCESS:     504326  HIT:     504326  MISS:          0
cpu0_ITLB LOAD      ACCESS:     504326  HIT:     504326  MISS:          0
cpu0_ITLB RFO       ACCESS:          0  HIT:          0  MISS:          0
cpu0_ITLB PREFETCH  ACCESS:          0  HIT:          0  MISS:          0
cpu0_ITLB WRITEBACK ACCESS:          0  HIT:          0  MISS:          0
cpu0_L1I TOTAL     ACCESS:    2540794  HIT:    2160414  MISS:     380380
cpu0_L1I LOAD      ACCESS:    2540794  HIT:    2160414  MISS:     380380
cpu0_L1I RFO       ACCESS:          0  HIT:          0  MISS:          0
cpu0_L1I PREFETCH  ACCESS:          0  HIT:          0  MISS:          0
cpu0_L1I WRITEBACK ACCESS:          0  HIT:          0  MISS:          0
cpu0_STLB TOTAL     ACCESS:     981269  HIT:     980219  MISS:       1050
cpu0_STLB LOAD      ACCESS:     863280  HIT:     862456  MISS:        824
cpu0_STLB RFO       ACCESS:     117989  HIT:     117763  MISS:        226
cpu0_STLB PREFETCH  ACCESS:          0  HIT:          0  MISS:          0
cpu0_STLB WRITEBACK ACCESS:          0  HIT:          0  MISS:          0
cpu0_L1D TOTAL     ACCESS:    9668496  HIT:    7791835  MISS:    1876661
cpu0_L1D LOAD      ACCESS:    7631190  HIT:    5913787  MISS:    1717403
cpu0_L1D RFO       ACCESS:    2036256  HIT:    1878048  MISS:     158208
cpu0_L1D PREFETCH  ACCESS:          0  HIT:          0  MISS:          0
cpu0_L1D WRITEBACK ACCESS:          0  HIT:          0  MISS:          0
cpu0_L2C TOTAL     ACCESS:    2424333  HIT:     580306  MISS:    1844027
cpu0_L2C LOAD      ACCESS:    2097511  HIT:     511761  MISS:    1585750
cpu0_L2C RFO       ACCESS:     157277  HIT:      18844  MISS:     138433
cpu0_L2C PREFETCH  ACCESS:          0  HIT:          0  MISS:          0
cpu0_L2C WRITEBACK ACCESS:     168495  HIT:      49701  MISS:     118794
LLC TOTAL     ACCESS:    1879161  HIT:    1811629  MISS:      67532
LLC LOAD      ACCESS:    1585625  HIT:    1533294  MISS:      52331
LLC RFO       ACCESS:     135503  HIT:     120303  MISS:      15200
LLC PREFETCH  ACCESS:          0  HIT:          0  MISS:          0
LLC WRITEBACK ACCESS:     156983  HIT:     156983  MISS:          0
Heartbeat CPU 0 instructions: 78000003 cycles: 38251428 heartbeat IPC: 1.44179 cumulative IPC: 1.44249 (Simulation time: 1 hr 21 min 33 sec) 

Region of Interest Statistics
cpu0_DTLB TOTAL     ACCESS:    7642315  HIT:    6585311  MISS:    1057004
cpu0_DTLB LOAD      ACCESS:    6533728  HIT:    5603795  MISS:     929933
cpu0_DTLB RFO       ACCESS:    1108587  HIT:     981516  MISS:     127071
cpu0_DTLB PREFETCH  ACCESS:          0  HIT:          0  MISS:          0
cpu0_DTLB WRITEBACK ACCESS:          0  HIT:          0  MISS:          0
cpu0_ITLB TOTAL     ACCESS:     543091  HIT:     543091  MISS:          0
cpu0_ITLB LOAD      ACCESS:     543091  HIT:     543091  MISS:          0
cpu0_ITLB RFO       ACCESS:          0  HIT:          0  MISS:          0
cpu0_ITLB PREFETCH  ACCESS:          0  HIT:          0  MISS:          0
cpu0_ITLB WRITEBACK ACCESS:          0  HIT:          0  MISS:          0
cpu0_L1I TOTAL     ACCESS:    2736021  HIT:    2327025  MISS:     408996
cpu0_L1I LOAD      ACCESS:    2736021  HIT:    2327025  MISS:     408996
cpu0_L1I RFO       ACCESS:          0  HIT:          0  MISS:          0
cpu0_L1I PREFETCH  ACCESS:          0  HIT:          0  MISS:          0
cpu0_L1I WRITEBACK ACCESS:          0  HIT:          0  MISS:          0
cpu0_STLB TOTAL     ACCESS:    1057004  HIT:    1055877  MISS:       1127
cpu0_STLB LOAD      ACCESS:     929933  HIT:     929057  MISS:        876
cpu0_STLB RFO       ACCESS:     127071  HIT:     126820  MISS:        251
cpu0_STLB PREFETCH  ACCESS:          0  HIT:          0  MISS:          0
cpu0_STLB WRITEBACK ACCESS:          0  HIT:          0  MISS:          0
cpu0_L1D TOTAL     ACCESS:   10412305  HIT:    8390914  MISS:    2021391
cpu0_L1D LOAD      ACCESS:    8218264  HIT:    6368538  MISS:    1849726
cpu0_L1D RFO       ACCESS:    2192914  HIT:    2022376  MISS:     170538
cpu0_L1D PREFETCH  ACCESS:          0  HIT:          0  MISS:          0
cpu0_L1D WRITEBACK ACCESS:          0  HIT:          0  MISS:          0
cpu0_L2C TOTAL     ACCESS:    2610740  HIT:     625441  MISS:    1985299
cpu0_L2C LOAD      ACCESS:    2258430  HIT:     551928  MISS:    1706502
cpu0_L2C RFO       ACCESS:     169521  HIT:      20393  MISS:     149128
cpu0_L2C PREFETCH  ACCESS:          0  HIT:          0  MISS:          0
cpu0_L2C WRITEBACK ACCESS:     181662  HIT:      53120  MISS:     128542
LLC TOTAL     ACCESS:    2022594  HIT:    1949856  MISS:      72738
LLC LOAD      ACCESS:    1706360  HIT:    1649998  MISS:      56362
LLC RFO       ACCESS:     145996  HIT:     129621  MISS:      16375
LLC PREFETCH  ACCESS:          0  HIT:          0  MISS:          0
LLC WRITEBACK ACCESS:     169111  HIT:     169111  MISS:          0
Heartbeat CPU 0 instructions: 80000000 cycles: 39648389 heartbeat IPC: 1.43168 cumulative IPC: 1.44176 (Simulation time: 1 hr 23 min 59 sec) 

Region of Interest Statistics
cpu0_DTLB TOTAL     ACCESS:    8188088  HIT:    7054764  MISS:    1133324
cpu0_DTLB LOAD      ACCESS:    7000420  HIT:    6003238  MISS:     997182
cpu0_DTLB RFO       ACCESS:    1187668  HIT:    1051526  MISS:     136142
cpu0_DTLB PREFETCH  ACCESS:          0  HIT:          0  MISS:          0
cpu0_DTLB WRITEBACK ACCESS:          0  HIT:          0  MISS:          0
cpu0_ITLB TOTAL     ACCESS:     581880  HIT:     581880  MISS:          0
cpu0_ITLB LOAD      ACCESS:     581880  HIT:     581880  MISS:          0
cpu0_ITLB RFO       ACCESS:          0  HIT:          0  MISS:          0
cpu0_ITLB PREFETCH  ACCESS:          0  HIT:          0  MISS:          0
cpu0_ITLB WRITEBACK ACCESS:          0  HIT:          0  MISS:          0
cpu0_L1I TOTAL     ACCESS:    2931484  HIT:    2493280  MISS:     438204
cpu0_L1I LOAD      ACCESS:    2931484  HIT:    2493280  MISS:     438204
cpu0_L1I RFO       ACCESS:          0  HIT:          0  MISS:          0
cpu0_L1I PREFETCH  ACCESS:          0  HIT:          0  MISS:          0
cpu0_L1I WRITEBACK ACCESS:          0  HIT:          0  MISS:          0
cpu0_STLB TOTAL     ACCESS:    1133324  HIT:    1132101  MISS:       1223
cpu0_STLB LOAD      ACCESS:     997182  HIT:     996235  MISS:        947
cpu0_STLB RFO       ACCESS:     136142  HIT:     135866  MISS:        276
cpu0_STLB PREFETCH  ACCESS:          0  HIT:          0  MISS:          0
cpu0_STLB WRITEBACK ACCESS:          0  HIT:          0  MISS:          0
cpu0_L1D TOTAL     ACCESS:   11156021  HIT:    8990249  MISS:    2165772
cpu0_L1D LOAD      ACCESS:    8805231  HIT:    6823363  MISS:    1981868
cpu0_L1D RFO       ACCESS:    2349567  HIT:    2166886  MISS:     182681
cpu0_L1D PREFETCH  ACCESS:          0  HIT:          0  MISS:          0
cpu0_L1D WRITEBACK ACCESS:          0  HIT:          0  MISS:          0
cpu0_L2C TOTAL     ACCESS:    2797215  HIT:     667816  MISS:    2129399
cpu0_L2C LOAD      ACCESS:    2419750  HIT:     589729  MISS:    1830021
cpu0_L2C RFO       ACCESS:     181606  HIT:      21870  MISS:     159736
cpu0_L2C PREFETCH  ACCESS:          0  HIT:          0  MISS:          0
cpu0_L2C WRITEBACK ACCESS:     194636  HIT:      56217  MISS:     138419
LLC TOTAL     ACCESS:    2168593  HIT:    2090541  MISS:      78052
LLC LOAD      ACCESS:    1829867  HIT:    1769377  MISS:      60490
LLC RFO       ACCESS:     156332  HIT:     138771  MISS:      17561
LLC PREFETCH  ACCESS:          0  HIT:          0  MISS:          0
LLC WRITEBACK ACCESS:     181171  HIT:     181171  MISS:          0
Heartbeat CPU 0 instructions: 82000000 cycles: 41032650 heartbeat IPC: 1.44481 cumulative IPC: 1.44195 (Simulation time: 1 hr 26 min 21 sec) 

Region of Interest Statistics
cpu0_DTLB TOTAL     ACCESS:    8734806  HIT:    7526373  MISS:    1208433
cpu0_DTLB LOAD      ACCESS:    7467896  HIT:    6404630  MISS:    1063266
cpu0_DTLB RFO       ACCESS:    1266910  HIT:    1121743  MISS:     145167
cpu0_DTLB PREFETCH  ACCESS:          0  HIT:          0  MISS:          0
cpu0_DTLB WRITEBACK ACCESS:          0  HIT:          0  MISS:          0
cpu0_ITLB TOTAL     ACCESS:     620652  HIT:     620652  MISS:          0
cpu0_ITLB LOAD      ACCESS:     620652  HIT:     620652  MISS:          0
cpu0_ITLB RFO       ACCESS:          0  HIT:          0  MISS:          0
cpu0_ITLB PREFETCH  ACCESS:          0  HIT:          0  MISS:          0
cpu0_ITLB WRITEBACK ACCESS:          0  HIT:          0  MISS:          0
cpu0_L1I TOTAL     ACCESS:    3126843  HIT:    2659357  MISS:     467486
cpu0_L1I LOAD      ACCESS:    3126843  HIT:    2659357  MISS:     467486
cpu0_L1I RFO       ACCESS:          0  HIT:          0  MISS:          0
cpu0_L1I PREFETCH  ACCESS:          0  HIT:          0  MISS:          0
cpu0_L1I WRITEBACK ACCESS:          0  HIT:          0  MISS:          0
cpu0_STLB TOTAL     ACCESS:    1208433  HIT:    1207146  MISS:       1287
cpu0_STLB LOAD      ACCESS:    1063266  HIT:    1062255  MISS:       1011
cpu0_STLB RFO       ACCESS:     145167  HIT:     144891  MISS:        276
cpu0_STLB PREFETCH  ACCESS:          0  HIT:          0  MISS:          0
cpu0_STLB WRITEBACK ACCESS:          0  HIT:          0  MISS:          0
cpu0_L1D TOTAL     ACCESS:   11900117  HIT:    9589871  MISS:    2310246
cpu0_L1D LOAD      ACCESS:    9392607  HIT:    7278506  MISS:    2114101
cpu0_L1D RFO       ACCESS:    2506223  HIT:    2311365  MISS:     194858
cpu0_L1D PREFETCH  ACCESS:          0  HIT:          0  MISS:          0
cpu0_L1D WRITEBACK ACCESS:          0  HIT:          0  MISS:          0
cpu0_L2C TOTAL     ACCESS:    2983836  HIT:     712474  MISS:    2271362
cpu0_L2C LOAD      ACCESS:    2581249  HIT:     628305  MISS:    1952944
cpu0_L2C RFO       ACCESS:     193713  HIT:      23339  MISS:     170374
cpu0_L2C PREFETCH  ACCESS:          0  HIT:          0  MISS:          0
cpu0_L2C WRITEBACK ACCESS:     207587  HIT:      60830  MISS:     146757
LLC TOTAL     ACCESS:    2313969  HIT:    2230786  MISS:      83183
LLC LOAD      ACCESS:    1952788  HIT:    1888331  MISS:      64457
LLC RFO       ACCESS:     166748  HIT:     148023  MISS:      18725
LLC PREFETCH  ACCESS:          0  HIT:          0  MISS:          0
LLC WRITEBACK ACCESS:     193146  HIT:     193146  MISS:          0
Heartbeat CPU 0 instructions: 84000001 cycles: 42420229 heartbeat IPC: 1.44136 cumulative IPC: 1.44192 (Simulation time: 1 hr 28 min 44 sec) 

Region of Interest Statistics
cpu0_DTLB TOTAL     ACCESS:    9280994  HIT:    7997209  MISS:    1283785
cpu0_DTLB LOAD      ACCESS:    7934820  HIT:    6805253  MISS:    1129567
cpu0_DTLB RFO       ACCESS:    1346174  HIT:    1191956  MISS:     154218
cpu0_DTLB PREFETCH  ACCESS:          0  HIT:          0  MISS:          0
cpu0_DTLB WRITEBACK ACCESS:          0  HIT:          0  MISS:          0
cpu0_ITLB TOTAL     ACCESS:     659467  HIT:     659467  MISS:          0
cpu0_ITLB LOAD      ACCESS:     659467  HIT:     659467  MISS:          0
cpu0_ITLB RFO       ACCESS:          0  HIT:          0  MISS:          0
cpu0_ITLB PREFETCH  ACCESS:          0  HIT:          0  MISS:          0
cpu0_ITLB WRITEBACK ACCESS:          0  HIT:          0  MISS:          0
cpu0_L1I TOTAL     ACCESS:    3322346  HIT:    2825614  MISS:     496732
cpu0_L1I LOAD      ACCESS:    3322346  HIT:    2825614  MISS:     496732
cpu0_L1I RFO       ACCESS:          0  HIT:          0  MISS:          0
cpu0_L1I PREFETCH  ACCESS:          0  HIT:          0  MISS:          0
cpu0_L1I WRITEBACK ACCESS:          0  HIT:          0  MISS:          0
cpu0_STLB TOTAL     ACCESS:    1283785  HIT:    1282417  MISS:       1368
cpu0_STLB LOAD      ACCESS:    1129567  HIT:    1128500  MISS:       1067
cpu0_STLB RFO       ACCESS:     154218  HIT:     153917  MISS:        301
cpu0_STLB PREFETCH  ACCESS:          0  HIT:          0  MISS:          0
cpu0_STLB WRITEBACK ACCESS:          0  HIT:          0  MISS:          0
cpu0_L1D TOTAL     ACCESS:   12643578  HIT:   10189026  MISS:    2454552
cpu0_L1D LOAD      ACCESS:    9979439  HIT:    7733382  MISS:    2246057
cpu0_L1D RFO       ACCESS:    2662771  HIT:    2455644  MISS:     207127
cpu0_L1D PREFETCH  ACCESS:          0  HIT:          0  MISS:          0
cpu0_L1D WRITEBACK ACCESS:          0  HIT:          0  MISS:          0
cpu0_L2C TOTAL     ACCESS:    3170394  HIT:     758167  MISS:    2412227
cpu0_L2C LOAD      ACCESS:    2742435  HIT:     668506  MISS:    2073929
cpu0_L2C RFO       ACCESS:     205907  HIT:      24867  MISS:     181040
cpu0_L2C PREFETCH  ACCESS:          0  HIT:          0  MISS:          0
cpu0_L2C WRITEBACK ACCESS:     220684  HIT:      64794  MISS:     155890
LLC TOTAL     ACCESS:    2457627  HIT:    2369238  MISS:      88389
LLC LOAD      ACCESS:    2073768  HIT:    2005280  MISS:      68488
LLC RFO       ACCESS:     177220  HIT:     157320  MISS:      19900
LLC PREFETCH  ACCESS:          0  HIT:          0  MISS:          0
LLC WRITEBACK ACCESS:     205271  HIT:     205271  MISS:          0
Heartbeat CPU 0 instructions: 86000000 cycles: 43809979 heartbeat IPC: 1.43911 cumulative IPC: 1.44176 (Simulation time: 1 hr 31 min 6 sec) 

Region of Interest Statistics
cpu0_DTLB TOTAL     ACCESS:    9826966  HIT:    8467511  MISS:    1359455
cpu0_DTLB LOAD      ACCESS:    8401489  HIT:    7205296  MISS:    1196193
cpu0_DTLB RFO       ACCESS:    1425477  HIT:    1262215  MISS:     163262
cpu0_DTLB PREFETCH  ACCESS:          0  HIT:          0  MISS:          0
cpu0_DTLB WRITEBACK ACCESS:          0  HIT:          0  MISS:          0
cpu0_ITLB TOTAL     ACCESS:     698229  HIT:     698229  MISS:          0
cpu0_ITLB LOAD      ACCESS:     698229  HIT:     698229  MISS:          0
cpu0_ITLB RFO       ACCESS:          0  HIT:          0  MISS:          0
cpu0_ITLB PREFETCH  ACCESS:          0  HIT:          0  MISS:          0
cpu0_ITLB WRITEBACK ACCESS:          0  HIT:          0  MISS:          0
cpu0_L1I TOTAL     ACCESS:    3517717  HIT:    2991876  MISS:     525841
cpu0_L1I LOAD      ACCESS:    3517717  HIT:    2991876  MISS:     525841
cpu0_L1I RFO       ACCESS:          0  HIT:          0  MISS:          0
cpu0_L1I PREFETCH  ACCESS:          0  HIT:          0  MISS:          0
cpu0_L1I WRITEBACK ACCESS:          0  HIT:          0  MISS:          0
cpu0_STLB TOTAL     ACCESS:    1359455  HIT:    1357995  MISS:       1460
cpu0_STLB LOAD      ACCESS:    1196193  HIT:    1195059  MISS:       1134
cpu0_STLB RFO       ACCESS:     163262  HIT:     162936  MISS:        326
cpu0_STLB PREFETCH  ACCESS:          0  HIT:          0  MISS:          0
cpu0_STLB WRITEBACK ACCESS:          0  HIT:          0  MISS:          0
cpu0_L1D TOTAL     ACCESS:   13387752  HIT:   10788613  MISS:    2599139
cpu0_L1D LOAD      ACCESS:   10566871  HIT:    8188546  MISS:    2378325
cpu0_L1D RFO       ACCESS:    2819421  HIT:    2600067  MISS:     219354
cpu0_L1D PREFETCH  ACCESS:          0  HIT:          0  MISS:          0
cpu0_L1D WRITEBACK ACCESS:          0  HIT:          0  MISS:          0
cpu0_L2C TOTAL     ACCESS:    3357022  HIT:     802930  MISS:    2554092
cpu0_L2C LOAD      ACCESS:    2903798  HIT:     707802  MISS:    2195996
cpu0_L2C RFO       ACCESS:     218070  HIT:      26374  MISS:     191696
cpu0_L2C PREFETCH  ACCESS:          0  HIT:          0  MISS:          0
cpu0_L2C WRITEBACK ACCESS:     233694  HIT:      68754  MISS:     164940
LLC TOTAL     ACCESS:    2602302  HIT:    2508696  MISS:      93606
LLC LOAD      ACCESS:    2195825  HIT:    2123295  MISS:      72530
LLC RFO       ACCESS:     187660  HIT:     166585  MISS:      21075
LLC PREFETCH  ACCESS:          0  HIT:          0  MISS:          0
LLC WRITEBACK ACCESS:     217357  HIT:     217357  MISS:          0
Heartbeat CPU 0 instructions: 88000001 cycles: 45193004 heartbeat IPC: 1.44611 cumulative IPC: 1.44199 (Simulation time: 1 hr 33 min 30 sec) 

Region of Interest Statistics
cpu0_DTLB TOTAL     ACCESS:   10373052  HIT:    8938184  MISS:    1434868
cpu0_DTLB LOAD      ACCESS:    8868292  HIT:    7605736  MISS:    1262556
cpu0_DTLB RFO       ACCESS:    1504760  HIT:    1332448  MISS:     172312
cpu0_DTLB PREFETCH  ACCESS:          0  HIT:          0  MISS:          0
cpu0_DTLB WRITEBACK ACCESS:          0  HIT:          0  MISS:          0
cpu0_ITLB TOTAL     ACCESS:     737016  HIT:     737016  MISS:          0
cpu0_ITLB LOAD      ACCESS:     737016  HIT:     737016  MISS:          0
cpu0_ITLB RFO       ACCESS:          0  HIT:          0  MISS:          0
cpu0_ITLB PREFETCH  ACCESS:          0  HIT:          0  MISS:          0
cpu0_ITLB WRITEBACK ACCESS:          0  HIT:          0  MISS:          0
cpu0_L1I TOTAL     ACCESS:    3713036  HIT:    3158164  MISS:     554872
cpu0_L1I LOAD      ACCESS:    3713036  HIT:    3158164  MISS:     554872
cpu0_L1I RFO       ACCESS:          0  HIT:          0  MISS:          0
cpu0_L1I PREFETCH  ACCESS:          0  HIT:          0  MISS:          0
cpu0_L1I WRITEBACK ACCESS:          0  HIT:          0  MISS:          0
cpu0_STLB TOTAL     ACCESS:    1434868  HIT:    1433348  MISS:       1520
cpu0_STLB LOAD      ACCESS:    1262556  HIT:    1261362  MISS:       1194
cpu0_STLB RFO       ACCESS:     172312  HIT:     171986  MISS:        326
cpu0_STLB PREFETCH  ACCESS:          0  HIT:          0  MISS:          0
cpu0_STLB WRITEBACK ACCESS:          0  HIT:          0  MISS:          0
cpu0_L1D TOTAL     ACCESS:   14132255  HIT:   11388855  MISS:    2743400
cpu0_L1D LOAD      ACCESS:   11154711  HIT:    8644376  MISS:    2510335
cpu0_L1D RFO       ACCESS:    2976024  HIT:    2744479  MISS:     231545
cpu0_L1D PREFETCH  ACCESS:          0  HIT:          0  MISS:          0
cpu0_L1D WRITEBACK ACCESS:          0  HIT:          0  MISS:          0
cpu0_L2C TOTAL     ACCESS:    3543233  HIT:     847564  MISS:    2695669
cpu0_L2C LOAD      ACCESS:    3064820  HIT:     747117  MISS:    2317703
cpu0_L2C RFO       ACCESS:     230196  HIT:      27805  MISS:     202391
cpu0_L2C PREFETCH  ACCESS:          0  HIT:          0  MISS:          0
cpu0_L2C WRITEBACK ACCESS:     246697  HIT:      72642  MISS:     174055
LLC TOTAL     ACCESS:    2746478  HIT:    2647755  MISS:      98723
LLC LOAD      ACCESS:    2317517  HIT:    2241020  MISS:      76497
LLC RFO       ACCESS:     198034  HIT:     175809  MISS:      22225
LLC PREFETCH  ACCESS:          0  HIT:          0  MISS:          0
LLC WRITEBACK ACCESS:     229407  HIT:     229407  MISS:          0
Heartbeat CPU 0 instructions: 90000001 cycles: 46590062 heartbeat IPC: 1.43158 cumulative IPC: 1.44147 (Simulation time: 1 hr 35 min 52 sec) 

Region of Interest Statistics
cpu0_DTLB TOTAL     ACCESS:   10919417  HIT:    9408958  MISS:    1510459
cpu0_DTLB LOAD      ACCESS:    9335557  HIT:    8006481  MISS:    1329076
cpu0_DTLB RFO       ACCESS:    1583860  HIT:    1402477  MISS:     181383
cpu0_DTLB PREFETCH  ACCESS:          0  HIT:          0  MISS:          0
cpu0_DTLB WRITEBACK ACCESS:          0  HIT:          0  MISS:          0
cpu0_ITLB TOTAL     ACCESS:     775789  HIT:     775789  MISS:          0
cpu0_ITLB LOAD      ACCESS:     775789  HIT:     775789  MISS:          0
cpu0_ITLB RFO       ACCESS:          0  HIT:          0  MISS:          0
cpu0_ITLB PREFETCH  ACCESS:          0  HIT:          0  MISS:          0
cpu0_ITLB WRITEBACK ACCESS:          0  HIT:          0  MISS:          0
cpu0_L1I TOTAL     ACCESS:    3908415  HIT:    3324230  MISS:     584185
cpu0_L1I LOAD      ACCESS:    3908415  HIT:    3324230  MISS:     584185
cpu0_L1I RFO       ACCESS:          0  HIT:          0  MISS:          0
cpu0_L1I PREFETCH  ACCESS:          0  HIT:          0  MISS:          0
cpu0_L1I WRITEBACK ACCESS:          0  HIT:          0  MISS:          0
cpu0_STLB TOTAL     ACCESS:    1510459  HIT:    1508854  MISS:       1605
cpu0_STLB LOAD      ACCESS:    1329076  HIT:    1327822  MISS:       1254
cpu0_STLB RFO       ACCESS:     181383  HIT:     181032  MISS:        351
cpu0_STLB PREFETCH  ACCESS:          0  HIT:          0  MISS:          0
cpu0_STLB WRITEBACK ACCESS:          0  HIT:          0  MISS:          0
cpu0_L1D TOTAL     ACCESS:   14875956  HIT:   11987959  MISS:    2887997
cpu0_L1D LOAD      ACCESS:   11741589  HIT:    9098879  MISS:    2642710
cpu0_L1D RFO       ACCESS:    3132762  HIT:    2889080  MISS:     243682
cpu0_L1D PREFETCH  ACCESS:          0  HIT:          0  MISS:          0
cpu0_L1D WRITEBACK ACCESS:          0  HIT:          0  MISS:          0
cpu0_L2C TOTAL     ACCESS:    3729946  HIT:     892563  MISS:    2837383
cpu0_L2C LOAD      ACCESS:    3226492  HIT:     786890  MISS:    2439602
cpu0_L2C RFO       ACCESS:     242265  HIT:      29264  MISS:     213001
cpu0_L2C PREFETCH  ACCESS:          0  HIT:          0  MISS:          0
cpu0_L2C WRITEBACK ACCESS:     259584  HIT:      76409  MISS:     183175
LLC TOTAL     ACCESS:    2890869  HIT:    2786829  MISS:     104040
LLC LOAD      ACCESS:    2439411  HIT:    2358797  MISS:      80614
LLC RFO       ACCESS:     208499  HIT:     185074  MISS:      23425
LLC PREFETCH  ACCESS:          0  HIT:          0  MISS:          0
LLC WRITEBACK ACCESS:     241354  HIT:     241354  MISS:          0
Heartbeat CPU 0 instructions: 92000002 cycles: 47974049 heartbeat IPC: 1.4451 cumulative IPC: 1.44164 (Simulation time: 1 hr 38 min 14 sec) 

Region of Interest Statistics
cpu0_DTLB TOTAL     ACCESS:   11466268  HIT:    9880235  MISS:    1586033
cpu0_DTLB LOAD      ACCESS:    9803052  HIT:    8407501  MISS:    1395551
cpu0_DTLB RFO       ACCESS:    1663216  HIT:    1472734  MISS:     190482
cpu0_DTLB PREFETCH  ACCESS:          0  HIT:          0  MISS:          0
cpu0_DTLB WRITEBACK ACCESS:          0  HIT:          0  MISS:          0
cpu0_ITLB TOTAL     ACCESS:     814594  HIT:     814594  MISS:          0
cpu0_ITLB LOAD      ACCESS:     814594  HIT:     814594  MISS:          0
cpu0_ITLB RFO       ACCESS:          0  HIT:          0  MISS:          0
cpu0_ITLB PREFETCH  ACCESS:          0  HIT:          0  MISS:          0
cpu0_ITLB WRITEBACK ACCESS:          0  HIT:          0  MISS:          0
cpu0_L1I TOTAL     ACCESS:    4103879  HIT:    3490517  MISS:     613362
cpu0_L1I LOAD      ACCESS:    4103879  HIT:    3490517  MISS:     613362
cpu0_L1I RFO       ACCESS:          0  HIT:          0  MISS:          0
cpu0_L1I PREFETCH  ACCESS:          0  HIT:          0  MISS:          0
cpu0_L1I WRITEBACK ACCESS:          0  HIT:          0  MISS:          0
cpu0_STLB TOTAL     ACCESS:    1586033  HIT:    1584332  MISS:       1701
cpu0_STLB LOAD      ACCESS:    1395551  HIT:    1394226  MISS:       1325
cpu0_STLB RFO       ACCESS:     190482  HIT:     190106  MISS:        376
cpu0_STLB PREFETCH  ACCESS:          0  HIT:          0  MISS:          0
cpu0_STLB WRITEBACK ACCESS:          0  HIT:          0  MISS:          0
cpu0_L1D TOTAL     ACCESS:   15619280  HIT:   12586821  MISS:    3032459
cpu0_L1D LOAD      ACCESS:   12328256  HIT:    9553464  MISS:    2774792
cpu0_L1D RFO       ACCESS:    3289323  HIT:    3033357  MISS:     255966
cpu0_L1D PREFETCH  ACCESS:          0  HIT:          0  MISS:          0
cpu0_L1D WRITEBACK ACCESS:          0  HIT:          0  MISS:          0
cpu0_L2C TOTAL     ACCESS:    3916533  HIT:     936107  MISS:    2980426
cpu0_L2C LOAD      ACCESS:    3387735  HIT:     825222  MISS:    2562513
cpu0_L2C RFO       ACCESS:     254477  HIT:      30857  MISS:     223620
cpu0_L2C PREFETCH  ACCESS:          0  HIT:          0  MISS:          0
cpu0_L2C WRITEBACK ACCESS:     272620  HIT:      80028  MISS:     192592
LLC TOTAL     ACCESS:    3036338  HIT:    2927148  MISS:     109190
LLC LOAD      ACCESS:    2562309  HIT:    2477695  MISS:      84614
LLC RFO       ACCESS:     218895  HIT:     194320  MISS:      24575
LLC PREFETCH  ACCESS:          0  HIT:          0  MISS:          0
LLC WRITEBACK ACCESS:     253433  HIT:     253433  MISS:          0
Heartbeat CPU 0 instructions: 94000001 cycles: 49359190 heartbeat IPC: 1.4439 cumulative IPC: 1.44174 (Simulation time: 1 hr 40 min 31 sec) 

Region of Interest Statistics
cpu0_DTLB TOTAL     ACCESS:   12012161  HIT:   10350753  MISS:    1661408
cpu0_DTLB LOAD      ACCESS:   10269918  HIT:    8808024  MISS:    1461894
cpu0_DTLB RFO       ACCESS:    1742243  HIT:    1542729  MISS:     199514
cpu0_DTLB PREFETCH  ACCESS:          0  HIT:          0  MISS:          0
cpu0_DTLB WRITEBACK ACCESS:          0  HIT:          0  MISS:          0
cpu0_ITLB TOTAL     ACCESS:     853314  HIT:     853314  MISS:          0
cpu0_ITLB LOAD      ACCESS:     853314  HIT:     853314  MISS:          0
cpu0_ITLB RFO       ACCESS:          0  HIT:          0  MISS:          0
cpu0_ITLB PREFETCH  ACCESS:          0  HIT:          0  MISS:          0
cpu0_ITLB WRITEBACK ACCESS:          0  HIT:          0  MISS:          0
cpu0_L1I TOTAL     ACCESS:    4299196  HIT:    3656996  MISS:     642200
cpu0_L1I LOAD      ACCESS:    4299196  HIT:    3656996  MISS:     642200
cpu0_L1I RFO       ACCESS:          0  HIT:          0  MISS:          0
cpu0_L1I PREFETCH  ACCESS:          0  HIT:          0  MISS:          0
cpu0_L1I WRITEBACK ACCESS:          0  HIT:          0  MISS:          0
cpu0_STLB TOTAL     ACCESS:    1661408  HIT:    1659619  MISS:       1789
cpu0_STLB LOAD      ACCESS:    1461894  HIT:    1460506  MISS:       1388
cpu0_STLB RFO       ACCESS:     199514  HIT:     199113  MISS:        401
cpu0_STLB PREFETCH  ACCESS:          0  HIT:          0  MISS:          0
cpu0_STLB WRITEBACK ACCESS:          0  HIT:          0  MISS:          0
cpu0_L1D TOTAL     ACCESS:   16362089  HIT:   13185238  MISS:    3176851
cpu0_L1D LOAD      ACCESS:   12914199  HIT:   10007291  MISS:    2906908
cpu0_L1D RFO       ACCESS:    3446101  HIT:    3177947  MISS:     268154
cpu0_L1D PREFETCH  ACCESS:          0  HIT:          0  MISS:          0
cpu0_L1D WRITEBACK ACCESS:          0  HIT:          0  MISS:          0
cpu0_L2C TOTAL     ACCESS:    4102664  HIT:     979398  MISS:    3123266
cpu0_L2C LOAD      ACCESS:    3548670  HIT:     863703  MISS:    2684967
cpu0_L2C RFO       ACCESS:     266592  HIT:      32628  MISS:     233964
cpu0_L2C PREFETCH  ACCESS:          0  HIT:          0  MISS:          0
cpu0_L2C WRITEBACK ACCESS:     285613  HIT:      83067  MISS:     202546
LLC TOTAL     ACCESS:    3181208  HIT:    3066845  MISS:     114363
LLC LOAD      ACCESS:    2684753  HIT:    2596141  MISS:      88612
LLC RFO       ACCESS:     229044  HIT:     203294  MISS:      25750
LLC PREFETCH  ACCESS:          0  HIT:          0  MISS:          0
LLC WRITEBACK ACCESS:     265622  HIT:     265622  MISS:          0
Heartbeat CPU 0 instructions: 96000000 cycles: 50751125 heartbeat IPC: 1.43685 cumulative IPC: 1.44153 (Simulation time: 1 hr 42 min 56 sec) 

Region of Interest Statistics
cpu0_DTLB TOTAL     ACCESS:   12559320  HIT:   10822695  MISS:    1736625
cpu0_DTLB LOAD      ACCESS:   10737807  HIT:    9209748  MISS:    1528059
cpu0_DTLB RFO       ACCESS:    1821513  HIT:    1612947  MISS:     208566
cpu0_DTLB PREFETCH  ACCESS:          0  HIT:          0  MISS:          0
cpu0_DTLB WRITEBACK ACCESS:          0  HIT:          0  MISS:          0
cpu0_ITLB TOTAL     ACCESS:     892110  HIT:     892110  MISS:          0
cpu0_ITLB LOAD      ACCESS:     892110  HIT:     892110  MISS:          0
cpu0_ITLB RFO       ACCESS:          0  HIT:          0  MISS:          0
cpu0_ITLB PREFETCH  ACCESS:          0  HIT:          0  MISS:          0
cpu0_ITLB WRITEBACK ACCESS:          0  HIT:          0  MISS:          0
cpu0_L1I TOTAL     ACCESS:    4494518  HIT:    3823067  MISS:     671451
cpu0_L1I LOAD      ACCESS:    4494518  HIT:    3823067  MISS:     671451
cpu0_L1I RFO       ACCESS:          0  HIT:          0  MISS:          0
cpu0_L1I PREFETCH  ACCESS:          0  HIT:          0  MISS:          0
cpu0_L1I WRITEBACK ACCESS:          0  HIT:          0  MISS:          0
cpu0_STLB TOTAL     ACCESS:    1736625  HIT:    1734772  MISS:       1853
cpu0_STLB LOAD      ACCESS:    1528059  HIT:    1526607  MISS:       1452
cpu0_STLB RFO       ACCESS:     208566  HIT:     208165  MISS:        401
cpu0_STLB PREFETCH  ACCESS:          0  HIT:          0  MISS:          0
cpu0_STLB WRITEBACK ACCESS:          0  HIT:          0  MISS:          0
cpu0_L1D TOTAL     ACCESS:   17106907  HIT:   13785645  MISS:    3321262
cpu0_L1D LOAD      ACCESS:   13502198  HIT:   10463061  MISS:    3039137
cpu0_L1D RFO       ACCESS:    3602856  HIT:    3322584  MISS:     280272
cpu0_L1D PREFETCH  ACCESS:          0  HIT:          0  MISS:          0
cpu0_L1D WRITEBACK ACCESS:          0  HIT:          0  MISS:          0
cpu0_L2C TOTAL     ACCESS:    4289091  HIT:    1024554  MISS:    3264537
cpu0_L2C LOAD      ACCESS:    3710124  HIT:     903799  MISS:    2806325
cpu0_L2C RFO       ACCESS:     278628  HIT:      34180  MISS:     244448
cpu0_L2C PREFETCH  ACCESS:          0  HIT:          0  MISS:          0
cpu0_L2C WRITEBACK ACCESS:     298486  HIT:      86575  MISS:     211911
LLC TOTAL     ACCESS:    3324946  HIT:    3205366  MISS:     119580
LLC LOAD      ACCESS:    2806104  HIT:    2713450  MISS:      92654
LLC RFO       ACCESS:     239216  HIT:     212291  MISS:      26925
LLC PREFETCH  ACCESS:          0  HIT:          0  MISS:          0
LLC WRITEBACK ACCESS:     277773  HIT:     277773  MISS:          0
Heartbeat CPU 0 instructions: 98000003 cycles: 52136929 heartbeat IPC: 1.44321 cumulative IPC: 1.4416 (Simulation time: 1 hr 45 min 18 sec) 

Region of Interest Statistics
cpu0_DTLB TOTAL     ACCESS:   13105472  HIT:   11293524  MISS:    1811948
cpu0_DTLB LOAD      ACCESS:   11204898  HIT:    9610656  MISS:    1594242
cpu0_DTLB RFO       ACCESS:    1900574  HIT:    1682868  MISS:     217706
cpu0_DTLB PREFETCH  ACCESS:          0  HIT:          0  MISS:          0
cpu0_DTLB WRITEBACK ACCESS:          0  HIT:          0  MISS:          0
cpu0_ITLB TOTAL     ACCESS:     930914  HIT:     930914  MISS:          0
cpu0_ITLB LOAD      ACCESS:     930914  HIT:     930914  MISS:          0
cpu0_ITLB RFO       ACCESS:          0  HIT:          0  MISS:          0
cpu0_ITLB PREFETCH  ACCESS:          0  HIT:          0  MISS:          0
cpu0_ITLB WRITEBACK ACCESS:          0  HIT:          0  MISS:          0
cpu0_L1I TOTAL     ACCESS:    4689997  HIT:    3989131  MISS:     700866
cpu0_L1I LOAD      ACCESS:    4689997  HIT:    3989131  MISS:     700866
cpu0_L1I RFO       ACCESS:          0  HIT:          0  MISS:          0
cpu0_L1I PREFETCH  ACCESS:          0  HIT:          0  MISS:          0
cpu0_L1I WRITEBACK ACCESS:          0  HIT:          0  MISS:          0
cpu0_STLB TOTAL     ACCESS:    1811948  HIT:    1810010  MISS:       1938
cpu0_STLB LOAD      ACCESS:    1594242  HIT:    1592730  MISS:       1512
cpu0_STLB RFO       ACCESS:     217706  HIT:     217280  MISS:        426
cpu0_STLB PREFETCH  ACCESS:          0  HIT:          0  MISS:          0
cpu0_STLB WRITEBACK ACCESS:          0  HIT:          0  MISS:          0
cpu0_L1D TOTAL     ACCESS:   17850245  HIT:   14384535  MISS:    3465710
cpu0_L1D LOAD      ACCESS:   14088777  HIT:   10917456  MISS:    3171321
cpu0_L1D RFO       ACCESS:    3759530  HIT:    3467079  MISS:     292451
cpu0_L1D PREFETCH  ACCESS:          0  HIT:          0  MISS:          0
cpu0_L1D WRITEBACK ACCESS:          0  HIT:          0  MISS:          0
cpu0_L2C TOTAL     ACCESS:    4475838  HIT:    1068389  MISS:    3407449
cpu0_L2C LOAD      ACCESS:    3871710  HIT:     942808  MISS:    2928902
cpu0_L2C RFO       ACCESS:     290741  HIT:      35732  MISS:     255009
cpu0_L2C PREFETCH  ACCESS:          0  HIT:          0  MISS:          0
cpu0_L2C WRITEBACK ACCESS:     311449  HIT:      89849  MISS:     221600
LLC TOTAL     ACCESS:    3469964  HIT:    3345192  MISS:     124772
LLC LOAD      ACCESS:    2928668  HIT:    2831972  MISS:      96696
LLC RFO       ACCESS:     249538  HIT:     221463  MISS:      28075
LLC PREFETCH  ACCESS:          0  HIT:          0  MISS:          0
LLC WRITEBACK ACCESS:     289820  HIT:     289820  MISS:          0
Heartbeat CPU 0 instructions: 100000001 cycles: 53518616 heartbeat IPC: 1.4475 cumulative IPC: 1.44183 (Simulation time: 1 hr 47 min 37 sec) 

Region of Interest Statistics
cpu0_DTLB TOTAL     ACCESS:   13650982  HIT:   11763890  MISS:    1887092
cpu0_DTLB LOAD      ACCESS:   11671166  HIT:   10010848  MISS:    1660318
cpu0_DTLB RFO       ACCESS:    1979816  HIT:    1753042  MISS:     226774
cpu0_DTLB PREFETCH  ACCESS:          0  HIT:          0  MISS:          0
cpu0_DTLB WRITEBACK ACCESS:          0  HIT:          0  MISS:          0
cpu0_ITLB TOTAL     ACCESS:     969701  HIT:     969701  MISS:          0
cpu0_ITLB LOAD      ACCESS:     969701  HIT:     969701  MISS:          0
cpu0_ITLB RFO       ACCESS:          0  HIT:          0  MISS:          0
cpu0_ITLB PREFETCH  ACCESS:          0  HIT:          0  MISS:          0
cpu0_ITLB WRITEBACK ACCESS:          0  HIT:          0  MISS:          0
cpu0_L1I TOTAL     ACCESS:    4885374  HIT:    4155434  MISS:     729940
cpu0_L1I LOAD      ACCESS:    4885374  HIT:    4155434  MISS:     729940
cpu0_L1I RFO       ACCESS:          0  HIT:          0  MISS:          0
cpu0_L1I PREFETCH  ACCESS:          0  HIT:          0  MISS:          0
cpu0_L1I WRITEBACK ACCESS:          0  HIT:          0  MISS:          0
cpu0_STLB TOTAL     ACCESS:    1887092  HIT:    1885062  MISS:       2030
cpu0_STLB LOAD      ACCESS:    1660318  HIT:    1658739  MISS:       1579
cpu0_STLB RFO       ACCESS:     226774  HIT:     226323  MISS:        451
cpu0_STLB PREFETCH  ACCESS:          0  HIT:          0  MISS:          0
cpu0_STLB WRITEBACK ACCESS:          0  HIT:          0  MISS:          0
cpu0_L1D TOTAL     ACCESS:   18593380  HIT:   14983015  MISS:    3610365
cpu0_L1D LOAD      ACCESS:   14675200  HIT:   11371484  MISS:    3303716
cpu0_L1D RFO       ACCESS:    3916150  HIT:    3611531  MISS:     304619
cpu0_L1D PREFETCH  ACCESS:          0  HIT:          0  MISS:          0
cpu0_L1D WRITEBACK ACCESS:          0  HIT:          0  MISS:          0
cpu0_L2C TOTAL     ACCESS:    4662449  HIT:    1111778  MISS:    3550671
cpu0_L2C LOAD      ACCESS:    4033159  HIT:     981225  MISS:    3051934
cpu0_L2C RFO       ACCESS:     302832  HIT:      37157  MISS:     265675
cpu0_L2C PREFETCH  ACCESS:          0  HIT:          0  MISS:          0
cpu0_L2C WRITEBACK ACCESS:     324428  HIT:      93396  MISS:     231032
LLC TOTAL     ACCESS:    3615549  HIT:    3485636  MISS:     129913
LLC LOAD      ACCESS:    3051681  HIT:    2951019  MISS:     100662
LLC RFO       ACCESS:     259971  HIT:     230721  MISS:      29250
LLC PREFETCH  ACCESS:          0  HIT:          0  MISS:          0
LLC WRITEBACK ACCESS:     301867  HIT:     301867  MISS:          0
Heartbeat CPU 0 instructions: 102000004 cycles: 54912401 heartbeat IPC: 1.43494 cumulative IPC: 1.44157 (Simulation time: 1 hr 49 min 56 sec) 

Region of Interest Statistics
cpu0_DTLB TOTAL     ACCESS:   14196964  HIT:   12234226  MISS:    1962738
cpu0_DTLB LOAD      ACCESS:   12137958  HIT:   10411085  MISS:    1726873
cpu0_DTLB RFO       ACCESS:    2059006  HIT:    1823141  MISS:     235865
cpu0_DTLB PREFETCH  ACCESS:          0  HIT:          0  MISS:          0
cpu0_DTLB WRITEBACK ACCESS:          0  HIT:          0  MISS:          0
cpu0_ITLB TOTAL     ACCESS:    1008444  HIT:    1008444  MISS:          0
cpu0_ITLB LOAD      ACCESS:    1008444  HIT:    1008444  MISS:          0
cpu0_ITLB RFO       ACCESS:          0  HIT:          0  MISS:          0
cpu0_ITLB PREFETCH  ACCESS:          0  HIT:          0  MISS:          0
cpu0_ITLB WRITEBACK ACCESS:          0  HIT:          0  MISS:          0
cpu0_L1I TOTAL     ACCESS:    5080743  HIT:    4321856  MISS:     758887
cpu0_L1I LOAD      ACCESS:    5080743  HIT:    4321856  MISS:     758887
cpu0_L1I RFO       ACCESS:          0  HIT:          0  MISS:          0
cpu0_L1I PREFETCH  ACCESS:          0  HIT:          0  MISS:          0
cpu0_L1I WRITEBACK ACCESS:          0  HIT:          0  MISS:          0
cpu0_STLB TOTAL     ACCESS:    1962738  HIT:    1960616  MISS:       2122
cpu0_STLB LOAD      ACCESS:    1726873  HIT:    1725227  MISS:       1646
cpu0_STLB RFO       ACCESS:     235865  HIT:     235389  MISS:        476
cpu0_STLB PREFETCH  ACCESS:          0  HIT:          0  MISS:          0
cpu0_STLB WRITEBACK ACCESS:          0  HIT:          0  MISS:          0
cpu0_L1D TOTAL     ACCESS:   19336831  HIT:   15582129  MISS:    3754702
cpu0_L1D LOAD      ACCESS:   15261815  HIT:   11826001  MISS:    3435814
cpu0_L1D RFO       ACCESS:    4072894  HIT:    3756128  MISS:     316766
cpu0_L1D PREFETCH  ACCESS:          0  HIT:          0  MISS:          0
cpu0_L1D WRITEBACK ACCESS:          0  HIT:          0  MISS:          0
cpu0_L2C TOTAL     ACCESS:    4848577  HIT:    1156556  MISS:    3692021
cpu0_L2C LOAD      ACCESS:    4194179  HIT:    1020943  MISS:    3173236
cpu0_L2C RFO       ACCESS:     314895  HIT:      38589  MISS:     276306
cpu0_L2C PREFETCH  ACCESS:          0  HIT:          0  MISS:          0
cpu0_L2C WRITEBACK ACCESS:     337381  HIT:      97024  MISS:     240357
LLC TOTAL     ACCESS:    3759546  HIT:    3624315  MISS:     135231
LLC LOAD      ACCESS:    3172968  HIT:    3068188  MISS:     104780
LLC RFO       ACCESS:     270423  HIT:     239973  MISS:      30450
LLC PREFETCH  ACCESS:          0  HIT:          0  MISS:          0
LLC WRITEBACK ACCESS:     314033  HIT:     314033  MISS:          0
Heartbeat CPU 0 instructions: 104000004 cycles: 56292802 heartbeat IPC: 1.44885 cumulative IPC: 1.44184 (Simulation time: 1 hr 52 min 14 sec) 

Region of Interest Statistics
cpu0_DTLB TOTAL     ACCESS:   14742523  HIT:   12704169  MISS:    2038354
cpu0_DTLB LOAD      ACCESS:   12604489  HIT:   10811164  MISS:    1793325
cpu0_DTLB RFO       ACCESS:    2138034  HIT:    1893005  MISS:     245029
cpu0_DTLB PREFETCH  ACCESS:          0  HIT:          0  MISS:          0
cpu0_DTLB WRITEBACK ACCESS:          0  HIT:          0  MISS:          0
cpu0_ITLB TOTAL     ACCESS:    1047250  HIT:    1047250  MISS:          0
cpu0_ITLB LOAD      ACCESS:    1047250  HIT:    1047250  MISS:          0
cpu0_ITLB RFO       ACCESS:          0  HIT:          0  MISS:          0
cpu0_ITLB PREFETCH  ACCESS:          0  HIT:          0  MISS:          0
cpu0_ITLB WRITEBACK ACCESS:          0  HIT:          0  MISS:          0
cpu0_L1I TOTAL     ACCESS:    5276143  HIT:    4487973  MISS:     788170
cpu0_L1I LOAD      ACCESS:    5276143  HIT:    4487973  MISS:     788170
cpu0_L1I RFO       ACCESS:          0  HIT:          0  MISS:          0
cpu0_L1I PREFETCH  ACCESS:          0  HIT:          0  MISS:          0
cpu0_L1I WRITEBACK ACCESS:          0  HIT:          0  MISS:          0
cpu0_STLB TOTAL     ACCESS:    2038354  HIT:    2036179  MISS:       2175
cpu0_STLB LOAD      ACCESS:    1793325  HIT:    1791626  MISS:       1699
cpu0_STLB RFO       ACCESS:     245029  HIT:     244553  MISS:        476
cpu0_STLB PREFETCH  ACCESS:          0  HIT:          0  MISS:          0
cpu0_STLB WRITEBACK ACCESS:          0  HIT:          0  MISS:          0
cpu0_L1D TOTAL     ACCESS:   20081107  HIT:   16182203  MISS:    3898904
cpu0_L1D LOAD      ACCESS:   15849340  HIT:   12281488  MISS:    3567852
cpu0_L1D RFO       ACCESS:    4229592  HIT:    3900715  MISS:     328877
cpu0_L1D PREFETCH  ACCESS:          0  HIT:          0  MISS:          0
cpu0_L1D WRITEBACK ACCESS:          0  HIT:          0  MISS:          0
cpu0_L2C TOTAL     ACCESS:    5034890  HIT:    1201540  MISS:    3833350
cpu0_L2C LOAD      ACCESS:    4355477  HIT:    1061780  MISS:    3293697
cpu0_L2C RFO       ACCESS:     326943  HIT:      40084  MISS:     286859
cpu0_L2C PREFETCH  ACCESS:          0  HIT:          0  MISS:          0
cpu0_L2C WRITEBACK ACCESS:     350295  HIT:      99676  MISS:     250619
LLC TOTAL     ACCESS:    3902488  HIT:    3762140  MISS:     140348
LLC LOAD      ACCESS:    3293424  HIT:    3184677  MISS:     108747
LLC RFO       ACCESS:     280813  HIT:     249213  MISS:      31600
LLC PREFETCH  ACCESS:          0  HIT:          0  MISS:          0
LLC WRITEBACK ACCESS:     326076  HIT:     326076  MISS:          0
Heartbeat CPU 0 instructions: 106000003 cycles: 57680076 heartbeat IPC: 1.44168 cumulative IPC: 1.44183 (Simulation time: 1 hr 54 min 35 sec) 

Region of Interest Statistics
cpu0_DTLB TOTAL     ACCESS:   15288745  HIT:   13175248  MISS:    2113497
cpu0_DTLB LOAD      ACCESS:   13071417  HIT:   11211998  MISS:    1859419
cpu0_DTLB RFO       ACCESS:    2217328  HIT:    1963250  MISS:     254078
cpu0_DTLB PREFETCH  ACCESS:          0  HIT:          0  MISS:          0
cpu0_DTLB WRITEBACK ACCESS:          0  HIT:          0  MISS:          0
cpu0_ITLB TOTAL     ACCESS:    1086048  HIT:    1086048  MISS:          0
cpu0_ITLB LOAD      ACCESS:    1086048  HIT:    1086048  MISS:          0
cpu0_ITLB RFO       ACCESS:          0  HIT:          0  MISS:          0
cpu0_ITLB PREFETCH  ACCESS:          0  HIT:          0  MISS:          0
cpu0_ITLB WRITEBACK ACCESS:          0  HIT:          0  MISS:          0
cpu0_L1I TOTAL     ACCESS:    5471641  HIT:    4654356  MISS:     817285
cpu0_L1I LOAD      ACCESS:    5471641  HIT:    4654356  MISS:     817285
cpu0_L1I RFO       ACCESS:          0  HIT:          0  MISS:          0
cpu0_L1I PREFETCH  ACCESS:          0  HIT:          0  MISS:          0
cpu0_L1I WRITEBACK ACCESS:          0  HIT:          0  MISS:          0
cpu0_STLB TOTAL     ACCESS:    2113497  HIT:    2111226  MISS:       2271
cpu0_STLB LOAD      ACCESS:    1859419  HIT:    1857649  MISS:       1770
cpu0_STLB RFO       ACCESS:     254078  HIT:     253577  MISS:        501
cpu0_STLB PREFETCH  ACCESS:          0  HIT:          0  MISS:          0
cpu0_STLB WRITEBACK ACCESS:          0  HIT:          0  MISS:          0
cpu0_L1D TOTAL     ACCESS:   20824767  HIT:   16781634  MISS:    4043133
cpu0_L1D LOAD      ACCESS:   16436148  HIT:   12736351  MISS:    3699797
cpu0_L1D RFO       ACCESS:    4386348  HIT:    4045283  MISS:     341065
cpu0_L1D PREFETCH  ACCESS:          0  HIT:          0  MISS:          0
cpu0_L1D WRITEBACK ACCESS:          0  HIT:          0  MISS:          0
cpu0_L2C TOTAL     ACCESS:    5221088  HIT:    1246361  MISS:    3974727
cpu0_L2C LOAD      ACCESS:    4516524  HIT:    1101855  MISS:    3414669
cpu0_L2C RFO       ACCESS:     339052  HIT:      41655  MISS:     297397
cpu0_L2C PREFETCH  ACCESS:          0  HIT:          0  MISS:          0
[...]
cpu0_ITLB RFO       ACCESS:          0  HIT:          0  MISS:          0
cpu0_ITLB PREFETCH  ACCESS:          0  HIT:          0  MISS:          0
cpu0_ITLB WRITEBACK ACCESS:          0  HIT:          0  MISS:          0
cpu0_L1I TOTAL     ACCESS:  146562731  HIT:  124681573  MISS:   21881158
cpu0_L1I LOAD      ACCESS:  146562731  HIT:  124681573  MISS:   21881158
cpu0_L1I RFO       ACCESS:          0  HIT:          0  MISS:          0
cpu0_L1I PREFETCH  ACCESS:          0  HIT:          0  MISS:          0
cpu0_L1I WRITEBACK ACCESS:          0  HIT:          0  MISS:          0
cpu0_STLB TOTAL     ACCESS:   56641210  HIT:   56578756  MISS:      62454
cpu0_STLB LOAD      ACCESS:   49838100  HIT:   49789575  MISS:      48525
cpu0_STLB RFO       ACCESS:    6803110  HIT:    6789181  MISS:      13929
cpu0_STLB PREFETCH  ACCESS:          0  HIT:          0  MISS:          0
cpu0_STLB WRITEBACK ACCESS:          0  HIT:          0  MISS:          0
cpu0_L1D TOTAL     ACCESS:  557779337  HIT:  449479011  MISS:  108300326
cpu0_L1D LOAD      ACCESS:  440239333  HIT:  341140696  MISS:   99098637
cpu0_L1D RFO       ACCESS:  117478198  HIT:  108337822  MISS:    9140376
cpu0_L1D PREFETCH  ACCESS:          0  HIT:          0  MISS:          0
cpu0_L1D WRITEBACK ACCESS:          0  HIT:          0  MISS:          0
cpu0_L2C TOTAL     ACCESS:  139849862  HIT:   33293874  MISS:  106555988
cpu0_L2C LOAD      ACCESS:  120964296  HIT:   29309566  MISS:   91654730
cpu0_L2C RFO       ACCESS:    9086277  HIT:    1100369  MISS:    7985908
cpu0_L2C PREFETCH  ACCESS:          0  HIT:          0  MISS:          0
cpu0_L2C WRITEBACK ACCESS:    9737976  HIT:    2883923  MISS:    6854053
LLC TOTAL     ACCESS:  108595277  HIT:  104650110  MISS:    3945167
LLC LOAD      ACCESS:   91646689  HIT:   88579572  MISS:    3067117
LLC RFO       ACCESS:    7816895  HIT:    6938859  MISS:     878036
LLC PREFETCH  ACCESS:          0  HIT:          0  MISS:          0
LLC WRITEBACK ACCESS:    9070396  HIT:    9070396  MISS:          0
Finished CPU 0 instructions: 1500000003 cycles: 1042038303 cumulative IPC: 1.43949 (Simulation time: 20 hr 58 min 34 sec) 

ChampSim completed all CPUs

Region of Interest Statistics

CPU 0 cumulative IPC: 1.43949 instructions: 1500000003 cycles: 1042038303
cpu0_DTLB TOTAL     ACCESS:  409468024  HIT:  352826814  MISS:   56641210
cpu0_DTLB LOAD      ACCESS:  350092866  HIT:  300254766  MISS:   49838100
cpu0_DTLB RFO       ACCESS:   59375158  HIT:   52572048  MISS:    6803110
cpu0_DTLB PREFETCH  ACCESS:          0  HIT:          0  MISS:          0
cpu0_DTLB WRITEBACK ACCESS:          0  HIT:          0  MISS:          0
cpu0_DTLB TRANSLATION ACCESS:          0  HIT:          0  MISS:          0
cpu0_DTLB PREFETCH  REQUESTED:          0  ISSUED:          0  USEFUL:          0  USELESS:          0
cpu0_DTLB AVERAGE MISS LATENCY: 9.62343 cycles
cpu0_ITLB TOTAL     ACCESS:   29098206  HIT:   29098206  MISS:          0
cpu0_ITLB LOAD      ACCESS:   29098206  HIT:   29098206  MISS:          0
cpu0_ITLB RFO       ACCESS:          0  HIT:          0  MISS:          0
cpu0_ITLB PREFETCH  ACCESS:          0  HIT:          0  MISS:          0
cpu0_ITLB WRITEBACK ACCESS:          0  HIT:          0  MISS:          0
cpu0_ITLB TRANSLATION ACCESS:          0  HIT:          0  MISS:          0
cpu0_ITLB PREFETCH  REQUESTED:          0  ISSUED:          0  USEFUL:          0  USELESS:          0
cpu0_ITLB AVERAGE MISS LATENCY: -nan cycles
cpu0_L1I TOTAL     ACCESS:  146562731  HIT:  124681573  MISS:   21881158
cpu0_L1I LOAD      ACCESS:  146562731  HIT:  124681573  MISS:   21881158
cpu0_L1I RFO       ACCESS:          0  HIT:          0  MISS:          0
cpu0_L1I PREFETCH  ACCESS:          0  HIT:          0  MISS:          0
cpu0_L1I WRITEBACK ACCESS:          0  HIT:          0  MISS:          0
cpu0_L1I TRANSLATION ACCESS:          0  HIT:          0  MISS:          0
cpu0_L1I PREFETCH  REQUESTED:          0  ISSUED:          0  USEFUL:          0  USELESS:          0
cpu0_L1I AVERAGE MISS LATENCY: 16.1941 cycles
cpu0_STLB TOTAL     ACCESS:   56641210  HIT:   56578756  MISS:      62454
cpu0_STLB LOAD      ACCESS:   49838100  HIT:   49789575  MISS:      48525
cpu0_STLB RFO       ACCESS:    6803110  HIT:    6789181  MISS:      13929
cpu0_STLB PREFETCH  ACCESS:          0  HIT:          0  MISS:          0
cpu0_STLB WRITEBACK ACCESS:          0  HIT:          0  MISS:          0
cpu0_STLB TRANSLATION ACCESS:          0  HIT:          0  MISS:          0
cpu0_STLB PREFETCH  REQUESTED:          0  ISSUED:          0  USEFUL:          0  USELESS:          0
cpu0_STLB AVERAGE MISS LATENCY: 214.56 cycles
cpu0_L1D TOTAL     ACCESS:  557779338  HIT:  449479011  MISS:  108300327
cpu0_L1D LOAD      ACCESS:  440239334  HIT:  341140696  MISS:   99098638
cpu0_L1D RFO       ACCESS:  117478198  HIT:  108337822  MISS:    9140376
cpu0_L1D PREFETCH  ACCESS:          0  HIT:          0  MISS:          0
cpu0_L1D WRITEBACK ACCESS:          0  HIT:          0  MISS:          0
cpu0_L1D TRANSLATION ACCESS:      61806  HIT:        493  MISS:      61313
cpu0_L1D PREFETCH  REQUESTED:          0  ISSUED:          0  USEFUL:          0  USELESS:          0
cpu0_L1D AVERAGE MISS LATENCY: 64.4755 cycles
cpu0_L2C TOTAL     ACCESS:  139849863  HIT:   33293874  MISS:  106555989
cpu0_L2C LOAD      ACCESS:  120964297  HIT:   29309566  MISS:   91654731
cpu0_L2C RFO       ACCESS:    9086277  HIT:    1100369  MISS:    7985908
cpu0_L2C PREFETCH  ACCESS:          0  HIT:          0  MISS:          0
cpu0_L2C WRITEBACK ACCESS:    9737976  HIT:    2883923  MISS:    6854053
cpu0_L2C TRANSLATION ACCESS:      61313  HIT:         16  MISS:      61297
cpu0_L2C PREFETCH  REQUESTED:          0  ISSUED:          0  USEFUL:          0  USELESS:          0
cpu0_L2C AVERAGE MISS LATENCY: 55.0378 cycles
LLC TOTAL     ACCESS:  108595277  HIT:  104650110  MISS:    3945167
LLC LOAD      ACCESS:   91646689  HIT:   88579572  MISS:    3067117
LLC RFO       ACCESS:    7816895  HIT:    6938859  MISS:     878036
LLC PREFETCH  ACCESS:          0  HIT:          0  MISS:          0
LLC WRITEBACK ACCESS:    9070396  HIT:    9070396  MISS:          0
LLC TRANSLATION ACCESS:      61297  HIT:      61283  MISS:         14
LLC PREFETCH  REQUESTED:          0  ISSUED:          0  USEFUL:          0  USELESS:          0
LLC AVERAGE MISS LATENCY: 956.576 cycles
~~~~~~~~~~Reuse Distance Profiler output~~~~~~~~~~
0	13977408	2111200
1	8547600	2970672
2	7896688	4780048
3	9814688	6892480
4	11155824	8042800
5	10891392	8794752
6	10831072	9037104
7	10810992	9364032
8	10801072	8756304
9	10274448	8595248
10	10562144	8515504
11	9588976	7665408
12	8889584	7019120
13	8558272	6829776
14	7874624	6330096
15	7283280	5958480
16	6949552	5716848
17	7792832	5936144
18	7159264	5799152
19	6323472	5122496
20	6067776	4881616
21	6147968	4790208
22	5872112	4718320
23	5825376	4684848
24	5716224	4539984
25	5703936	4438240
26	5752528	4508496
27	5096608	4065680
28	4782640	3942848
29	4862272	4052224
30	4641536	3902768
31	4299088	3605920
32	4141120	3415312
33	4251536	3460576
34	3982800	3191984
35	4074560	3190592
36	4025056	3084240
37	3838416	3095088
38	3906864	3185488
39	3755008	3122656
40	3723088	3131472
41	3516048	2926256
42	3322816	2683344
43	3241520	2670560
44	3044272	2547552
45	2968624	2484928
46	2897616	2449536
47	2698928	2239136
48	2710208	2190416
49	2676928	2141424
50	2697632	2138800
51	2781440	2234512
52	2780272	2277008
53	2679024	2201360
54	2601664	2150944
55	2592976	2194192
56	2331280	1963568
57	2386016	1991568
58	2360016	1982032
59	2167168	1830272
60	2141248	1786416
61	2011840	1704480
62	1800048	1513440
63	1668096	1414032
64	3097360	2656560
66	3062624	2583648
68	2835232	2363344
70	2655840	2202752
72	2718960	2273024
74	2651776	2209280
76	2391328	2022544
78	2450224	2068864
80	2314224	1953680
82	2011600	1601392
84	1905520	1426208
86	1878752	1424320
88	1728368	1282576
90	1657664	1248720
92	1423360	1088256
94	1324368	1004624
96	1183120	906592
98	1265488	991824
100	1263936	961904
102	1290800	922448
104	1149360	787488
106	1095552	753632
108	1046000	733376
110	984864	696160
112	888496	609680
114	842736	566704
116	877984	630768
118	901040	675328
120	932720	699152
122	834736	589376
124	763728	504704
126	671296	425744
128	1353904	923136
132	1330176	911184
136	1270624	794784
140	1277776	803392
144	1234672	826048
148	1351616	983600
152	1325536	971568
156	1130304	822432
160	998288	749648
164	830752	604880
168	635376	410160
172	548448	353232
176	572720	397232
180	601984	432912
184	663936	510352
188	747456	604256
192	725312	597808
196	672000	566400
200	635536	541120
204	728912	642688
208	724752	630560
212	763424	612928
216	653584	465376
220	680944	509520
224	616496	473648
228	547024	429808
232	512304	413952
236	415376	344752
240	397664	318208
244	419536	315392
248	430736	319920
252	489184	390704
256	870160	741040
264	631136	572176
272	635376	481008
280	588240	324464
288	534032	331760
296	578000	365984
304	748768	480224
312	759872	521904
320	586784	430672
328	439424	337776
336	312192	213744
344	267504	158016
352	285728	163712
360	437744	297424
368	487696	327712
376	505808	382208
384	464544	354656
392	465248	377584
400	623200	505232
408	566256	429472
416	450880	356032
424	332992	244848
432	254192	137312
440	206256	107232
448	257728	163744
456	321552	184672
464	258256	118528
472	189216	99440
480	188000	110160
488	239168	135168
496	283200	156128
504	274960	149792
512	391696	266736
528	347136	266624
544	407056	297776
560	317808	187760
576	444784	359920
592	354272	273696
608	336752	291936
624	380960	335072
640	431632	364816
656	443328	297392
672	353152	200432
688	362064	118912
704	358240	117360
720	316976	127152
736	349712	183696
752	301840	194016
768	209632	158576
784	202112	163568
800	206368	157728
816	234704	166448
832	249872	173744
848	264432	190976
864	304512	188400
880	274016	154688
896	214272	126912
912	195456	103520
928	219344	112400
944	372336	201184
960	385488	203200
976	193552	69104
992	141248	28304
1008	198560	61248
1024	497200	239584
1056	684912	170544
1088	690288	61216
1120	820320	91216
1152	973392	287184
1184	998912	519056
1216	988384	707152
1248	744976	527440
1280	717952	393664
1312	822784	401424
1344	793296	441728
1376	634704	489072
1408	465648	313152
1440	414640	291696
1472	375088	302416
1504	331520	274496
1536	305728	191712
1568	354432	189232
1600	518352	364144
1632	547888	423808
1664	551808	417936
1696	732448	530944
1728	757152	568688
1760	517760	427616
1792	373680	337072
1824	555136	534624
1856	1058192	1028976
1888	2203072	2166432
1920	4608992	4539536
1952	7668720	7502256
1984	13890752	13184848
2016	24391072	22407248
2048	38642784	35662480
2112	5330240	4940048
2176	1662992	1560096
2240	1585552	1463536
2304	80	80
2368	0	0
2432	64	48
2496	0	0
2560	16	16
2624	0	0
2688	0	0
2752	0	0
2816	16	16
2880	0	0
2944	0	0
3008	0	0
3072	16	16
3136	0	0
3200	0	0
3264	16	16
3328	0	0
3392	0	0
3456	0	0
3520	16	16
3584	0	0
3648	0	0
3712	0	0
3776	0	0
3840	16	16
3904	112	112
3968	480	416
4032	816	816
4096	624	624
4224	112	96
4352	592	560
4480	560	560
4608	0	0
4736	0	0
4864	0	0
4992	0	0
5120	0	0
5248	0	0
5376	0	0
5504	0	0
5632	0	0
5760	0	0
5888	16	16
6016	784	784
6144	800	800
6272	112	112
6400	0	0
6528	0	0
6656	16	16
6784	16	16
6912	0	0
7040	0	0
7168	0	0
7296	0	0
7424	0	0
7552	0	0
7680	0	0
7808	0	0
7936	0	0
8064	400	400
8192	720	720
8448	0	0
8704	0	0
8960	64	64
9216	0	0
9472	0	0
9728	0	0
9984	1088	1088
10240	2208	2208
10496	16	16
10752	0	0
11008	128	128
11264	80	80
11520	0	0
11776	0	0
12032	144	144
12288	608	608
12544	0	0
12800	0	0
13056	0	0
13312	80	80
13568	0	0
13824	16	16
14080	592	592
14336	1776	1776
14592	0	0
14848	0	0
15104	0	0
15360	0	0
15616	208	208
15872	16	16
16128	400	400
16384	1392	1392
16896	0	0
17408	0	0
17920	9264	9264
18432	37088	37088
18944	0	0
19456	0	0
19968	104896	104896
20480	261376	261376
20992	0	0
21504	0	0
22016	10768	10768
22528	2208	2208
23040	32	32
23552	0	0
24064	272	272
24576	720	720
25088	0	0
25600	0	0
26112	80	80
26624	224	224
27136	0	0
27648	0	0
28160	80	80
28672	192	192
29184	0	0
29696	0	0
30208	224	224
30720	720	720
31232	32	32
31744	0	0
32256	464	464
32768	1536	1536
33792	880	880
34816	4528	4528
35840	256	256
36864	800	800
37888	256	256
38912	368	368
39936	48	48
40960	304	304
41984	48	48
43008	112	112
44032	16	16
45056	32	32
46080	16	16
47104	32	32
48128	16	16
49152	128	128
50176	0	0
51200	176	176
52224	48	48
53248	624	624
54272	1152	1152
55296	9616	9616
56320	0	0
57344	32	32
58368	16	16
59392	0	0
60416	336	336
61440	32	32
62464	0	0
63488	0	0
64512	0	0
65536	16	16
67584	0	0
69632	0	0
71680	16	16
73728	240	240
75776	3552	3552
77824	0	0
79872	0	0
81920	80	80
83968	0	0
86016	0	0
88064	0	0
90112	0	0
92160	0	0
94208	0	0
96256	0	0
98304	0	0
100352	0	0
102400	0	0
104448	0	0
106496	0	0
108544	0	0
110592	0	0
112640	0	0
114688	0	0
116736	0	0
118784	0	0
120832	0	0
122880	0	0
124928	0	0
126976	0	0
129024	0	0
131072	0	0
135168	0	0
139264	0	0
143360	0	0
147456	0	0
151552	0	0
155648	0	0
159744	0	0
163840	0	0
167936	0	0
172032	0	0
176128	0	0
180224	0	0
184320	0	0
188416	0	0
192512	0	0
196608	0	0
200704	0	0
204800	0	0
208896	0	0
212992	0	0
217088	0	0
221184	0	0
225280	0	0
229376	0	0
233472	0	0
237568	0	0
241664	0	0
245760	0	0
249856	0	0
253952	0	0
258048	0	0
262144	0	0
270336	0	0
278528	0	0
286720	0	0
294912	0	0
303104	32	32
311296	1166192	1166192
319488	5856048	5856048
327680	1039696	1039696
335872	170912	170912
344064	48064	48064
352256	209696	209696
360448	10752	10752
368640	2704	2704
376832	144	144
385024	112	112
393216	64	64
401408	32	32
409600	64	64
417792	32	32
425984	0	0
434176	0	0
442368	0	0
450560	0	0
458752	0	0
466944	0	0
475136	0	0
483328	0	0
491520	0	0
499712	0	0
507904	0	0
516096	0	0
524288	0	0
540672	0	0
557056	0	0
573440	0	0
589824	0	0
606208	0	0
622592	0	0
638976	624	624
655360	256	256
671744	2944	2944
688128	1584	1584
704512	528	528
720896	208	208
737280	144	144
753664	64	64
770048	0	0
786432	16	16
802816	32	32
819200	0	0
835584	0	0
851968	0	0
868352	0	0
884736	0	0
901120	0	0
917504	0	0
933888	0	0
950272	0	0
966656	0	0
983040	256	256
999424	624	624
1015808	1232	1232
1032192	1312	1312
1048576	640	640
1081344	112	112
1114112	64	64
1146880	32	32
1179648	16	16
1212416	0	0
1245184	0	0
1277952	0	0
1310720	512	512
1343488	1808	1808
1376256	688	688
1409024	32	32
1441792	16	16
1474560	16	16
1507328	32	32
1540096	16	16
1572864	0	0
1605632	0	0
1638400	16	16
1671168	1776	1776
1703936	2272	2272
1736704	96	96
1769472	32	32
1802240	0	0
1835008	64	64
1867776	80	80
1900544	16	16
1933312	0	0
1966080	0	0
1998848	544	544
2031616	1072	1072
2064384	320	320
2097152	48	48
2162688	64	64
2228224	64	64
2293760	48	48
2359296	1968	1968
2424832	32	32
2490368	0	0
2555904	16	16
2621440	0	0
2686976	912	912
2752512	64	64
2818048	0	0
2883584	0	0
2949120	32	32
3014656	976	976
3080192	464	464
3145728	0	0
3211264	0	0
3276800	0	0
3342336	144	144
3407872	5648	5648
3473408	0	0
3538944	16	16
3604480	0	0
3670016	176	176
3735552	112	112
3801088	0	0
3866624	0	0
3932160	0	0
3997696	0	0
4063232	48	48
4128768	32	32
4194304	0	0
4325376	16	16
4456448	64	64
4587520	0	0
4718592	48	48
4849664	0	0
4980736	0	0
5111808	80	80
5242880	0	0
5373952	32	32
5505024	16	16
5636096	0	0
5767168	48	48
5898240	0	0
6029312	0	0
6160384	0	0
6291456	0	0
6422528	0	0
6553600	0	0
6684672	16	16
6815744	0	0
6946816	0	0
7077888	0	0
7208960	0	0
7340032	0	0
7471104	0	0
7602176	0	0
7733248	0	0
7864320	0	0
7995392	0	0
8126464	0	0
8257536	0	0
8388608	0	0
8650752	0	0
8912896	0	0
9175040	0	0
9437184	0	0
9699328	0	0
9961472	0	0
10223616	0	0
10485760	0	0
10747904	0	0
11010048	0	0
11272192	0	0
11534336	0	0
11796480	0	0
12058624	0	0
12320768	0	0
12582912	0	0
12845056	0	0
13107200	0	0
13369344	0	0
13631488	0	0
13893632	0	0
14155776	0	0
14417920	0	0
14680064	0	0
14942208	0	0
15204352	0	0
15466496	0	0
15728640	0	0
15990784	0	0
16252928	0	0
16515072	0	0
16777216	0	0
17301504	0	0
17825792	0	0
18350080	0	0
18874368	0	0
19398656	0	0
19922944	0	0
20447232	0	0
20971520	0	0
21495808	0	0
22020096	0	0
22544384	0	0
23068672	0	0
23592960	0	0
24117248	0	0
24641536	0	0
25165824	0	0
25690112	0	0
26214400	0	0
26738688	0	0
27262976	0	0
27787264	0	0
28311552	0	0
28835840	0	0
29360128	0	0
29884416	0	0
30408704	0	0
30932992	0	0
31457280	0	0
31981568	0	0
32505856	0	0
33030144	0	0
33554432	0	0
34603008	0	0
35651584	0	0
36700160	0	0
37748736	0	0
38797312	0	0
39845888	0	0
40894464	80	32
41943040	0	0
42991616	0	0
44040192	0	0
45088768	0	0
46137344	0	0
47185920	0	0
48234496	0	0
49283072	0	0
50331648	80	80
51380224	64	64
52428800	32	32
53477376	32	32
54525952	1363056	1363056
55574528	334672	334672
56623104	297760	297760
57671680	4128	4128
58720256	0	0
59768832	0	0
60817408	0	0
61865984	0	0
62914560	0	0
63963136	0	0
65011712	0	0
66060288	0	0
67108864	0	0
69206016	0	0
71303168	0	0
73400320	0	0
75497472	0	0
77594624	0	0
79691776	0	0
81788928	0	0
83886080	48	16
85983232	0	0
88080384	0	0
90177536	0	0
92274688	0	0
94371840	0	0
96468992	0	0
98566144	0	0
100663296	0	0
102760448	0	0
104857600	0	0
106954752	0	0
109051904	0	0
111149056	0	0
113246208	0	0
115343360	0	0
117440512	0	0
119537664	0	0
121634816	0	0
123731968	0	0
125829120	0	0
127926272	0	0
130023424	0	0
132120576	0	0
134217728	0	0
138412032	0	0
142606336	0	0
146800640	0	0
150994944	0	0
155189248	0	0
159383552	0	0
163577856	0	0
167772160	0	0
171966464	0	0
176160768	0	0
180355072	0	0
184549376	0	0
188743680	0	0
192937984	0	0
197132288	0	0
201326592	0	0
205520896	0	0
209715200	0	0
213909504	0	0
218103808	0	0
222298112	0	0
226492416	0	0
230686720	0	0
234881024	0	0
239075328	0	0
243269632	0	0
247463936	0	0
251658240	0	0
255852544	0	0
260046848	0	0
264241152	0	0
268435456	0	0
276824064	0	0
285212672	0	0
293601280	0	0
301989888	0	0
310378496	0	0
318767104	0	0
327155712	0	0
335544320	0	0
343932928	0	0
352321536	0	0
360710144	0	0
369098752	0	0
377487360	0	0
385875968	0	0
394264576	0	0
402653184	0	0
411041792	0	0
419430400	0	0
427819008	80	16
436207616	0	0
444596224	0	0
452984832	0	0
461373440	0	0
469762048	0	0
478150656	0	0
486539264	0	0
494927872	0	0
503316480	0	0
511705088	0	0
520093696	0	0
528482304	0	0
536870912	0	0
553648128	0	0
570425344	0	0
587202560	0	0
603979776	0	0
620756992	0	0
637534208	0	0
654311424	0	0
671088640	0	0
687865856	0	0
704643072	0	0
721420288	0	0
738197504	0	0
754974720	0	0
771751936	0	0
788529152	0	0
805306368	0	0
822083584	0	0
838860800	0	0
855638016	0	0
872415232	0	0
889192448	0	0
905969664	0	0
922746880	0	0
939524096	0	0
956301312	0	0
973078528	0	0
989855744	0	0
1006632960	0	0
1023410176	0	0
1040187392	0	0
1056964608	0	0
1073741824	0	0
1107296256	0	0
1140850688	0	0
1174405120	0	0
1207959552	0	0
1241513984	0	0
1275068416	0	0
1308622848	0	0
1342177280	0	0
1375731712	0	0
1409286144	0	0
1442840576	0	0
1476395008	0	0
1509949440	0	0
1543503872	0	0
1577058304	0	0
1610612736	0	0
1644167168	0	0
1677721600	0	0
1711276032	0	0
1744830464	0	0
1778384896	0	0
1811939328	0	0
1845493760	0	0
1879048192	0	0
1912602624	0	0
1946157056	0	0
1979711488	0	0
2013265920	0	0
2046820352	0	0
2080374784	0	0
2113929216	0	0
2147483648	0	0
2214592512	0	0
2281701376	0	0
2348810240	0	0
2415919104	0	0
2483027968	0	0
2550136832	0	0
2617245696	0	0
2684354560	0	0
2751463424	0	0
2818572288	0	0
2885681152	0	0
2952790016	0	0
3019898880	0	0
3087007744	0	0
3154116608	0	0
3221225472	0	0
3288334336	0	0
3355443200	0	0
3422552064	0	0
3489660928	0	0
3556769792	0	0
3623878656	0	0
3690987520	0	0
3758096384	0	0
3825205248	0	0
3892314112	0	0
3959422976	0	0
4026531840	0	0
4093640704	0	0
4160749568	0	0
4227858432	0	0
~~~~~~~~~~Reuse Distance Profiler output end~~~~~~~~~~

Sampler size:130763

DRAM Statistics
 CHANNEL 0
 RQ ROW_BUFFER_HIT:        164  ROW_BUFFER_MISS:    3945003
 DBUS AVG_CONGESTED_CYCLE:     3.9994
 WQ ROW_BUFFER_HIT:      10211  ROW_BUFFER_MISS:     867256  FULL:          0


CPU 0 Branch Prediction Accuracy: 99.9626% MPKI: 0.00331333 Average ROB Occupancy at Mispredict: 53.3264
Branch type MPKI
BRANCH_DIRECT_JUMP: 6.66667e-07
BRANCH_INDIRECT: 1.33333e-06
BRANCH_CONDITIONAL: 0.00330733
BRANCH_DIRECT_CALL: 2e-06
BRANCH_INDIRECT_CALL: 0
BRANCH_RETURN: 2e-06

