
*** ChampSim Multicore Out-of-Order Simulator ***

Warmup Instructions: 50000000
Simulation Instructions: 1500000000
Number of CPUs: 1
Off-chip DRAM Size: 4 GiB Channels: 1 Width: 64-bit Data Rate: 3200 MT/s

VirtualMemory physical capacity: 8588881920 num_ppages: 2096895
VirtualMemory page size: 4096 log2_page_size: 12

CPU 0 runs /s/traces/champsim_traces/621.wrf_s-6673B.champsimtrace.xz
CPU 0 Bimodal branch predictor
Basic BTB sets: 1024 ways: 8 indirect buffer size: 4096 RAS size: 64
Initializing LRU.
Initializing LRU.
Initializing LRU.
Initializing LRU.
Initializing rdLRU.
Initializing LRU.
Initializing LRU.
Heartbeat CPU 0 instructions: 2000001 cycles: 583736 heartbeat IPC: 3.42621 cumulative IPC: 3.42621 (Simulation time: 0 hr 1 min 23 sec) 
Heartbeat CPU 0 instructions: 4000000 cycles: 1382285 heartbeat IPC: 2.50454 cumulative IPC: 2.89376 (Simulation time: 0 hr 3 min 36 sec) 
Heartbeat CPU 0 instructions: 6000001 cycles: 2246107 heartbeat IPC: 2.31529 cumulative IPC: 2.67129 (Simulation time: 0 hr 5 min 40 sec) 
Heartbeat CPU 0 instructions: 8000003 cycles: 3109140 heartbeat IPC: 2.31741 cumulative IPC: 2.57306 (Simulation time: 0 hr 7 min 53 sec) 
Heartbeat CPU 0 instructions: 10000002 cycles: 3923316 heartbeat IPC: 2.45647 cumulative IPC: 2.54886 (Simulation time: 0 hr 9 min 57 sec) 
Heartbeat CPU 0 instructions: 12000000 cycles: 4432311 heartbeat IPC: 3.92931 cumulative IPC: 2.70739 (Simulation time: 0 hr 10 min 59 sec) 
Heartbeat CPU 0 instructions: 14000003 cycles: 5109335 heartbeat IPC: 2.95411 cumulative IPC: 2.74008 (Simulation time: 0 hr 12 min 29 sec) 
Heartbeat CPU 0 instructions: 16000001 cycles: 5697836 heartbeat IPC: 3.39846 cumulative IPC: 2.80808 (Simulation time: 0 hr 13 min 54 sec) 
Heartbeat CPU 0 instructions: 18000000 cycles: 6199527 heartbeat IPC: 3.98652 cumulative IPC: 2.90345 (Simulation time: 0 hr 14 min 53 sec) 
Heartbeat CPU 0 instructions: 20000003 cycles: 6758641 heartbeat IPC: 3.57709 cumulative IPC: 2.95918 (Simulation time: 0 hr 16 min 7 sec) 
Heartbeat CPU 0 instructions: 22000000 cycles: 7350014 heartbeat IPC: 3.38196 cumulative IPC: 2.99319 (Simulation time: 0 hr 17 min 34 sec) 
Heartbeat CPU 0 instructions: 24000002 cycles: 7894798 heartbeat IPC: 3.67118 cumulative IPC: 3.03998 (Simulation time: 0 hr 18 min 46 sec) 
Heartbeat CPU 0 instructions: 26000002 cycles: 8411275 heartbeat IPC: 3.87239 cumulative IPC: 3.09109 (Simulation time: 0 hr 19 min 53 sec) 
Heartbeat CPU 0 instructions: 28000001 cycles: 8929640 heartbeat IPC: 3.85828 cumulative IPC: 3.13562 (Simulation time: 0 hr 21 min 0 sec) 
Heartbeat CPU 0 instructions: 30000001 cycles: 9429640 heartbeat IPC: 4 cumulative IPC: 3.18146 (Simulation time: 0 hr 22 min 0 sec) 
Heartbeat CPU 0 instructions: 32000002 cycles: 9952217 heartbeat IPC: 3.82719 cumulative IPC: 3.21536 (Simulation time: 0 hr 23 min 6 sec) 
Heartbeat CPU 0 instructions: 34000001 cycles: 10507084 heartbeat IPC: 3.60447 cumulative IPC: 3.23591 (Simulation time: 0 hr 24 min 28 sec) 
Heartbeat CPU 0 instructions: 36000001 cycles: 11073151 heartbeat IPC: 3.53315 cumulative IPC: 3.25111 (Simulation time: 0 hr 25 min 48 sec) 
Heartbeat CPU 0 instructions: 38000001 cycles: 11662671 heartbeat IPC: 3.39259 cumulative IPC: 3.25826 (Simulation time: 0 hr 27 min 12 sec) 
Heartbeat CPU 0 instructions: 40000002 cycles: 12177879 heartbeat IPC: 3.88193 cumulative IPC: 3.28464 (Simulation time: 0 hr 28 min 16 sec) 
Heartbeat CPU 0 instructions: 42000002 cycles: 12677879 heartbeat IPC: 4 cumulative IPC: 3.31286 (Simulation time: 0 hr 29 min 17 sec) 
Heartbeat CPU 0 instructions: 44000004 cycles: 13222697 heartbeat IPC: 3.67095 cumulative IPC: 3.32761 (Simulation time: 0 hr 30 min 29 sec) 
Heartbeat CPU 0 instructions: 46000002 cycles: 13746185 heartbeat IPC: 3.82052 cumulative IPC: 3.34638 (Simulation time: 0 hr 31 min 33 sec) 
Heartbeat CPU 0 instructions: 48000000 cycles: 14305241 heartbeat IPC: 3.57746 cumulative IPC: 3.35541 (Simulation time: 0 hr 32 min 42 sec) 
Heartbeat CPU 0 instructions: 50000002 cycles: 15006071 heartbeat IPC: 2.85376 cumulative IPC: 3.33198 (Simulation time: 0 hr 34 min 17 sec) 

Warmup complete CPU 0 instructions: 50000002 cycles: 15006071 (Simulation time: 0 hr 34 min 17 sec) 

Heartbeat CPU 0 instructions: 52000001 cycles: 18329373 heartbeat IPC: 0.601811 cumulative IPC: 0.601811 (Simulation time: 0 hr 38 min 20 sec) 

Region of Interest Statistics
cpu0_DTLB TOTAL     ACCESS:     571862  HIT:     553760  MISS:      18102
cpu0_DTLB LOAD      ACCESS:     520665  HIT:     507511  MISS:      13154
cpu0_DTLB RFO       ACCESS:      51197  HIT:      46249  MISS:       4948
cpu0_DTLB PREFETCH  ACCESS:          0  HIT:          0  MISS:          0
cpu0_DTLB WRITEBACK ACCESS:          0  HIT:          0  MISS:          0
cpu0_ITLB TOTAL     ACCESS:     127801  HIT:     127793  MISS:          8
cpu0_ITLB LOAD      ACCESS:     127801  HIT:     127793  MISS:          8
cpu0_ITLB RFO       ACCESS:          0  HIT:          0  MISS:          0
cpu0_ITLB PREFETCH  ACCESS:          0  HIT:          0  MISS:          0
cpu0_ITLB WRITEBACK ACCESS:          0  HIT:          0  MISS:          0
cpu0_L1I TOTAL     ACCESS:      31064  HIT:      30830  MISS:        234
cpu0_L1I LOAD      ACCESS:      31064  HIT:      30830  MISS:        234
cpu0_L1I RFO       ACCESS:          0  HIT:          0  MISS:          0
cpu0_L1I PREFETCH  ACCESS:          0  HIT:          0  MISS:          0
cpu0_L1I WRITEBACK ACCESS:          0  HIT:          0  MISS:          0
cpu0_STLB TOTAL     ACCESS:      18110  HIT:      17619  MISS:        491
cpu0_STLB LOAD      ACCESS:      13162  HIT:      12682  MISS:        480
cpu0_STLB RFO       ACCESS:       4948  HIT:       4937  MISS:         11
cpu0_STLB PREFETCH  ACCESS:          0  HIT:          0  MISS:          0
cpu0_STLB WRITEBACK ACCESS:          0  HIT:          0  MISS:          0
cpu0_L1D TOTAL     ACCESS:     509229  HIT:     419208  MISS:      90021
cpu0_L1D LOAD      ACCESS:     416322  HIT:     333295  MISS:      83027
cpu0_L1D RFO       ACCESS:      92563  HIT:      85660  MISS:       6903
cpu0_L1D PREFETCH  ACCESS:          0  HIT:          0  MISS:          0
cpu0_L1D WRITEBACK ACCESS:          0  HIT:          0  MISS:          0
cpu0_L2C TOTAL     ACCESS:     114307  HIT:      16997  MISS:      97310
cpu0_L2C LOAD      ACCESS:      83261  HIT:       4092  MISS:      79169
cpu0_L2C RFO       ACCESS:       6900  HIT:       1939  MISS:       4961
cpu0_L2C PREFETCH  ACCESS:          0  HIT:          0  MISS:          0
cpu0_L2C WRITEBACK ACCESS:      24055  HIT:      10964  MISS:      13091
LLC TOTAL     ACCESS:     106634  HIT:      66970  MISS:      39664
LLC LOAD      ACCESS:      79166  HIT:      40138  MISS:      39028
LLC RFO       ACCESS:       4955  HIT:       4334  MISS:        621
LLC PREFETCH  ACCESS:          0  HIT:          0  MISS:          0
LLC WRITEBACK ACCESS:      22424  HIT:      22416  MISS:          8
Heartbeat CPU 0 instructions: 54000003 cycles: 20072261 heartbeat IPC: 1.14752 cumulative IPC: 0.789548 (Simulation time: 0 hr 41 min 2 sec) 

Region of Interest Statistics
cpu0_DTLB TOTAL     ACCESS:    1178448  HIT:    1159518  MISS:      18930
cpu0_DTLB LOAD      ACCESS:    1070595  HIT:    1056727  MISS:      13868
cpu0_DTLB RFO       ACCESS:     107853  HIT:     102791  MISS:       5062
cpu0_DTLB PREFETCH  ACCESS:          0  HIT:          0  MISS:          0
cpu0_DTLB WRITEBACK ACCESS:          0  HIT:          0  MISS:          0
cpu0_ITLB TOTAL     ACCESS:     219242  HIT:     219234  MISS:          8
cpu0_ITLB LOAD      ACCESS:     219242  HIT:     219234  MISS:          8
cpu0_ITLB RFO       ACCESS:          0  HIT:          0  MISS:          0
cpu0_ITLB PREFETCH  ACCESS:          0  HIT:          0  MISS:          0
cpu0_ITLB WRITEBACK ACCESS:          0  HIT:          0  MISS:          0
cpu0_L1I TOTAL     ACCESS:      52811  HIT:      52577  MISS:        234
cpu0_L1I LOAD      ACCESS:      52811  HIT:      52577  MISS:        234
cpu0_L1I RFO       ACCESS:          0  HIT:          0  MISS:          0
cpu0_L1I PREFETCH  ACCESS:          0  HIT:          0  MISS:          0
cpu0_L1I WRITEBACK ACCESS:          0  HIT:          0  MISS:          0
cpu0_STLB TOTAL     ACCESS:      18938  HIT:      18167  MISS:        771
cpu0_STLB LOAD      ACCESS:      13876  HIT:      13181  MISS:        695
cpu0_STLB RFO       ACCESS:       5062  HIT:       4986  MISS:         76
cpu0_STLB PREFETCH  ACCESS:          0  HIT:          0  MISS:          0
cpu0_STLB WRITEBACK ACCESS:          0  HIT:          0  MISS:          0
cpu0_L1D TOTAL     ACCESS:    1042082  HIT:     914295  MISS:     127787
cpu0_L1D LOAD      ACCESS:     883326  HIT:     769223  MISS:     114103
cpu0_L1D RFO       ACCESS:     158132  HIT:     144588  MISS:      13544
cpu0_L1D PREFETCH  ACCESS:          0  HIT:          0  MISS:          0
cpu0_L1D WRITEBACK ACCESS:          0  HIT:          0  MISS:          0
cpu0_L2C TOTAL     ACCESS:     160002  HIT:      26359  MISS:     133643
cpu0_L2C LOAD      ACCESS:     114337  HIT:       6660  MISS:     107677
cpu0_L2C RFO       ACCESS:      13541  HIT:       3612  MISS:       9929
cpu0_L2C PREFETCH  ACCESS:          0  HIT:          0  MISS:          0
cpu0_L2C WRITEBACK ACCESS:      31984  HIT:      16082  MISS:      15902
LLC TOTAL     ACCESS:     147034  HIT:      85061  MISS:      61973
LLC LOAD      ACCESS:     107674  HIT:      50499  MISS:      57175
LLC RFO       ACCESS:       9923  HIT:       5140  MISS:       4783
LLC PREFETCH  ACCESS:          0  HIT:          0  MISS:          0
LLC WRITEBACK ACCESS:      29302  HIT:      29294  MISS:          8
Heartbeat CPU 0 instructions: 56000002 cycles: 21924808 heartbeat IPC: 1.07959 cumulative IPC: 0.86721 (Simulation time: 0 hr 43 min 47 sec) 

Region of Interest Statistics
cpu0_DTLB TOTAL     ACCESS:    1778908  HIT:    1757253  MISS:      21655
cpu0_DTLB LOAD      ACCESS:    1608016  HIT:    1591697  MISS:      16319
cpu0_DTLB RFO       ACCESS:     170892  HIT:     165556  MISS:       5336
cpu0_DTLB PREFETCH  ACCESS:          0  HIT:          0  MISS:          0
cpu0_DTLB WRITEBACK ACCESS:          0  HIT:          0  MISS:          0
cpu0_ITLB TOTAL     ACCESS:     315897  HIT:     315889  MISS:          8
cpu0_ITLB LOAD      ACCESS:     315897  HIT:     315889  MISS:          8
cpu0_ITLB RFO       ACCESS:          0  HIT:          0  MISS:          0
cpu0_ITLB PREFETCH  ACCESS:          0  HIT:          0  MISS:          0
cpu0_ITLB WRITEBACK ACCESS:          0  HIT:          0  MISS:          0
cpu0_L1I TOTAL     ACCESS:      73006  HIT:      72757  MISS:        249
cpu0_L1I LOAD      ACCESS:      73006  HIT:      72757  MISS:        249
cpu0_L1I RFO       ACCESS:          0  HIT:          0  MISS:          0
cpu0_L1I PREFETCH  ACCESS:          0  HIT:          0  MISS:          0
cpu0_L1I WRITEBACK ACCESS:          0  HIT:          0  MISS:          0
cpu0_STLB TOTAL     ACCESS:      21663  HIT:      20524  MISS:       1139
cpu0_STLB LOAD      ACCESS:      16327  HIT:      15362  MISS:        965
cpu0_STLB RFO       ACCESS:       5336  HIT:       5162  MISS:        174
cpu0_STLB PREFETCH  ACCESS:          0  HIT:          0  MISS:          0
cpu0_STLB WRITEBACK ACCESS:          0  HIT:          0  MISS:          0
cpu0_L1D TOTAL     ACCESS:    1565414  HIT:    1395779  MISS:     169635
cpu0_L1D LOAD      ACCESS:    1333501  HIT:    1186008  MISS:     147493
cpu0_L1D RFO       ACCESS:     230921  HIT:     208967  MISS:      21954
cpu0_L1D PREFETCH  ACCESS:          0  HIT:          0  MISS:          0
cpu0_L1D WRITEBACK ACCESS:          0  HIT:          0  MISS:          0
cpu0_L2C TOTAL     ACCESS:     213260  HIT:      36422  MISS:     176838
cpu0_L2C LOAD      ACCESS:     147742  HIT:       8858  MISS:     138884
cpu0_L2C RFO       ACCESS:      21951  HIT:       5251  MISS:      16700
cpu0_L2C PREFETCH  ACCESS:          0  HIT:          0  MISS:          0
cpu0_L2C WRITEBACK ACCESS:      43379  HIT:      22302  MISS:      21077
LLC TOTAL     ACCESS:     195120  HIT:     106406  MISS:      88714
LLC LOAD      ACCESS:     138881  HIT:      61099  MISS:      77782
LLC RFO       ACCESS:      16692  HIT:       5780  MISS:      10912
LLC PREFETCH  ACCESS:          0  HIT:          0  MISS:          0
LLC WRITEBACK ACCESS:      39370  HIT:      39357  MISS:         13
Heartbeat CPU 0 instructions: 58000004 cycles: 24621616 heartbeat IPC: 0.741618 cumulative IPC: 0.831986 (Simulation time: 0 hr 47 min 11 sec) 

Region of Interest Statistics
cpu0_DTLB TOTAL     ACCESS:    2306067  HIT:    2283501  MISS:      22566
cpu0_DTLB LOAD      ACCESS:    2074134  HIT:    2057005  MISS:      17129
cpu0_DTLB RFO       ACCESS:     231933  HIT:     226496  MISS:       5437
cpu0_DTLB PREFETCH  ACCESS:          0  HIT:          0  MISS:          0
cpu0_DTLB WRITEBACK ACCESS:          0  HIT:          0  MISS:          0
cpu0_ITLB TOTAL     ACCESS:     442539  HIT:     442531  MISS:          8
cpu0_ITLB LOAD      ACCESS:     442539  HIT:     442531  MISS:          8
cpu0_ITLB RFO       ACCESS:          0  HIT:          0  MISS:          0
cpu0_ITLB PREFETCH  ACCESS:          0  HIT:          0  MISS:          0
cpu0_ITLB WRITEBACK ACCESS:          0  HIT:          0  MISS:          0
cpu0_L1I TOTAL     ACCESS:     106673  HIT:     106374  MISS:        299
cpu0_L1I LOAD      ACCESS:     106673  HIT:     106374  MISS:        299
cpu0_L1I RFO       ACCESS:          0  HIT:          0  MISS:          0
cpu0_L1I PREFETCH  ACCESS:          0  HIT:          0  MISS:          0
cpu0_L1I WRITEBACK ACCESS:          0  HIT:          0  MISS:          0
cpu0_STLB TOTAL     ACCESS:      22574  HIT:      21017  MISS:       1557
cpu0_STLB LOAD      ACCESS:      17137  HIT:      15853  MISS:       1284
cpu0_STLB RFO       ACCESS:       5437  HIT:       5164  MISS:        273
cpu0_STLB PREFETCH  ACCESS:          0  HIT:          0  MISS:          0
cpu0_STLB WRITEBACK ACCESS:          0  HIT:          0  MISS:          0
cpu0_L1D TOTAL     ACCESS:    2001582  HIT:    1751324  MISS:     250258
cpu0_L1D LOAD      ACCESS:    1679036  HIT:    1460096  MISS:     218940
cpu0_L1D RFO       ACCESS:     321138  HIT:     290046  MISS:      31092
cpu0_L1D PREFETCH  ACCESS:          0  HIT:          0  MISS:          0
cpu0_L1D WRITEBACK ACCESS:          0  HIT:          0  MISS:          0
cpu0_L2C TOTAL     ACCESS:     318949  HIT:      59962  MISS:     258987
cpu0_L2C LOAD      ACCESS:     219234  HIT:      16709  MISS:     202525
cpu0_L2C RFO       ACCESS:      31085  HIT:       7652  MISS:      23433
cpu0_L2C PREFETCH  ACCESS:          0  HIT:          0  MISS:          0
cpu0_L2C WRITEBACK ACCESS:      68404  HIT:      35587  MISS:      32817
LLC TOTAL     ACCESS:     289159  HIT:     160966  MISS:     128193
LLC LOAD      ACCESS:     202520  HIT:      91457  MISS:     111063
LLC RFO       ACCESS:      23422  HIT:       6312  MISS:      17110
LLC PREFETCH  ACCESS:          0  HIT:          0  MISS:          0
LLC WRITEBACK ACCESS:      63005  HIT:      62992  MISS:         13
Heartbeat CPU 0 instructions: 60000000 cycles: 26927867 heartbeat IPC: 0.867207 cumulative IPC: 0.8388 (Simulation time: 0 hr 50 min 12 sec) 

Region of Interest Statistics
cpu0_DTLB TOTAL     ACCESS:    2862646  HIT:    2828195  MISS:      34451
cpu0_DTLB LOAD      ACCESS:    2574150  HIT:    2547589  MISS:      26561
cpu0_DTLB RFO       ACCESS:     288496  HIT:     280606  MISS:       7890
cpu0_DTLB PREFETCH  ACCESS:          0  HIT:          0  MISS:          0
cpu0_DTLB WRITEBACK ACCESS:          0  HIT:          0  MISS:          0
cpu0_ITLB TOTAL     ACCESS:     538741  HIT:     538727  MISS:         14
cpu0_ITLB LOAD      ACCESS:     538741  HIT:     538727  MISS:         14
cpu0_ITLB RFO       ACCESS:          0  HIT:          0  MISS:          0
cpu0_ITLB PREFETCH  ACCESS:          0  HIT:          0  MISS:          0
cpu0_ITLB WRITEBACK ACCESS:          0  HIT:          0  MISS:          0
cpu0_L1I TOTAL     ACCESS:     137640  HIT:     137029  MISS:        611
cpu0_L1I LOAD      ACCESS:     137640  HIT:     137029  MISS:        611
cpu0_L1I RFO       ACCESS:          0  HIT:          0  MISS:          0
cpu0_L1I PREFETCH  ACCESS:          0  HIT:          0  MISS:          0
cpu0_L1I WRITEBACK ACCESS:          0  HIT:          0  MISS:          0
cpu0_STLB TOTAL     ACCESS:      34465  HIT:      32509  MISS:       1956
cpu0_STLB LOAD      ACCESS:      26575  HIT:      24893  MISS:       1682
cpu0_STLB RFO       ACCESS:       7890  HIT:       7616  MISS:        274
cpu0_STLB PREFETCH  ACCESS:          0  HIT:          0  MISS:          0
cpu0_STLB WRITEBACK ACCESS:          0  HIT:          0  MISS:          0
cpu0_L1D TOTAL     ACCESS:    2505112  HIT:    2193075  MISS:     312037
cpu0_L1D LOAD      ACCESS:    2061439  HIT:    1785698  MISS:     275741
cpu0_L1D RFO       ACCESS:     441877  HIT:     405898  MISS:      35979
cpu0_L1D PREFETCH  ACCESS:          0  HIT:          0  MISS:          0
cpu0_L1D WRITEBACK ACCESS:          0  HIT:          0  MISS:          0
cpu0_L2C TOTAL     ACCESS:     397324  HIT:      75208  MISS:     322116
cpu0_L2C LOAD      ACCESS:     276345  HIT:      22551  MISS:     253794
cpu0_L2C RFO       ACCESS:      35970  HIT:       8613  MISS:      27357
cpu0_L2C PREFETCH  ACCESS:          0  HIT:          0  MISS:          0
cpu0_L2C WRITEBACK ACCESS:      84692  HIT:      44029  MISS:      40663
LLC TOTAL     ACCESS:     359786  HIT:     202884  MISS:     156902
LLC LOAD      ACCESS:     253779  HIT:     114192  MISS:     139587
LLC RFO       ACCESS:      27346  HIT:      10070  MISS:      17276
LLC PREFETCH  ACCESS:          0  HIT:          0  MISS:          0
LLC WRITEBACK ACCESS:      78359  HIT:      78333  MISS:         26
Heartbeat CPU 0 instructions: 62000004 cycles: 29510105 heartbeat IPC: 0.774523 cumulative IPC: 0.827356 (Simulation time: 0 hr 54 min 9 sec) 

Region of Interest Statistics
cpu0_DTLB TOTAL     ACCESS:    3422826  HIT:    3384457  MISS:      38369
cpu0_DTLB LOAD      ACCESS:    3078652  HIT:    3048370  MISS:      30282
cpu0_DTLB RFO       ACCESS:     344174  HIT:     336087  MISS:       8087
cpu0_DTLB PREFETCH  ACCESS:          0  HIT:          0  MISS:          0
cpu0_DTLB WRITEBACK ACCESS:          0  HIT:          0  MISS:          0
cpu0_ITLB TOTAL     ACCESS:     629709  HIT:     629695  MISS:         14
cpu0_ITLB LOAD      ACCESS:     629709  HIT:     629695  MISS:         14
cpu0_ITLB RFO       ACCESS:          0  HIT:          0  MISS:          0
cpu0_ITLB PREFETCH  ACCESS:          0  HIT:          0  MISS:          0
cpu0_ITLB WRITEBACK ACCESS:          0  HIT:          0  MISS:          0
cpu0_L1I TOTAL     ACCESS:     166866  HIT:     166255  MISS:        611
cpu0_L1I LOAD      ACCESS:     166866  HIT:     166255  MISS:        611
cpu0_L1I RFO       ACCESS:          0  HIT:          0  MISS:          0
cpu0_L1I PREFETCH  ACCESS:          0  HIT:          0  MISS:          0
cpu0_L1I WRITEBACK ACCESS:          0  HIT:          0  MISS:          0
cpu0_STLB TOTAL     ACCESS:      38383  HIT:      35976  MISS:       2407
cpu0_STLB LOAD      ACCESS:      30296  HIT:      28163  MISS:       2133
cpu0_STLB RFO       ACCESS:       8087  HIT:       7813  MISS:        274
cpu0_STLB PREFETCH  ACCESS:          0  HIT:          0  MISS:          0
cpu0_STLB WRITEBACK ACCESS:          0  HIT:          0  MISS:          0
cpu0_L1D TOTAL     ACCESS:    3010617  HIT:    2646976  MISS:     363641
cpu0_L1D LOAD      ACCESS:    2441966  HIT:    2119666  MISS:     322300
cpu0_L1D RFO       ACCESS:     566422  HIT:     525518  MISS:      40904
cpu0_L1D PREFETCH  ACCESS:          0  HIT:          0  MISS:          0
cpu0_L1D WRITEBACK ACCESS:          0  HIT:          0  MISS:          0
cpu0_L2C TOTAL     ACCESS:     461261  HIT:      88357  MISS:     372904
cpu0_L2C LOAD      ACCESS:     322899  HIT:      28251  MISS:     294648
cpu0_L2C RFO       ACCESS:      40895  HIT:       9328  MISS:      31567
cpu0_L2C PREFETCH  ACCESS:          0  HIT:          0  MISS:          0
cpu0_L2C WRITEBACK ACCESS:      97030  HIT:      50752  MISS:      46278
LLC TOTAL     ACCESS:     416610  HIT:     227909  MISS:     188701
LLC LOAD      ACCESS:     294625  HIT:     123314  MISS:     171311
LLC RFO       ACCESS:      31555  HIT:      14204  MISS:      17351
LLC PREFETCH  ACCESS:          0  HIT:          0  MISS:          0
LLC WRITEBACK ACCESS:      90019  HIT:      89993  MISS:         26
Heartbeat CPU 0 instructions: 64000000 cycles: 32211293 heartbeat IPC: 0.740413 cumulative IPC: 0.813706 (Simulation time: 0 hr 57 min 27 sec) 

Region of Interest Statistics
cpu0_DTLB TOTAL     ACCESS:    3979445  HIT:    3937176  MISS:      42269
cpu0_DTLB LOAD      ACCESS:    3579341  HIT:    3545358  MISS:      33983
cpu0_DTLB RFO       ACCESS:     400104  HIT:     391818  MISS:       8286
cpu0_DTLB PREFETCH  ACCESS:          0  HIT:          0  MISS:          0
cpu0_DTLB WRITEBACK ACCESS:          0  HIT:          0  MISS:          0
cpu0_ITLB TOTAL     ACCESS:     719649  HIT:     719635  MISS:         14
cpu0_ITLB LOAD      ACCESS:     719649  HIT:     719635  MISS:         14
cpu0_ITLB RFO       ACCESS:          0  HIT:          0  MISS:          0
cpu0_ITLB PREFETCH  ACCESS:          0  HIT:          0  MISS:          0
cpu0_ITLB WRITEBACK ACCESS:          0  HIT:          0  MISS:          0
cpu0_L1I TOTAL     ACCESS:     195218  HIT:     194607  MISS:        611
cpu0_L1I LOAD      ACCESS:     195218  HIT:     194607  MISS:        611
cpu0_L1I RFO       ACCESS:          0  HIT:          0  MISS:          0
cpu0_L1I PREFETCH  ACCESS:          0  HIT:          0  MISS:          0
cpu0_L1I WRITEBACK ACCESS:          0  HIT:          0  MISS:          0
cpu0_STLB TOTAL     ACCESS:      42283  HIT:      39332  MISS:       2951
cpu0_STLB LOAD      ACCESS:      33997  HIT:      31320  MISS:       2677
cpu0_STLB RFO       ACCESS:       8286  HIT:       8012  MISS:        274
cpu0_STLB PREFETCH  ACCESS:          0  HIT:          0  MISS:          0
cpu0_STLB WRITEBACK ACCESS:          0  HIT:          0  MISS:          0
cpu0_L1D TOTAL     ACCESS:    3507849  HIT:    3093086  MISS:     414763
cpu0_L1D LOAD      ACCESS:    2812164  HIT:    2443853  MISS:     368311
cpu0_L1D RFO       ACCESS:     692952  HIT:     647065  MISS:      45887
cpu0_L1D PREFETCH  ACCESS:          0  HIT:          0  MISS:          0
cpu0_L1D WRITEBACK ACCESS:          0  HIT:          0  MISS:          0
cpu0_L2C TOTAL     ACCESS:     524427  HIT:     101488  MISS:     422939
cpu0_L2C LOAD      ACCESS:     368906  HIT:      33862  MISS:     335044
cpu0_L2C RFO       ACCESS:      45878  HIT:      10159  MISS:      35719
cpu0_L2C PREFETCH  ACCESS:          0  HIT:          0  MISS:          0
cpu0_L2C WRITEBACK ACCESS:     109078  HIT:      57433  MISS:      51645
LLC TOTAL     ACCESS:     472715  HIT:     250611  MISS:     222104
LLC LOAD      ACCESS:     335019  HIT:     130380  MISS:     204639
LLC RFO       ACCESS:      35707  HIT:      18286  MISS:      17421
LLC PREFETCH  ACCESS:          0  HIT:          0  MISS:          0
LLC WRITEBACK ACCESS:     101458  HIT:     101427  MISS:         31
Heartbeat CPU 0 instructions: 66000001 cycles: 34836097 heartbeat IPC: 0.761962 cumulative IPC: 0.806857 (Simulation time: 1 hr 0 min 40 sec) 

Region of Interest Statistics
cpu0_DTLB TOTAL     ACCESS:    4540259  HIT:    4493720  MISS:      46539
cpu0_DTLB LOAD      ACCESS:    4083777  HIT:    4045735  MISS:      38042
cpu0_DTLB RFO       ACCESS:     456482  HIT:     447985  MISS:       8497
cpu0_DTLB PREFETCH  ACCESS:          0  HIT:          0  MISS:          0
cpu0_DTLB WRITEBACK ACCESS:          0  HIT:          0  MISS:          0
cpu0_ITLB TOTAL     ACCESS:     810353  HIT:     810339  MISS:         14
cpu0_ITLB LOAD      ACCESS:     810353  HIT:     810339  MISS:         14
cpu0_ITLB RFO       ACCESS:          0  HIT:          0  MISS:          0
cpu0_ITLB PREFETCH  ACCESS:          0  HIT:          0  MISS:          0
cpu0_ITLB WRITEBACK ACCESS:          0  HIT:          0  MISS:          0
cpu0_L1I TOTAL     ACCESS:     224486  HIT:     223875  MISS:        611
cpu0_L1I LOAD      ACCESS:     224486  HIT:     223875  MISS:        611
cpu0_L1I RFO       ACCESS:          0  HIT:          0  MISS:          0
cpu0_L1I PREFETCH  ACCESS:          0  HIT:          0  MISS:          0
cpu0_L1I WRITEBACK ACCESS:          0  HIT:          0  MISS:          0
cpu0_STLB TOTAL     ACCESS:      46553  HIT:      43020  MISS:       3533
cpu0_STLB LOAD      ACCESS:      38056  HIT:      34797  MISS:       3259
cpu0_STLB RFO       ACCESS:       8497  HIT:       8223  MISS:        274
cpu0_STLB PREFETCH  ACCESS:          0  HIT:          0  MISS:          0
cpu0_STLB WRITEBACK ACCESS:          0  HIT:          0  MISS:          0
cpu0_L1D TOTAL     ACCESS:    4010095  HIT:    3543279  MISS:     466816
cpu0_L1D LOAD      ACCESS:    3188184  HIT:    2773006  MISS:     415178
cpu0_L1D RFO       ACCESS:     818654  HIT:     767713  MISS:      50941
cpu0_L1D PREFETCH  ACCESS:          0  HIT:          0  MISS:          0
cpu0_L1D WRITEBACK ACCESS:          0  HIT:          0  MISS:          0
cpu0_L2C TOTAL     ACCESS:     589068  HIT:     114671  MISS:     474397
cpu0_L2C LOAD      ACCESS:     415766  HIT:      39596  MISS:     376170
cpu0_L2C RFO       ACCESS:      50932  HIT:      10935  MISS:      39997
cpu0_L2C PREFETCH  ACCESS:          0  HIT:          0  MISS:          0
cpu0_L2C WRITEBACK ACCESS:     121673  HIT:      64092  MISS:      57581
LLC TOTAL     ACCESS:     530100  HIT:     273654  MISS:     256446
LLC LOAD      ACCESS:     376135  HIT:     137231  MISS:     238904
LLC RFO       ACCESS:      39985  HIT:      22489  MISS:      17496
LLC PREFETCH  ACCESS:          0  HIT:          0  MISS:          0
LLC WRITEBACK ACCESS:     113331  HIT:     113298  MISS:         33
Heartbeat CPU 0 instructions: 68000002 cycles: 41498675 heartbeat IPC: 0.300184 cumulative IPC: 0.679435 (Simulation time: 1 hr 6 min 59 sec) 

Region of Interest Statistics
cpu0_DTLB TOTAL     ACCESS:    5070311  HIT:    5004358  MISS:      65953
cpu0_DTLB LOAD      ACCESS:    4462143  HIT:    4408843  MISS:      53300
cpu0_DTLB RFO       ACCESS:     608168  HIT:     595515  MISS:      12653
cpu0_DTLB PREFETCH  ACCESS:          0  HIT:          0  MISS:          0
cpu0_DTLB WRITEBACK ACCESS:          0  HIT:          0  MISS:          0
cpu0_ITLB TOTAL     ACCESS:     924582  HIT:     924563  MISS:         19
cpu0_ITLB LOAD      ACCESS:     924582  HIT:     924563  MISS:         19
cpu0_ITLB RFO       ACCESS:          0  HIT:          0  MISS:          0
cpu0_ITLB PREFETCH  ACCESS:          0  HIT:          0  MISS:          0
cpu0_ITLB WRITEBACK ACCESS:          0  HIT:          0  MISS:          0
cpu0_L1I TOTAL     ACCESS:     246459  HIT:     245577  MISS:        882
cpu0_L1I LOAD      ACCESS:     246459  HIT:     245577  MISS:        882
cpu0_L1I RFO       ACCESS:          0  HIT:          0  MISS:          0
cpu0_L1I PREFETCH  ACCESS:          0  HIT:          0  MISS:          0
cpu0_L1I WRITEBACK ACCESS:          0  HIT:          0  MISS:          0
cpu0_STLB TOTAL     ACCESS:      65972  HIT:      60882  MISS:       5090
cpu0_STLB LOAD      ACCESS:      53319  HIT:      49009  MISS:       4310
cpu0_STLB RFO       ACCESS:      12653  HIT:      11873  MISS:        780
cpu0_STLB PREFETCH  ACCESS:          0  HIT:          0  MISS:          0
cpu0_STLB WRITEBACK ACCESS:          0  HIT:          0  MISS:          0
cpu0_L1D TOTAL     ACCESS:    4434331  HIT:    3844700  MISS:     589631
cpu0_L1D LOAD      ACCESS:    3433284  HIT:    2928090  MISS:     505194
cpu0_L1D RFO       ACCESS:     996554  HIT:     912866  MISS:      83688
cpu0_L1D PREFETCH  ACCESS:          0  HIT:          0  MISS:          0
cpu0_L1D WRITEBACK ACCESS:          0  HIT:          0  MISS:          0
cpu0_L2C TOTAL     ACCESS:     780573  HIT:     133545  MISS:     647028
cpu0_L2C LOAD      ACCESS:     506051  HIT:      40881  MISS:     465170
cpu0_L2C RFO       ACCESS:      83679  HIT:      11099  MISS:      72580
cpu0_L2C PREFETCH  ACCESS:          0  HIT:          0  MISS:          0
cpu0_L2C WRITEBACK ACCESS:     190094  HIT:      81514  MISS:     108580
LLC TOTAL     ACCESS:     720079  HIT:     377624  MISS:     342455
LLC LOAD      ACCESS:     465132  HIT:     172136  MISS:     292996
LLC RFO       ACCESS:      72568  HIT:      23166  MISS:      49402
LLC PREFETCH  ACCESS:          0  HIT:          0  MISS:          0
LLC WRITEBACK ACCESS:     181681  HIT:     181646  MISS:         35
Heartbeat CPU 0 instructions: 70000004 cycles: 47833374 heartbeat IPC: 0.315722 cumulative IPC: 0.609249 (Simulation time: 1 hr 12 min 33 sec) 

Region of Interest Statistics
cpu0_DTLB TOTAL     ACCESS:    5525677  HIT:    5457427  MISS:      68250
cpu0_DTLB LOAD      ACCESS:    4805002  HIT:    4749640  MISS:      55362
cpu0_DTLB RFO       ACCESS:     720675  HIT:     707787  MISS:      12888
cpu0_DTLB PREFETCH  ACCESS:          0  HIT:          0  MISS:          0
cpu0_DTLB WRITEBACK ACCESS:          0  HIT:          0  MISS:          0
cpu0_ITLB TOTAL     ACCESS:    1045426  HIT:    1045391  MISS:         35
cpu0_ITLB LOAD      ACCESS:    1045426  HIT:    1045391  MISS:         35
cpu0_ITLB RFO       ACCESS:          0  HIT:          0  MISS:          0
cpu0_ITLB PREFETCH  ACCESS:          0  HIT:          0  MISS:          0
cpu0_ITLB WRITEBACK ACCESS:          0  HIT:          0  MISS:          0
cpu0_L1I TOTAL     ACCESS:     263775  HIT:     262525  MISS:       1250
cpu0_L1I LOAD      ACCESS:     263775  HIT:     262525  MISS:       1250
cpu0_L1I RFO       ACCESS:          0  HIT:          0  MISS:          0
cpu0_L1I PREFETCH  ACCESS:          0  HIT:          0  MISS:          0
cpu0_L1I WRITEBACK ACCESS:          0  HIT:          0  MISS:          0
cpu0_STLB TOTAL     ACCESS:      68285  HIT:      62270  MISS:       6015
cpu0_STLB LOAD      ACCESS:      55397  HIT:      50370  MISS:       5027
cpu0_STLB RFO       ACCESS:      12888  HIT:      11900  MISS:        988
cpu0_STLB PREFETCH  ACCESS:          0  HIT:          0  MISS:          0
cpu0_STLB WRITEBACK ACCESS:          0  HIT:          0  MISS:          0
cpu0_L1D TOTAL     ACCESS:    4812424  HIT:    4131704  MISS:     680720
cpu0_L1D LOAD      ACCESS:    3678211  HIT:    3101321  MISS:     576890
cpu0_L1D RFO       ACCESS:    1129008  HIT:    1025973  MISS:     103035
cpu0_L1D PREFETCH  ACCESS:          0  HIT:          0  MISS:          0
cpu0_L1D WRITEBACK ACCESS:          0  HIT:          0  MISS:          0
cpu0_L2C TOTAL     ACCESS:     922287  HIT:     153581  MISS:     768706
cpu0_L2C LOAD      ACCESS:     578115  HIT:      41967  MISS:     536148
cpu0_L2C RFO       ACCESS:     103024  HIT:      11889  MISS:      91135
cpu0_L2C PREFETCH  ACCESS:          0  HIT:          0  MISS:          0
cpu0_L2C WRITEBACK ACCESS:     240353  HIT:      99674  MISS:     140679
LLC TOTAL     ACCESS:     858948  HIT:     453751  MISS:     405197
LLC LOAD      ACCESS:     536110  HIT:     195190  MISS:     340920
LLC RFO       ACCESS:      91123  HIT:      26917  MISS:      64206
LLC PREFETCH  ACCESS:          0  HIT:          0  MISS:          0
LLC WRITEBACK ACCESS:     230971  HIT:     230932  MISS:         39
Heartbeat CPU 0 instructions: 72000001 cycles: 50100977 heartbeat IPC: 0.881987 cumulative IPC: 0.626872 (Simulation time: 1 hr 15 min 14 sec) 

Region of Interest Statistics
cpu0_DTLB TOTAL     ACCESS:    5905402  HIT:    5836555  MISS:      68847
cpu0_DTLB LOAD      ACCESS:    5148120  HIT:    5092172  MISS:      55948
cpu0_DTLB RFO       ACCESS:     757282  HIT:     744383  MISS:      12899
cpu0_DTLB PREFETCH  ACCESS:          0  HIT:          0  MISS:          0
cpu0_DTLB WRITEBACK ACCESS:          0  HIT:          0  MISS:          0
cpu0_ITLB TOTAL     ACCESS:    1143015  HIT:    1142980  MISS:         35
cpu0_ITLB LOAD      ACCESS:    1143015  HIT:    1142980  MISS:         35
cpu0_ITLB RFO       ACCESS:          0  HIT:          0  MISS:          0
cpu0_ITLB PREFETCH  ACCESS:          0  HIT:          0  MISS:          0
cpu0_ITLB WRITEBACK ACCESS:          0  HIT:          0  MISS:          0
cpu0_L1I TOTAL     ACCESS:     274045  HIT:     272795  MISS:       1250
cpu0_L1I LOAD      ACCESS:     274045  HIT:     272795  MISS:       1250
cpu0_L1I RFO       ACCESS:          0  HIT:          0  MISS:          0
cpu0_L1I PREFETCH  ACCESS:          0  HIT:          0  MISS:          0
cpu0_L1I WRITEBACK ACCESS:          0  HIT:          0  MISS:          0
cpu0_STLB TOTAL     ACCESS:      68882  HIT:      62556  MISS:       6326
cpu0_STLB LOAD      ACCESS:      55983  HIT:      50645  MISS:       5338
cpu0_STLB RFO       ACCESS:      12899  HIT:      11911  MISS:        988
cpu0_STLB PREFETCH  ACCESS:          0  HIT:          0  MISS:          0
cpu0_STLB WRITEBACK ACCESS:          0  HIT:          0  MISS:          0
cpu0_L1D TOTAL     ACCESS:    5150539  HIT:    4426251  MISS:     724288
cpu0_L1D LOAD      ACCESS:    3956509  HIT:    3341705  MISS:     614804
cpu0_L1D RFO       ACCESS:    1188589  HIT:    1079979  MISS:     108610
cpu0_L1D PREFETCH  ACCESS:          0  HIT:          0  MISS:          0
cpu0_L1D WRITEBACK ACCESS:          0  HIT:          0  MISS:          0
cpu0_L2C TOTAL     ACCESS:     979856  HIT:     167461  MISS:     812395
cpu0_L2C LOAD      ACCESS:     616029  HIT:      44954  MISS:     571075
cpu0_L2C RFO       ACCESS:     108599  HIT:      14303  MISS:      94296
cpu0_L2C PREFETCH  ACCESS:          0  HIT:          0  MISS:          0
cpu0_L2C WRITEBACK ACCESS:     254354  HIT:     108151  MISS:     146203
LLC TOTAL     ACCESS:     908755  HIT:     479220  MISS:     429535
LLC LOAD      ACCESS:     571037  HIT:     205779  MISS:     365258
LLC RFO       ACCESS:      94284  HIT:      30078  MISS:      64206
LLC PREFETCH  ACCESS:          0  HIT:          0  MISS:          0
LLC WRITEBACK ACCESS:     242613  HIT:     242574  MISS:         39
Heartbeat CPU 0 instructions: 74000004 cycles: 53267879 heartbeat IPC: 0.631533 cumulative IPC: 0.627257 (Simulation time: 1 hr 18 min 39 sec) 

Region of Interest Statistics
cpu0_DTLB TOTAL     ACCESS:    6287332  HIT:    6217864  MISS:      69468
cpu0_DTLB LOAD      ACCESS:    5493052  HIT:    5436506  MISS:      56546
cpu0_DTLB RFO       ACCESS:     794280  HIT:     781358  MISS:      12922
cpu0_DTLB PREFETCH  ACCESS:          0  HIT:          0  MISS:          0
cpu0_DTLB WRITEBACK ACCESS:          0  HIT:          0  MISS:          0
cpu0_ITLB TOTAL     ACCESS:    1239308  HIT:    1239273  MISS:         35
cpu0_ITLB LOAD      ACCESS:    1239308  HIT:    1239273  MISS:         35
cpu0_ITLB RFO       ACCESS:          0  HIT:          0  MISS:          0
cpu0_ITLB PREFETCH  ACCESS:          0  HIT:          0  MISS:          0
cpu0_ITLB WRITEBACK ACCESS:          0  HIT:          0  MISS:          0
cpu0_L1I TOTAL     ACCESS:     284328  HIT:     283078  MISS:       1250
cpu0_L1I LOAD      ACCESS:     284328  HIT:     283078  MISS:       1250
cpu0_L1I RFO       ACCESS:          0  HIT:          0  MISS:          0
cpu0_L1I PREFETCH  ACCESS:          0  HIT:          0  MISS:          0
cpu0_L1I WRITEBACK ACCESS:          0  HIT:          0  MISS:          0
cpu0_STLB TOTAL     ACCESS:      69503  HIT:      62876  MISS:       6627
cpu0_STLB LOAD      ACCESS:      56581  HIT:      50942  MISS:       5639
cpu0_STLB RFO       ACCESS:      12922  HIT:      11934  MISS:        988
cpu0_STLB PREFETCH  ACCESS:          0  HIT:          0  MISS:          0
cpu0_STLB WRITEBACK ACCESS:          0  HIT:          0  MISS:          0
cpu0_L1D TOTAL     ACCESS:    5487141  HIT:    4718473  MISS:     768668
cpu0_L1D LOAD      ACCESS:    4232890  HIT:    3579334  MISS:     653556
cpu0_L1D RFO       ACCESS:    1248572  HIT:    1134415  MISS:     114157
cpu0_L1D PREFETCH  ACCESS:          0  HIT:          0  MISS:          0
cpu0_L1D WRITEBACK ACCESS:          0  HIT:          0  MISS:          0
cpu0_L2C TOTAL     ACCESS:    1038635  HIT:     182181  MISS:     856454
cpu0_L2C LOAD      ACCESS:     654781  HIT:      47761  MISS:     607020
cpu0_L2C RFO       ACCESS:     114143  HIT:      16621  MISS:      97522
cpu0_L2C PREFETCH  ACCESS:          0  HIT:          0  MISS:          0
cpu0_L2C WRITEBACK ACCESS:     268756  HIT:     117746  MISS:     151010
LLC TOTAL     ACCESS:     960199  HIT:     502702  MISS:     457497
LLC LOAD      ACCESS:     606982  HIT:     213765  MISS:     393217
LLC RFO       ACCESS:      97506  HIT:      33300  MISS:      64206
LLC PREFETCH  ACCESS:          0  HIT:          0  MISS:          0
LLC WRITEBACK ACCESS:     254809  HIT:     254768  MISS:         41
Heartbeat CPU 0 instructions: 76000000 cycles: 56487861 heartbeat IPC: 0.62112 cumulative IPC: 0.626781 (Simulation time: 1 hr 22 min 25 sec) 

Region of Interest Statistics
cpu0_DTLB TOTAL     ACCESS:    6827452  HIT:    6756904  MISS:      70548
cpu0_DTLB LOAD      ACCESS:    5990186  HIT:    5932614  MISS:      57572
cpu0_DTLB RFO       ACCESS:     837266  HIT:     824290  MISS:      12976
cpu0_DTLB PREFETCH  ACCESS:          0  HIT:          0  MISS:          0
cpu0_DTLB WRITEBACK ACCESS:          0  HIT:          0  MISS:          0
cpu0_ITLB TOTAL     ACCESS:    1366070  HIT:    1366035  MISS:         35
cpu0_ITLB LOAD      ACCESS:    1366070  HIT:    1366035  MISS:         35
cpu0_ITLB RFO       ACCESS:          0  HIT:          0  MISS:          0
cpu0_ITLB PREFETCH  ACCESS:          0  HIT:          0  MISS:          0
cpu0_ITLB WRITEBACK ACCESS:          0  HIT:          0  MISS:          0
cpu0_L1I TOTAL     ACCESS:     314998  HIT:     313612  MISS:       1386
cpu0_L1I LOAD      ACCESS:     314998  HIT:     313612  MISS:       1386
cpu0_L1I RFO       ACCESS:          0  HIT:          0  MISS:          0
cpu0_L1I PREFETCH  ACCESS:          0  HIT:          0  MISS:          0
cpu0_L1I WRITEBACK ACCESS:          0  HIT:          0  MISS:          0
cpu0_STLB TOTAL     ACCESS:      70583  HIT:      63725  MISS:       6858
cpu0_STLB LOAD      ACCESS:      57607  HIT:      51737  MISS:       5870
cpu0_STLB RFO       ACCESS:      12976  HIT:      11988  MISS:        988
cpu0_STLB PREFETCH  ACCESS:          0  HIT:          0  MISS:          0
cpu0_STLB WRITEBACK ACCESS:          0  HIT:          0  MISS:          0
cpu0_L1D TOTAL     ACCESS:    5968565  HIT:    5119074  MISS:     849491
cpu0_L1D LOAD      ACCESS:    4627643  HIT:    3900302  MISS:     727341
cpu0_L1D RFO       ACCESS:    1335073  HIT:    1213949  MISS:     121124
cpu0_L1D PREFETCH  ACCESS:          0  HIT:          0  MISS:          0
cpu0_L1D WRITEBACK ACCESS:          0  HIT:          0  MISS:          0
cpu0_L2C TOTAL     ACCESS:    1138064  HIT:     197892  MISS:     940172
cpu0_L2C LOAD      ACCESS:     728702  HIT:      51427  MISS:     677275
cpu0_L2C RFO       ACCESS:     121107  HIT:      18521  MISS:     102586
cpu0_L2C PREFETCH  ACCESS:          0  HIT:          0  MISS:          0
cpu0_L2C WRITEBACK ACCESS:     287229  HIT:     127891  MISS:     159338
LLC TOTAL     ACCESS:    1052383  HIT:     561997  MISS:     490386
LLC LOAD      ACCESS:     677236  HIT:     251136  MISS:     426100
LLC RFO       ACCESS:     102569  HIT:      38361  MISS:      64208
LLC PREFETCH  ACCESS:          0  HIT:          0  MISS:          0
LLC WRITEBACK ACCESS:     271605  HIT:     271561  MISS:         44
Heartbeat CPU 0 instructions: 78000003 cycles: 59613622 heartbeat IPC: 0.639845 cumulative IPC: 0.627696 (Simulation time: 1 hr 26 min 10 sec) 

Region of Interest Statistics
cpu0_DTLB TOTAL     ACCESS:    7386699  HIT:    7315044  MISS:      71655
cpu0_DTLB LOAD      ACCESS:    6505999  HIT:    6447382  MISS:      58617
cpu0_DTLB RFO       ACCESS:     880700  HIT:     867662  MISS:      13038
cpu0_DTLB PREFETCH  ACCESS:          0  HIT:          0  MISS:          0
cpu0_DTLB WRITEBACK ACCESS:          0  HIT:          0  MISS:          0
cpu0_ITLB TOTAL     ACCESS:    1496883  HIT:    1496848  MISS:         35
cpu0_ITLB LOAD      ACCESS:    1496883  HIT:    1496848  MISS:         35
cpu0_ITLB RFO       ACCESS:          0  HIT:          0  MISS:          0
cpu0_ITLB PREFETCH  ACCESS:          0  HIT:          0  MISS:          0
cpu0_ITLB WRITEBACK ACCESS:          0  HIT:          0  MISS:          0
cpu0_L1I TOTAL     ACCESS:     347926  HIT:     346540  MISS:       1386
cpu0_L1I LOAD      ACCESS:     347926  HIT:     346540  MISS:       1386
cpu0_L1I RFO       ACCESS:          0  HIT:          0  MISS:          0
cpu0_L1I PREFETCH  ACCESS:          0  HIT:          0  MISS:          0
cpu0_L1I WRITEBACK ACCESS:          0  HIT:          0  MISS:          0
cpu0_STLB TOTAL     ACCESS:      71690  HIT:      64582  MISS:       7108
cpu0_STLB LOAD      ACCESS:      58652  HIT:      52532  MISS:       6120
cpu0_STLB RFO       ACCESS:      13038  HIT:      12050  MISS:        988
cpu0_STLB PREFETCH  ACCESS:          0  HIT:          0  MISS:          0
cpu0_STLB WRITEBACK ACCESS:          0  HIT:          0  MISS:          0
cpu0_L1D TOTAL     ACCESS:    6466877  HIT:    5531605  MISS:     935272
cpu0_L1D LOAD      ACCESS:    5035147  HIT:    4229198  MISS:     805949
cpu0_L1D RFO       ACCESS:    1425690  HIT:    1297475  MISS:     128215
cpu0_L1D PREFETCH  ACCESS:          0  HIT:          0  MISS:          0
cpu0_L1D WRITEBACK ACCESS:          0  HIT:          0  MISS:          0
cpu0_L2C TOTAL     ACCESS:    1243085  HIT:     214193  MISS:    1028892
cpu0_L2C LOAD      ACCESS:     807309  HIT:      55708  MISS:     751601
cpu0_L2C RFO       ACCESS:     128196  HIT:      20508  MISS:     107688
cpu0_L2C PREFETCH  ACCESS:          0  HIT:          0  MISS:          0
cpu0_L2C WRITEBACK ACCESS:     306472  HIT:     137922  MISS:     168550
LLC TOTAL     ACCESS:    1149346  HIT:     625017  MISS:     524329
LLC LOAD      ACCESS:     751554  HIT:     291512  MISS:     460042
LLC RFO       ACCESS:     107666  HIT:      43458  MISS:      64208
LLC PREFETCH  ACCESS:          0  HIT:          0  MISS:          0
LLC WRITEBACK ACCESS:     289073  HIT:     289028  MISS:         45
Heartbeat CPU 0 instructions: 80000003 cycles: 62010983 heartbeat IPC: 0.834251 cumulative IPC: 0.638231 (Simulation time: 1 hr 29 min 22 sec) 

Region of Interest Statistics
cpu0_DTLB TOTAL     ACCESS:    7991212  HIT:    7901998  MISS:      89214
cpu0_DTLB LOAD      ACCESS:    7050273  HIT:    6979041  MISS:      71232
cpu0_DTLB RFO       ACCESS:     940939  HIT:     922957  MISS:      17982
cpu0_DTLB PREFETCH  ACCESS:          0  HIT:          0  MISS:          0
cpu0_DTLB WRITEBACK ACCESS:          0  HIT:          0  MISS:          0
cpu0_ITLB TOTAL     ACCESS:    1597281  HIT:    1597240  MISS:         41
cpu0_ITLB LOAD      ACCESS:    1597281  HIT:    1597240  MISS:         41
cpu0_ITLB RFO       ACCESS:          0  HIT:          0  MISS:          0
cpu0_ITLB PREFETCH  ACCESS:          0  HIT:          0  MISS:          0
cpu0_ITLB WRITEBACK ACCESS:          0  HIT:          0  MISS:          0
cpu0_L1I TOTAL     ACCESS:     371254  HIT:     369630  MISS:       1624
cpu0_L1I LOAD      ACCESS:     371254  HIT:     369630  MISS:       1624
cpu0_L1I RFO       ACCESS:          0  HIT:          0  MISS:          0
cpu0_L1I PREFETCH  ACCESS:          0  HIT:          0  MISS:          0
cpu0_L1I WRITEBACK ACCESS:          0  HIT:          0  MISS:          0
cpu0_STLB TOTAL     ACCESS:      89255  HIT:      81644  MISS:       7611
cpu0_STLB LOAD      ACCESS:      71273  HIT:      64705  MISS:       6568
cpu0_STLB RFO       ACCESS:      17982  HIT:      16939  MISS:       1043
cpu0_STLB PREFETCH  ACCESS:          0  HIT:          0  MISS:          0
cpu0_STLB WRITEBACK ACCESS:          0  HIT:          0  MISS:          0
cpu0_L1D TOTAL     ACCESS:    7001186  HIT:    6009005  MISS:     992181
cpu0_L1D LOAD      ACCESS:    5493541  HIT:    4637295  MISS:     856246
cpu0_L1D RFO       ACCESS:    1501208  HIT:    1366448  MISS:     134760
cpu0_L1D PREFETCH  ACCESS:          0  HIT:          0  MISS:          0
cpu0_L1D WRITEBACK ACCESS:          0  HIT:          0  MISS:          0
cpu0_L2C TOTAL     ACCESS:    1316396  HIT:     226202  MISS:    1090194
cpu0_L2C LOAD      ACCESS:     857844  HIT:      58383  MISS:     799461
cpu0_L2C RFO       ACCESS:     134741  HIT:      22021  MISS:     112720
cpu0_L2C PREFETCH  ACCESS:          0  HIT:          0  MISS:          0
cpu0_L2C WRITEBACK ACCESS:     322636  HIT:     145742  MISS:     176894
LLC TOTAL     ACCESS:    1217400  HIT:     661539  MISS:     555861
LLC LOAD      ACCESS:     799414  HIT:     311333  MISS:     488081
LLC RFO       ACCESS:     112698  HIT:      45011  MISS:      67687
LLC PREFETCH  ACCESS:          0  HIT:          0  MISS:          0
LLC WRITEBACK ACCESS:     304169  HIT:     304117  MISS:         52
Heartbeat CPU 0 instructions: 82000003 cycles: 63703586 heartbeat IPC: 1.18161 cumulative IPC: 0.657118 (Simulation time: 1 hr 31 min 53 sec) 

Region of Interest Statistics
cpu0_DTLB TOTAL     ACCESS:    8598329  HIT:    8508539  MISS:      89790
cpu0_DTLB LOAD      ACCESS:    7600596  HIT:    7528875  MISS:      71721
cpu0_DTLB RFO       ACCESS:     997733  HIT:     979664  MISS:      18069
cpu0_DTLB PREFETCH  ACCESS:          0  HIT:          0  MISS:          0
cpu0_DTLB WRITEBACK ACCESS:          0  HIT:          0  MISS:          0
cpu0_ITLB TOTAL     ACCESS:    1688800  HIT:    1688759  MISS:         41
cpu0_ITLB LOAD      ACCESS:    1688800  HIT:    1688759  MISS:         41
cpu0_ITLB RFO       ACCESS:          0  HIT:          0  MISS:          0
cpu0_ITLB PREFETCH  ACCESS:          0  HIT:          0  MISS:          0
cpu0_ITLB WRITEBACK ACCESS:          0  HIT:          0  MISS:          0
cpu0_L1I TOTAL     ACCESS:     392895  HIT:     391271  MISS:       1624
cpu0_L1I LOAD      ACCESS:     392895  HIT:     391271  MISS:       1624
cpu0_L1I RFO       ACCESS:          0  HIT:          0  MISS:          0
cpu0_L1I PREFETCH  ACCESS:          0  HIT:          0  MISS:          0
cpu0_L1I WRITEBACK ACCESS:          0  HIT:          0  MISS:          0
cpu0_STLB TOTAL     ACCESS:      89831  HIT:      81944  MISS:       7887
cpu0_STLB LOAD      ACCESS:      71762  HIT:      64984  MISS:       6778
cpu0_STLB RFO       ACCESS:      18069  HIT:      16960  MISS:       1109
cpu0_STLB PREFETCH  ACCESS:          0  HIT:          0  MISS:          0
cpu0_STLB WRITEBACK ACCESS:          0  HIT:          0  MISS:          0
cpu0_L1D TOTAL     ACCESS:    7536010  HIT:    6506133  MISS:    1029877
cpu0_L1D LOAD      ACCESS:    5962535  HIT:    5075332  MISS:     887203
cpu0_L1D RFO       ACCESS:    1566762  HIT:    1425310  MISS:     141452
cpu0_L1D PREFETCH  ACCESS:          0  HIT:          0  MISS:          0
cpu0_L1D WRITEBACK ACCESS:          0  HIT:          0  MISS:          0
cpu0_L2C TOTAL     ACCESS:    1361988  HIT:     235481  MISS:    1126507
cpu0_L2C LOAD      ACCESS:     888799  HIT:      60876  MISS:     827923
cpu0_L2C RFO       ACCESS:     141433  HIT:      23811  MISS:     117622
cpu0_L2C PREFETCH  ACCESS:          0  HIT:          0  MISS:          0
cpu0_L2C WRITEBACK ACCESS:     330534  HIT:     150733  MISS:     179801
LLC TOTAL     ACCESS:    1257562  HIT:     679978  MISS:     577584
LLC LOAD      ACCESS:     827876  HIT:     322276  MISS:     505600
LLC RFO       ACCESS:     117598  HIT:      45709  MISS:      71889
LLC PREFETCH  ACCESS:          0  HIT:          0  MISS:          0
LLC WRITEBACK ACCESS:     310927  HIT:     310873  MISS:         54
Heartbeat CPU 0 instructions: 84000003 cycles: 66558100 heartbeat IPC: 0.700645 cumulative IPC: 0.659528 (Simulation time: 1 hr 35 min 30 sec) 

Region of Interest Statistics
cpu0_DTLB TOTAL     ACCESS:    9149526  HIT:    9058500  MISS:      91026
cpu0_DTLB LOAD      ACCESS:    8077836  HIT:    8005042  MISS:      72794
cpu0_DTLB RFO       ACCESS:    1071690  HIT:    1053458  MISS:      18232
cpu0_DTLB PREFETCH  ACCESS:          0  HIT:          0  MISS:          0
cpu0_DTLB WRITEBACK ACCESS:          0  HIT:          0  MISS:          0
cpu0_ITLB TOTAL     ACCESS:    1811562  HIT:    1811521  MISS:         41
cpu0_ITLB LOAD      ACCESS:    1811562  HIT:    1811521  MISS:         41
cpu0_ITLB RFO       ACCESS:          0  HIT:          0  MISS:          0
cpu0_ITLB PREFETCH  ACCESS:          0  HIT:          0  MISS:          0
cpu0_ITLB WRITEBACK ACCESS:          0  HIT:          0  MISS:          0
cpu0_L1I TOTAL     ACCESS:     419237  HIT:     417548  MISS:       1689
cpu0_L1I LOAD      ACCESS:     419237  HIT:     417548  MISS:       1689
cpu0_L1I RFO       ACCESS:          0  HIT:          0  MISS:          0
cpu0_L1I PREFETCH  ACCESS:          0  HIT:          0  MISS:          0
cpu0_L1I WRITEBACK ACCESS:          0  HIT:          0  MISS:          0
cpu0_STLB TOTAL     ACCESS:      91067  HIT:      82629  MISS:       8438
cpu0_STLB LOAD      ACCESS:      72835  HIT:      65658  MISS:       7177
cpu0_STLB RFO       ACCESS:      18232  HIT:      16971  MISS:       1261
cpu0_STLB PREFETCH  ACCESS:          0  HIT:          0  MISS:          0
cpu0_STLB WRITEBACK ACCESS:          0  HIT:          0  MISS:          0
cpu0_L1D TOTAL     ACCESS:    7989338  HIT:    6886353  MISS:    1102985
cpu0_L1D LOAD      ACCESS:    6320768  HIT:    5372343  MISS:     948425
cpu0_L1D RFO       ACCESS:    1661308  HIT:    1508007  MISS:     153301
cpu0_L1D PREFETCH  ACCESS:          0  HIT:          0  MISS:          0
cpu0_L1D WRITEBACK ACCESS:          0  HIT:          0  MISS:          0
cpu0_L2C TOTAL     ACCESS:    1461478  HIT:     256574  MISS:    1204904
cpu0_L2C LOAD      ACCESS:     950081  HIT:      66519  MISS:     883562
cpu0_L2C RFO       ACCESS:     153282  HIT:      25729  MISS:     127553
cpu0_L2C PREFETCH  ACCESS:          0  HIT:          0  MISS:          0
cpu0_L2C WRITEBACK ACCESS:     356856  HIT:     164260  MISS:     192596
LLC TOTAL     ACCESS:    1348081  HIT:     725713  MISS:     622368
LLC LOAD      ACCESS:     883515  HIT:     342560  MISS:     540955
LLC RFO       ACCESS:     127528  HIT:      46210  MISS:      81318
LLC PREFETCH  ACCESS:          0  HIT:          0  MISS:          0
LLC WRITEBACK ACCESS:     335845  HIT:     335791  MISS:         54
Heartbeat CPU 0 instructions: 86000002 cycles: 68655052 heartbeat IPC: 0.953765 cumulative IPC: 0.671029 (Simulation time: 1 hr 38 min 18 sec) 

Region of Interest Statistics
cpu0_DTLB TOTAL     ACCESS:    9694599  HIT:    9592727  MISS:     101872
cpu0_DTLB LOAD      ACCESS:    8572098  HIT:    8490865  MISS:      81233
cpu0_DTLB RFO       ACCESS:    1122501  HIT:    1101862  MISS:      20639
cpu0_DTLB PREFETCH  ACCESS:          0  HIT:          0  MISS:          0
cpu0_DTLB WRITEBACK ACCESS:          0  HIT:          0  MISS:          0
cpu0_ITLB TOTAL     ACCESS:    1916723  HIT:    1916678  MISS:         45
cpu0_ITLB LOAD      ACCESS:    1916723  HIT:    1916678  MISS:         45
cpu0_ITLB RFO       ACCESS:          0  HIT:          0  MISS:          0
cpu0_ITLB PREFETCH  ACCESS:          0  HIT:          0  MISS:          0
cpu0_ITLB WRITEBACK ACCESS:          0  HIT:          0  MISS:          0
cpu0_L1I TOTAL     ACCESS:     454175  HIT:     452171  MISS:       2004
cpu0_L1I LOAD      ACCESS:     454175  HIT:     452171  MISS:       2004
cpu0_L1I RFO       ACCESS:          0  HIT:          0  MISS:          0
cpu0_L1I PREFETCH  ACCESS:          0  HIT:          0  MISS:          0
cpu0_L1I WRITEBACK ACCESS:          0  HIT:          0  MISS:          0
cpu0_STLB TOTAL     ACCESS:     101917  HIT:      93160  MISS:       8757
cpu0_STLB LOAD      ACCESS:      81278  HIT:      73783  MISS:       7495
cpu0_STLB RFO       ACCESS:      20639  HIT:      19377  MISS:       1262
cpu0_STLB PREFETCH  ACCESS:          0  HIT:          0  MISS:          0
cpu0_STLB WRITEBACK ACCESS:          0  HIT:          0  MISS:          0
cpu0_L1D TOTAL     ACCESS:    8477382  HIT:    7305237  MISS:    1172145
cpu0_L1D LOAD      ACCESS:    6704632  HIT:    5691460  MISS:    1013172
cpu0_L1D RFO       ACCESS:    1765176  HIT:    1607541  MISS:     157635
cpu0_L1D PREFETCH  ACCESS:          0  HIT:          0  MISS:          0
cpu0_L1D WRITEBACK ACCESS:          0  HIT:          0  MISS:          0
cpu0_L2C TOTAL     ACCESS:    1548169  HIT:     274360  MISS:    1273809
cpu0_L2C LOAD      ACCESS:    1015141  HIT:      73541  MISS:     941600
cpu0_L2C RFO       ACCESS:     157611  HIT:      27396  MISS:     130215
cpu0_L2C PREFETCH  ACCESS:          0  HIT:          0  MISS:          0
cpu0_L2C WRITEBACK ACCESS:     374079  HIT:     173356  MISS:     200723
LLC TOTAL     ACCESS:    1424810  HIT:     776603  MISS:     648207
LLC LOAD      ACCESS:     941545  HIT:     374916  MISS:     566629
LLC RFO       ACCESS:     130189  HIT:      48725  MISS:      81464
LLC PREFETCH  ACCESS:          0  HIT:          0  MISS:          0
LLC WRITEBACK ACCESS:     351805  HIT:     351738  MISS:         67
Heartbeat CPU 0 instructions: 88000004 cycles: 71158124 heartbeat IPC: 0.799019 cumulative IPC: 0.676734 (Simulation time: 1 hr 41 min 23 sec) 

Region of Interest Statistics
cpu0_DTLB TOTAL     ACCESS:   10252171  HIT:   10146390  MISS:     105781
cpu0_DTLB LOAD      ACCESS:    9073438  HIT:    8988502  MISS:      84936
cpu0_DTLB RFO       ACCESS:    1178733  HIT:    1157888  MISS:      20845
cpu0_DTLB PREFETCH  ACCESS:          0  HIT:          0  MISS:          0
cpu0_DTLB WRITEBACK ACCESS:          0  HIT:          0  MISS:          0
cpu0_ITLB TOTAL     ACCESS:    2007184  HIT:    2007139  MISS:         45
cpu0_ITLB LOAD      ACCESS:    2007184  HIT:    2007139  MISS:         45
cpu0_ITLB RFO       ACCESS:          0  HIT:          0  MISS:          0
cpu0_ITLB PREFETCH  ACCESS:          0  HIT:          0  MISS:          0
cpu0_ITLB WRITEBACK ACCESS:          0  HIT:          0  MISS:          0
cpu0_L1I TOTAL     ACCESS:     482641  HIT:     480637  MISS:       2004
cpu0_L1I LOAD      ACCESS:     482641  HIT:     480637  MISS:       2004
cpu0_L1I RFO       ACCESS:          0  HIT:          0  MISS:          0
cpu0_L1I PREFETCH  ACCESS:          0  HIT:          0  MISS:          0
cpu0_L1I WRITEBACK ACCESS:          0  HIT:          0  MISS:          0
cpu0_STLB TOTAL     ACCESS:     105826  HIT:      96653  MISS:       9173
cpu0_STLB LOAD      ACCESS:      84981  HIT:      77070  MISS:       7911
cpu0_STLB RFO       ACCESS:      20845  HIT:      19583  MISS:       1262
cpu0_STLB PREFETCH  ACCESS:          0  HIT:          0  MISS:          0
cpu0_STLB WRITEBACK ACCESS:          0  HIT:          0  MISS:          0
cpu0_L1D TOTAL     ACCESS:    8978614  HIT:    7755055  MISS:    1223559
cpu0_L1D LOAD      ACCESS:    7079369  HIT:    6019978  MISS:    1059391
cpu0_L1D RFO       ACCESS:    1891271  HIT:    1728542  MISS:     162729
cpu0_L1D PREFETCH  ACCESS:          0  HIT:          0  MISS:          0
cpu0_L1D WRITEBACK ACCESS:          0  HIT:          0  MISS:          0
cpu0_L2C TOTAL     ACCESS:    1611810  HIT:     287223  MISS:    1324587
cpu0_L2C LOAD      ACCESS:    1061357  HIT:      79148  MISS:     982209
cpu0_L2C RFO       ACCESS:     162705  HIT:      28237  MISS:     134468
cpu0_L2C PREFETCH  ACCESS:          0  HIT:          0  MISS:          0
cpu0_L2C WRITEBACK ACCESS:     386309  HIT:     179767  MISS:     206542
LLC TOTAL     ACCESS:    1481255  HIT:     802267  MISS:     678988
LLC LOAD      ACCESS:     982141  HIT:     384801  MISS:     597340
LLC RFO       ACCESS:     134442  HIT:      52908  MISS:      81534
LLC PREFETCH  ACCESS:          0  HIT:          0  MISS:          0
LLC WRITEBACK ACCESS:     363304  HIT:     363237  MISS:         67
Heartbeat CPU 0 instructions: 90000001 cycles: 73895592 heartbeat IPC: 0.730601 cumulative IPC: 0.679238 (Simulation time: 1 hr 44 min 39 sec) 

Region of Interest Statistics
cpu0_DTLB TOTAL     ACCESS:   10812709  HIT:   10702801  MISS:     109908
cpu0_DTLB LOAD      ACCESS:    9578067  HIT:    9489229  MISS:      88838
cpu0_DTLB RFO       ACCESS:    1234642  HIT:    1213572  MISS:      21070
cpu0_DTLB PREFETCH  ACCESS:          0  HIT:          0  MISS:          0
cpu0_DTLB WRITEBACK ACCESS:          0  HIT:          0  MISS:          0
cpu0_ITLB TOTAL     ACCESS:    2097905  HIT:    2097860  MISS:         45
cpu0_ITLB LOAD      ACCESS:    2097905  HIT:    2097860  MISS:         45
cpu0_ITLB RFO       ACCESS:          0  HIT:          0  MISS:          0
cpu0_ITLB PREFETCH  ACCESS:          0  HIT:          0  MISS:          0
cpu0_ITLB WRITEBACK ACCESS:          0  HIT:          0  MISS:          0
cpu0_L1I TOTAL     ACCESS:     511932  HIT:     509928  MISS:       2004
cpu0_L1I LOAD      ACCESS:     511932  HIT:     509928  MISS:       2004
cpu0_L1I RFO       ACCESS:          0  HIT:          0  MISS:          0
cpu0_L1I PREFETCH  ACCESS:          0  HIT:          0  MISS:          0
cpu0_L1I WRITEBACK ACCESS:          0  HIT:          0  MISS:          0
cpu0_STLB TOTAL     ACCESS:     109953  HIT:     100251  MISS:       9702
cpu0_STLB LOAD      ACCESS:      88883  HIT:      80443  MISS:       8440
cpu0_STLB RFO       ACCESS:      21070  HIT:      19808  MISS:       1262
cpu0_STLB PREFETCH  ACCESS:          0  HIT:          0  MISS:          0
cpu0_STLB WRITEBACK ACCESS:          0  HIT:          0  MISS:          0
cpu0_L1D TOTAL     ACCESS:    9482634  HIT:    8207325  MISS:    1275309
cpu0_L1D LOAD      ACCESS:    7457925  HIT:    6351892  MISS:    1106033
cpu0_L1D RFO       ACCESS:    2016235  HIT:    1848529  MISS:     167706
cpu0_L1D PREFETCH  ACCESS:          0  HIT:          0  MISS:          0
cpu0_L1D WRITEBACK ACCESS:          0  HIT:          0  MISS:          0
cpu0_L2C TOTAL     ACCESS:    1675960  HIT:     300567  MISS:    1375393
cpu0_L2C LOAD      ACCESS:    1107996  HIT:      84763  MISS:    1023233
cpu0_L2C RFO       ACCESS:     167682  HIT:      28934  MISS:     138748
cpu0_L2C PREFETCH  ACCESS:          0  HIT:          0  MISS:          0
cpu0_L2C WRITEBACK ACCESS:     398712  HIT:     186788  MISS:     211924
LLC TOTAL     ACCESS:    1538363  HIT:     825742  MISS:     712621
LLC LOAD      ACCESS:    1023156  HIT:     392263  MISS:     630893
LLC RFO       ACCESS:     138721  HIT:      57112  MISS:      81609
LLC PREFETCH  ACCESS:          0  HIT:          0  MISS:          0
LLC WRITEBACK ACCESS:     374998  HIT:     374926  MISS:         72
Heartbeat CPU 0 instructions: 92000002 cycles: 76486775 heartbeat IPC: 0.771849 cumulative IPC: 0.683141 (Simulation time: 1 hr 47 min 55 sec) 

Region of Interest Statistics
cpu0_DTLB TOTAL     ACCESS:   11369725  HIT:   11255937  MISS:     113788
cpu0_DTLB LOAD      ACCESS:   10079227  HIT:    9986713  MISS:      92514
cpu0_DTLB RFO       ACCESS:    1290498  HIT:    1269224  MISS:      21274
cpu0_DTLB PREFETCH  ACCESS:          0  HIT:          0  MISS:          0
cpu0_DTLB WRITEBACK ACCESS:          0  HIT:          0  MISS:          0
cpu0_ITLB TOTAL     ACCESS:    2187286  HIT:    2187241  MISS:         45
cpu0_ITLB LOAD      ACCESS:    2187286  HIT:    2187241  MISS:         45
cpu0_ITLB RFO       ACCESS:          0  HIT:          0  MISS:          0
cpu0_ITLB PREFETCH  ACCESS:          0  HIT:          0  MISS:          0
cpu0_ITLB WRITEBACK ACCESS:          0  HIT:          0  MISS:          0
cpu0_L1I TOTAL     ACCESS:     540325  HIT:     538321  MISS:       2004
cpu0_L1I LOAD      ACCESS:     540325  HIT:     538321  MISS:       2004
cpu0_L1I RFO       ACCESS:          0  HIT:          0  MISS:          0
cpu0_L1I PREFETCH  ACCESS:          0  HIT:          0  MISS:          0
cpu0_L1I WRITEBACK ACCESS:          0  HIT:          0  MISS:          0
cpu0_STLB TOTAL     ACCESS:     113833  HIT:     103569  MISS:      10264
cpu0_STLB LOAD      ACCESS:      92559  HIT:      83557  MISS:       9002
cpu0_STLB RFO       ACCESS:      21274  HIT:      20012  MISS:       1262
cpu0_STLB PREFETCH  ACCESS:          0  HIT:          0  MISS:          0
cpu0_STLB WRITEBACK ACCESS:          0  HIT:          0  MISS:          0
cpu0_L1D TOTAL     ACCESS:    9979964  HIT:    8653619  MISS:    1326345
cpu0_L1D LOAD      ACCESS:    7828126  HIT:    6676086  MISS:    1152040
cpu0_L1D RFO       ACCESS:    2142859  HIT:    1970249  MISS:     172610
cpu0_L1D PREFETCH  ACCESS:          0  HIT:          0  MISS:          0
cpu0_L1D WRITEBACK ACCESS:          0  HIT:          0  MISS:          0
cpu0_L2C TOTAL     ACCESS:    1739095  HIT:     313365  MISS:    1425730
cpu0_L2C LOAD      ACCESS:    1153997  HIT:      90439  MISS:    1063558
cpu0_L2C RFO       ACCESS:     172586  HIT:      29675  MISS:     142911
cpu0_L2C PREFETCH  ACCESS:          0  HIT:          0  MISS:          0
cpu0_L2C WRITEBACK ACCESS:     410817  HIT:     193159  MISS:     217658
LLC TOTAL     ACCESS:    1594463  HIT:     848382  MISS:     746081
LLC LOAD      ACCESS:    1063473  HIT:     399192  MISS:     664281
LLC RFO       ACCESS:     142884  HIT:      61205  MISS:      81679
LLC PREFETCH  ACCESS:          0  HIT:          0  MISS:          0
LLC WRITEBACK ACCESS:     386503  HIT:     386429  MISS:         74
Heartbeat CPU 0 instructions: 94000004 cycles: 84443452 heartbeat IPC: 0.251361 cumulative IPC: 0.633664 (Simulation time: 1 hr 55 min 58 sec) 

Region of Interest Statistics
cpu0_DTLB TOTAL     ACCESS:   11965127  HIT:   11846472  MISS:     118655
cpu0_DTLB LOAD      ACCESS:   10568699  HIT:   10471506  MISS:      97193
cpu0_DTLB RFO       ACCESS:    1396428  HIT:    1374966  MISS:      21462
cpu0_DTLB PREFETCH  ACCESS:          0  HIT:          0  MISS:          0
cpu0_DTLB WRITEBACK ACCESS:          0  HIT:          0  MISS:          0
cpu0_ITLB TOTAL     ACCESS:    2283078  HIT:    2283033  MISS:         45
cpu0_ITLB LOAD      ACCESS:    2283078  HIT:    2283033  MISS:         45
cpu0_ITLB RFO       ACCESS:          0  HIT:          0  MISS:          0
cpu0_ITLB PREFETCH  ACCESS:          0  HIT:          0  MISS:          0
cpu0_ITLB WRITEBACK ACCESS:          0  HIT:          0  MISS:          0
cpu0_L1I TOTAL     ACCESS:     558674  HIT:     556559  MISS:       2115
cpu0_L1I LOAD      ACCESS:     558674  HIT:     556559  MISS:       2115
cpu0_L1I RFO       ACCESS:          0  HIT:          0  MISS:          0
cpu0_L1I PREFETCH  ACCESS:          0  HIT:          0  MISS:          0
cpu0_L1I WRITEBACK ACCESS:          0  HIT:          0  MISS:          0
cpu0_STLB TOTAL     ACCESS:     118700  HIT:     107352  MISS:      11348
cpu0_STLB LOAD      ACCESS:      97238  HIT:      87152  MISS:      10086
cpu0_STLB RFO       ACCESS:      21462  HIT:      20200  MISS:       1262
cpu0_STLB PREFETCH  ACCESS:          0  HIT:          0  MISS:          0
cpu0_STLB WRITEBACK ACCESS:          0  HIT:          0  MISS:          0
cpu0_L1D TOTAL     ACCESS:   10478870  HIT:    9062346  MISS:    1416524
cpu0_L1D LOAD      ACCESS:    8133663  HIT:    6894030  MISS:    1239633
cpu0_L1D RFO       ACCESS:    2335613  HIT:    2160498  MISS:     175115
cpu0_L1D PREFETCH  ACCESS:          0  HIT:          0  MISS:          0
cpu0_L1D WRITEBACK ACCESS:          0  HIT:          0  MISS:          0
cpu0_L2C TOTAL     ACCESS:    1867509  HIT:     327517  MISS:    1539992
cpu0_L2C LOAD      ACCESS:    1241697  HIT:      93462  MISS:    1148235
cpu0_L2C RFO       ACCESS:     175091  HIT:      30117  MISS:     144974
cpu0_L2C PREFETCH  ACCESS:          0  HIT:          0  MISS:          0
cpu0_L2C WRITEBACK ACCESS:     448945  HIT:     203839  MISS:     245106
LLC TOTAL     ACCESS:    1718924  HIT:     900573  MISS:     818351
LLC LOAD      ACCESS:    1148144  HIT:     411641  MISS:     736503
LLC RFO       ACCESS:     144947  HIT:      63230  MISS:      81717
LLC PREFETCH  ACCESS:          0  HIT:          0  MISS:          0
LLC WRITEBACK ACCESS:     424156  HIT:     424079  MISS:         77
Heartbeat CPU 0 instructions: 96000000 cycles: 91354162 heartbeat IPC: 0.289405 cumulative IPC: 0.602504 (Simulation time: 2 hr 2 min 27 sec) 

Region of Interest Statistics
cpu0_DTLB TOTAL     ACCESS:   12539129  HIT:   12396760  MISS:     142369
cpu0_DTLB LOAD      ACCESS:   11046554  HIT:   10929899  MISS:     116655
cpu0_DTLB RFO       ACCESS:    1492575  HIT:    1466861  MISS:      25714
cpu0_DTLB PREFETCH  ACCESS:          0  HIT:          0  MISS:          0
cpu0_DTLB WRITEBACK ACCESS:          0  HIT:          0  MISS:          0
cpu0_ITLB TOTAL     ACCESS:    2380858  HIT:    2380810  MISS:         48
cpu0_ITLB LOAD      ACCESS:    2380858  HIT:    2380810  MISS:         48
cpu0_ITLB RFO       ACCESS:          0  HIT:          0  MISS:          0
cpu0_ITLB PREFETCH  ACCESS:          0  HIT:          0  MISS:          0
cpu0_ITLB WRITEBACK ACCESS:          0  HIT:          0  MISS:          0
cpu0_L1I TOTAL     ACCESS:     583183  HIT:     580853  MISS:       2330
cpu0_L1I LOAD      ACCESS:     583183  HIT:     580853  MISS:       2330
cpu0_L1I RFO       ACCESS:          0  HIT:          0  MISS:          0
cpu0_L1I PREFETCH  ACCESS:          0  HIT:          0  MISS:          0
cpu0_L1I WRITEBACK ACCESS:          0  HIT:          0  MISS:          0
cpu0_STLB TOTAL     ACCESS:     142417  HIT:     129712  MISS:      12705
cpu0_STLB LOAD      ACCESS:     116703  HIT:     105409  MISS:      11294
cpu0_STLB RFO       ACCESS:      25714  HIT:      24303  MISS:       1411
cpu0_STLB PREFETCH  ACCESS:          0  HIT:          0  MISS:          0
cpu0_STLB WRITEBACK ACCESS:          0  HIT:          0  MISS:          0
cpu0_L1D TOTAL     ACCESS:   10937558  HIT:    9427249  MISS:    1510309
cpu0_L1D LOAD      ACCESS:    8475785  HIT:    7151499  MISS:    1324286
cpu0_L1D RFO       ACCESS:    2451218  HIT:    2267005  MISS:     184213
cpu0_L1D PREFETCH  ACCESS:          0  HIT:          0  MISS:          0
cpu0_L1D WRITEBACK ACCESS:          0  HIT:          0  MISS:          0
cpu0_L2C TOTAL     ACCESS:    2000729  HIT:     344206  MISS:    1656523
cpu0_L2C LOAD      ACCESS:    1326565  HIT:      93610  MISS:    1232955
cpu0_L2C RFO       ACCESS:     184189  HIT:      30118  MISS:     154071
cpu0_L2C PREFETCH  ACCESS:          0  HIT:          0  MISS:          0
cpu0_L2C WRITEBACK ACCESS:     488165  HIT:     220378  MISS:     267787
LLC TOTAL     ACCESS:    1852152  HIT:     963921  MISS:     888231
LLC LOAD      ACCESS:    1232864  HIT:     435567  MISS:     797297
LLC RFO       ACCESS:     154044  HIT:      63245  MISS:      90799
LLC PREFETCH  ACCESS:          0  HIT:          0  MISS:          0
LLC WRITEBACK ACCESS:     463534  HIT:     463457  MISS:         77
Heartbeat CPU 0 instructions: 98000002 cycles: 97513033 heartbeat IPC: 0.324735 cumulative IPC: 0.581769 (Simulation time: 2 hr 8 min 22 sec) 

Region of Interest Statistics
cpu0_DTLB TOTAL     ACCESS:   13047869  HIT:   12903234  MISS:     144635
cpu0_DTLB LOAD      ACCESS:   11447897  HIT:   11329146  MISS:     118751
cpu0_DTLB RFO       ACCESS:    1599972  HIT:    1574088  MISS:      25884
cpu0_DTLB PREFETCH  ACCESS:          0  HIT:          0  MISS:          0
cpu0_DTLB WRITEBACK ACCESS:          0  HIT:          0  MISS:          0
cpu0_ITLB TOTAL     ACCESS:    2500781  HIT:    2500722  MISS:         59
cpu0_ITLB LOAD      ACCESS:    2500781  HIT:    2500722  MISS:         59
cpu0_ITLB RFO       ACCESS:          0  HIT:          0  MISS:          0
cpu0_ITLB PREFETCH  ACCESS:          0  HIT:          0  MISS:          0
cpu0_ITLB WRITEBACK ACCESS:          0  HIT:          0  MISS:          0
cpu0_L1I TOTAL     ACCESS:     593174  HIT:     590559  MISS:       2615
cpu0_L1I LOAD      ACCESS:     593174  HIT:     590559  MISS:       2615
cpu0_L1I RFO       ACCESS:          0  HIT:          0  MISS:          0
cpu0_L1I PREFETCH  ACCESS:          0  HIT:          0  MISS:          0
cpu0_L1I WRITEBACK ACCESS:          0  HIT:          0  MISS:          0
cpu0_STLB TOTAL     ACCESS:     144694  HIT:     130969  MISS:      13725
cpu0_STLB LOAD      ACCESS:     118810  HIT:     106643  MISS:      12167
cpu0_STLB RFO       ACCESS:      25884  HIT:      24326  MISS:       1558
cpu0_STLB PREFETCH  ACCESS:          0  HIT:          0  MISS:          0
cpu0_STLB WRITEBACK ACCESS:          0  HIT:          0  MISS:          0
cpu0_L1D TOTAL     ACCESS:   11355609  HIT:    9756257  MISS:    1599352
cpu0_L1D LOAD      ACCESS:    8736821  HIT:    7337847  MISS:    1398974
cpu0_L1D RFO       ACCESS:    2607433  HIT:    2408906  MISS:     198527
cpu0_L1D PREFETCH  ACCESS:          0  HIT:          0  MISS:          0
cpu0_L1D WRITEBACK ACCESS:          0  HIT:          0  MISS:          0
cpu0_L2C TOTAL     ACCESS:    2144004  HIT:     361374  MISS:    1782630
cpu0_L2C LOAD      ACCESS:    1401538  HIT:      93781  MISS:    1307757
cpu0_L2C RFO       ACCESS:     198503  HIT:      30359  MISS:     168144
cpu0_L2C PREFETCH  ACCESS:          0  HIT:          0  MISS:          0
cpu0_L2C WRITEBACK ACCESS:     542112  HIT:     237134  MISS:     304978
LLC TOTAL     ACCESS:    1994732  HIT:    1040550  MISS:     954182
LLC LOAD      ACCESS:    1307666  HIT:     455505  MISS:     852161
LLC RFO       ACCESS:     168117  HIT:      66245  MISS:     101872
LLC PREFETCH  ACCESS:          0  HIT:          0  MISS:          0
LLC WRITEBACK ACCESS:     517198  HIT:     517117  MISS:         81
Heartbeat CPU 0 instructions: 100000001 cycles: 106619965 heartbeat IPC: 0.219613 cumulative IPC: 0.545769 (Simulation time: 2 hr 17 min 7 sec) 

Region of Interest Statistics
cpu0_DTLB TOTAL     ACCESS:   13714499  HIT:   13568216  MISS:     146283
cpu0_DTLB LOAD      ACCESS:   11994591  HIT:   11874460  MISS:     120131
cpu0_DTLB RFO       ACCESS:    1719908  HIT:    1693756  MISS:      26152
cpu0_DTLB PREFETCH  ACCESS:          0  HIT:          0  MISS:          0
cpu0_DTLB WRITEBACK ACCESS:          0  HIT:          0  MISS:          0
cpu0_ITLB TOTAL     ACCESS:    2626681  HIT:    2626609  MISS:         72
cpu0_ITLB LOAD      ACCESS:    2626681  HIT:    2626609  MISS:         72
cpu0_ITLB RFO       ACCESS:          0  HIT:          0  MISS:          0
cpu0_ITLB PREFETCH  ACCESS:          0  HIT:          0  MISS:          0
cpu0_ITLB WRITEBACK ACCESS:          0  HIT:          0  MISS:          0
cpu0_L1I TOTAL     ACCESS:     601170  HIT:     598400  MISS:       2770
cpu0_L1I LOAD      ACCESS:     601170  HIT:     598400  MISS:       2770
cpu0_L1I RFO       ACCESS:          0  HIT:          0  MISS:          0
cpu0_L1I PREFETCH  ACCESS:          0  HIT:          0  MISS:          0
cpu0_L1I WRITEBACK ACCESS:          0  HIT:          0  MISS:          0
cpu0_STLB TOTAL     ACCESS:     146355  HIT:     131099  MISS:      15256
cpu0_STLB LOAD      ACCESS:     120203  HIT:     106773  MISS:      13430
cpu0_STLB RFO       ACCESS:      26152  HIT:      24326  MISS:       1826
cpu0_STLB PREFETCH  ACCESS:          0  HIT:          0  MISS:          0
cpu0_STLB WRITEBACK ACCESS:          0  HIT:          0  MISS:          0
cpu0_L1D TOTAL     ACCESS:   11823145  HIT:   10121948  MISS:    1701197
cpu0_L1D LOAD      ACCESS:    9024690  HIT:    7540820  MISS:    1483870
cpu0_L1D RFO       ACCESS:    2785962  HIT:    2570519  MISS:     215443
cpu0_L1D PREFETCH  ACCESS:          0  HIT:          0  MISS:          0
cpu0_L1D WRITEBACK ACCESS:          0  HIT:          0  MISS:          0
cpu0_L2C TOTAL     ACCESS:    2303773  HIT:     383304  MISS:    1920469
cpu0_L2C LOAD      ACCESS:    1486589  HIT:      93807  MISS:    1392782
cpu0_L2C RFO       ACCESS:     215419  HIT:      30360  MISS:     185059
cpu0_L2C PREFETCH  ACCESS:          0  HIT:          0  MISS:          0
cpu0_L2C WRITEBACK ACCESS:     599881  HIT:     259037  MISS:     340844
LLC TOTAL     ACCESS:    2154235  HIT:    1100346  MISS:    1053889
LLC LOAD      ACCESS:    1392691  HIT:     457749  MISS:     934942
LLC RFO       ACCESS:     185032  HIT:      66247  MISS:     118785
LLC PREFETCH  ACCESS:          0  HIT:          0  MISS:          0
LLC WRITEBACK ACCESS:     574728  HIT:     574643  MISS:         85
Heartbeat CPU 0 instructions: 102000000 cycles: 108177907 heartbeat IPC: 1.28374 cumulative IPC: 0.558109 (Simulation time: 2 hr 19 min 22 sec) 

Region of Interest Statistics
cpu0_DTLB TOTAL     ACCESS:   14313471  HIT:   14166847  MISS:     146624
cpu0_DTLB LOAD      ACCESS:   12537712  HIT:   12417406  MISS:     120306
cpu0_DTLB RFO       ACCESS:    1775759  HIT:    1749441  MISS:      26318
cpu0_DTLB PREFETCH  ACCESS:          0  HIT:          0  MISS:          0
cpu0_DTLB WRITEBACK ACCESS:          0  HIT:          0  MISS:          0
cpu0_ITLB TOTAL     ACCESS:    2674349  HIT:    2674268  MISS:         81
cpu0_ITLB LOAD      ACCESS:    2674349  HIT:    2674268  MISS:         81
cpu0_ITLB RFO       ACCESS:          0  HIT:          0  MISS:          0
cpu0_ITLB PREFETCH  ACCESS:          0  HIT:          0  MISS:          0
cpu0_ITLB WRITEBACK ACCESS:          0  HIT:          0  MISS:          0
cpu0_L1I TOTAL     ACCESS:     606295  HIT:     603366  MISS:       2929
cpu0_L1I LOAD      ACCESS:     606295  HIT:     603366  MISS:       2929
cpu0_L1I RFO       ACCESS:          0  HIT:          0  MISS:          0
cpu0_L1I PREFETCH  ACCESS:          0  HIT:          0  MISS:          0
cpu0_L1I WRITEBACK ACCESS:          0  HIT:          0  MISS:          0
cpu0_STLB TOTAL     ACCESS:     146705  HIT:     131153  MISS:      15552
cpu0_STLB LOAD      ACCESS:     120387  HIT:     106827  MISS:      13560
cpu0_STLB RFO       ACCESS:      26318  HIT:      24326  MISS:       1992
cpu0_STLB PREFETCH  ACCESS:          0  HIT:          0  MISS:          0
cpu0_STLB WRITEBACK ACCESS:          0  HIT:          0  MISS:          0
cpu0_L1D TOTAL     ACCESS:   12326591  HIT:   10586721  MISS:    1739870
cpu0_L1D LOAD      ACCESS:    9467243  HIT:    7956153  MISS:    1511090
cpu0_L1D RFO       ACCESS:    2846560  HIT:    2619714  MISS:     226846
cpu0_L1D PREFETCH  ACCESS:          0  HIT:          0  MISS:          0
cpu0_L1D WRITEBACK ACCESS:          0  HIT:          0  MISS:          0
cpu0_L2C TOTAL     ACCESS:    2358901  HIT:     391495  MISS:    1967406
cpu0_L2C LOAD      ACCESS:    1513939  HIT:      97281  MISS:    1416658
cpu0_L2C RFO       ACCESS:     226822  HIT:      31113  MISS:     195709
cpu0_L2C PREFETCH  ACCESS:          0  HIT:          0  MISS:          0
cpu0_L2C WRITEBACK ACCESS:     616206  HIT:     262997  MISS:     353209
LLC TOTAL     ACCESS:    2205286  HIT:    1134275  MISS:    1071011
LLC LOAD      ACCESS:    1416541  HIT:     474763  MISS:     941778
LLC RFO       ACCESS:     195682  HIT:      66614  MISS:     129068
LLC PREFETCH  ACCESS:          0  HIT:          0  MISS:          0
LLC WRITEBACK ACCESS:     591233  HIT:     591148  MISS:         85
Heartbeat CPU 0 instructions: 104000002 cycles: 109184902 heartbeat IPC: 1.98611 cumulative IPC: 0.573377 (Simulation time: 2 hr 21 min 10 sec) 

Region of Interest Statistics
cpu0_DTLB TOTAL     ACCESS:   14927947  HIT:   14781171  MISS:     146776
cpu0_DTLB LOAD      ACCESS:   13113781  HIT:   12993323  MISS:     120458
cpu0_DTLB RFO       ACCESS:    1814166  HIT:    1787848  MISS:      26318
cpu0_DTLB PREFETCH  ACCESS:          0  HIT:          0  MISS:          0
cpu0_DTLB WRITEBACK ACCESS:          0  HIT:          0  MISS:          0
cpu0_ITLB TOTAL     ACCESS:    2711427  HIT:    2711346  MISS:         81
cpu0_ITLB LOAD      ACCESS:    2711427  HIT:    2711346  MISS:         81
cpu0_ITLB RFO       ACCESS:          0  HIT:          0  MISS:          0
cpu0_ITLB PREFETCH  ACCESS:          0  HIT:          0  MISS:          0
cpu0_ITLB WRITEBACK ACCESS:          0  HIT:          0  MISS:          0
cpu0_L1I TOTAL     ACCESS:     606999  HIT:     604070  MISS:       2929
cpu0_L1I LOAD      ACCESS:     606999  HIT:     604070  MISS:       2929
cpu0_L1I RFO       ACCESS:          0  HIT:          0  MISS:          0
cpu0_L1I PREFETCH  ACCESS:          0  HIT:          0  MISS:          0
cpu0_L1I WRITEBACK ACCESS:          0  HIT:          0  MISS:          0
cpu0_STLB TOTAL     ACCESS:     146857  HIT:     131205  MISS:      15652
cpu0_STLB LOAD      ACCESS:     120539  HIT:     106879  MISS:      13660
cpu0_STLB RFO       ACCESS:      26318  HIT:      24326  MISS:       1992
cpu0_STLB PREFETCH  ACCESS:          0  HIT:          0  MISS:          0
cpu0_STLB WRITEBACK ACCESS:          0  HIT:          0  MISS:          0
cpu0_L1D TOTAL     ACCESS:   12853336  HIT:   11083199  MISS:    1770137
cpu0_L1D LOAD      ACCESS:    9940734  HIT:    8400661  MISS:    1540073
cpu0_L1D RFO       ACCESS:    2899714  HIT:    2671627  MISS:     228087
cpu0_L1D PREFETCH  ACCESS:          0  HIT:          0  MISS:          0
cpu0_L1D WRITEBACK ACCESS:          0  HIT:          0  MISS:          0
cpu0_L2C TOTAL     ACCESS:    2395026  HIT:     399961  MISS:    1995065
cpu0_L2C LOAD      ACCESS:    1542899  HIT:     101404  MISS:    1441495
cpu0_L2C RFO       ACCESS:     228063  HIT:      31947  MISS:     196116
cpu0_L2C PREFETCH  ACCESS:          0  HIT:          0  MISS:          0
cpu0_L2C WRITEBACK ACCESS:     622087  HIT:     266498  MISS:     355589
LLC TOTAL     ACCESS:    2236343  HIT:    1159097  MISS:    1077246
LLC LOAD      ACCESS:    1441354  HIT:     493341  MISS:     948013
LLC RFO       ACCESS:     196089  HIT:      67021  MISS:     129068
LLC PREFETCH  ACCESS:          0  HIT:          0  MISS:          0
LLC WRITEBACK ACCESS:     597035  HIT:     596950  MISS:         85
Heartbeat CPU 0 instructions: 106000004 cycles: 110175738 heartbeat IPC: 2.0185 cumulative IPC: 0.588423 (Simulation time: 2 hr 22 min 55 sec) 

Region of Interest Statistics
cpu0_DTLB TOTAL     ACCESS:   15486471  HIT:   15339530  MISS:     146941
cpu0_DTLB LOAD      ACCESS:   13633882  HIT:   13513262  MISS:     120620
cpu0_DTLB RFO       ACCESS:    1852589  HIT:    1826268  MISS:      26321
cpu0_DTLB PREFETCH  ACCESS:          0  HIT:          0  MISS:          0
cpu0_DTLB WRITEBACK ACCESS:          0  HIT:          0  MISS:          0
cpu0_ITLB TOTAL     ACCESS:    2751924  HIT:    2751842  MISS:         82
cpu0_ITLB LOAD      ACCESS:    2751924  HIT:    2751842  MISS:         82
cpu0_ITLB RFO       ACCESS:          0  HIT:          0  MISS:          0
cpu0_ITLB PREFETCH  ACCESS:          0  HIT:          0  MISS:          0
cpu0_ITLB WRITEBACK ACCESS:          0  HIT:          0  MISS:          0
cpu0_L1I TOTAL     ACCESS:     607940  HIT:     604935  MISS:       3005
cpu0_L1I LOAD      ACCESS:     607940  HIT:     604935  MISS:       3005
cpu0_L1I RFO       ACCESS:          0  HIT:          0  MISS:          0
cpu0_L1I PREFETCH  ACCESS:          0  HIT:          0  MISS:          0
cpu0_L1I WRITEBACK ACCESS:          0  HIT:          0  MISS:          0
cpu0_STLB TOTAL     ACCESS:     147023  HIT:     131281  MISS:      15742
cpu0_STLB LOAD      ACCESS:     120702  HIT:     106953  MISS:      13749
cpu0_STLB RFO       ACCESS:      26321  HIT:      24328  MISS:       1993
cpu0_STLB PREFETCH  ACCESS:          0  HIT:          0  MISS:          0
cpu0_STLB WRITEBACK ACCESS:          0  HIT:          0  MISS:          0
cpu0_L1D TOTAL     ACCESS:   13327279  HIT:   11532889  MISS:    1794390
cpu0_L1D LOAD      ACCESS:   10360428  HIT:    8797106  MISS:    1563322
cpu0_L1D RFO       ACCESS:    2953873  HIT:    2724815  MISS:     229058
cpu0_L1D PREFETCH  ACCESS:          0  HIT:          0  MISS:          0
cpu0_L1D WRITEBACK ACCESS:          0  HIT:          0  MISS:          0
cpu0_L2C TOTAL     ACCESS:    2424614  HIT:     406799  MISS:    2017815
cpu0_L2C LOAD      ACCESS:    1566191  HIT:     104495  MISS:    1461696
cpu0_L2C RFO       ACCESS:     229034  HIT:      32504  MISS:     196530
cpu0_L2C PREFETCH  ACCESS:          0  HIT:          0  MISS:          0
[...]
cpu0_ITLB LOAD      ACCESS:   67032258  HIT:   67031414  MISS:        844
cpu0_ITLB RFO       ACCESS:          0  HIT:          0  MISS:          0
cpu0_ITLB PREFETCH  ACCESS:          0  HIT:          0  MISS:          0
cpu0_ITLB WRITEBACK ACCESS:          0  HIT:          0  MISS:          0
cpu0_ITLB TRANSLATION ACCESS:          0  HIT:          0  MISS:          0
cpu0_ITLB PREFETCH  REQUESTED:          0  ISSUED:          0  USEFUL:          0  USELESS:          0
cpu0_ITLB AVERAGE MISS LATENCY: 158.428 cycles
cpu0_L1I TOTAL     ACCESS:  106615001  HIT:  106547018  MISS:      67983
cpu0_L1I LOAD      ACCESS:  106615001  HIT:  106547018  MISS:      67983
cpu0_L1I RFO       ACCESS:          0  HIT:          0  MISS:          0
cpu0_L1I PREFETCH  ACCESS:          0  HIT:          0  MISS:          0
cpu0_L1I WRITEBACK ACCESS:          0  HIT:          0  MISS:          0
cpu0_L1I TRANSLATION ACCESS:          0  HIT:          0  MISS:          0
cpu0_L1I PREFETCH  REQUESTED:          0  ISSUED:          0  USEFUL:          0  USELESS:          0
cpu0_L1I AVERAGE MISS LATENCY: 147.763 cycles
cpu0_STLB TOTAL     ACCESS:     818903  HIT:     714648  MISS:     104255
cpu0_STLB LOAD      ACCESS:     635105  HIT:     554357  MISS:      80748
cpu0_STLB RFO       ACCESS:     183798  HIT:     160291  MISS:      23507
cpu0_STLB PREFETCH  ACCESS:          0  HIT:          0  MISS:          0
cpu0_STLB WRITEBACK ACCESS:          0  HIT:          0  MISS:          0
cpu0_STLB TRANSLATION ACCESS:          0  HIT:          0  MISS:          0
cpu0_STLB PREFETCH  REQUESTED:          0  ISSUED:          0  USEFUL:          0  USELESS:          0
cpu0_STLB AVERAGE MISS LATENCY: 117.225 cycles
cpu0_L1D TOTAL     ACCESS:  324159554  HIT:  309762792  MISS:   14396762
cpu0_L1D LOAD      ACCESS:  251834308  HIT:  240506514  MISS:   11327794
cpu0_L1D RFO       ACCESS:   72236014  HIT:   69178091  MISS:    3057923
cpu0_L1D PREFETCH  ACCESS:          0  HIT:          0  MISS:          0
cpu0_L1D WRITEBACK ACCESS:          0  HIT:          0  MISS:          0
cpu0_L1D TRANSLATION ACCESS:      89232  HIT:      78187  MISS:      11045
cpu0_L1D PREFETCH  REQUESTED:          0  ISSUED:          0  USEFUL:          0  USELESS:          0
cpu0_L1D AVERAGE MISS LATENCY: 345.461 cycles
cpu0_L2C TOTAL     ACCESS:   20090166  HIT:    3422492  MISS:   16667674
cpu0_L2C LOAD      ACCESS:   11395003  HIT:     664609  MISS:   10730394
cpu0_L2C RFO       ACCESS:    3057827  HIT:     153612  MISS:    2904215
cpu0_L2C PREFETCH  ACCESS:          0  HIT:          0  MISS:          0
cpu0_L2C WRITEBACK ACCESS:    5626291  HIT:    2602886  MISS:    3023405
cpu0_L2C TRANSLATION ACCESS:      11045  HIT:       1385  MISS:       9660
cpu0_L2C PREFETCH  REQUESTED:          0  ISSUED:          0  USEFUL:          0  USELESS:          0
cpu0_L2C AVERAGE MISS LATENCY: 289.308 cycles
LLC TOTAL     ACCESS:   19133621  HIT:   11924322  MISS:    7209299
LLC LOAD      ACCESS:   10729607  HIT:    5189530  MISS:    5540077
LLC RFO       ACCESS:    2904106  HIT:    1235866  MISS:    1668240
LLC PREFETCH  ACCESS:          0  HIT:          0  MISS:          0
LLC WRITEBACK ACCESS:    5490248  HIT:    5489811  MISS:        437
LLC TRANSLATION ACCESS:       9660  HIT:       9115  MISS:        545
LLC PREFETCH  REQUESTED:          0  ISSUED:          0  USEFUL:          0  USELESS:          0
LLC AVERAGE MISS LATENCY: 629.125 cycles
~~~~~~~~~~Reuse Distance Profiler output~~~~~~~~~~
0	37431888	14832784
1	17836016	11861216
2	15280720	11472112
3	14202672	11126944
4	12358992	10125024
5	11901904	10024704
6	10586032	9025936
7	11017008	9781152
8	9360960	8069376
9	9255200	8204816
10	7655952	6871552
11	6731680	6025216
12	6151536	5385664
13	5608672	5031968
14	4523280	3844736
15	4365728	3449264
16	3738160	3125248
17	3731328	3342112
18	5149824	4443360
19	5872496	5171888
20	5008368	4332160
21	4451952	3911808
22	4094128	3634432
23	5875296	5311728
24	4950800	4496224
25	4108016	3662912
26	5718560	5123408
27	3862320	3468432
28	3022336	2539344
29	2704608	2290704
30	1731568	1444432
31	1501168	1085072
32	1715424	1473552
33	1159632	881712
34	1346560	1008448
35	2549472	2001712
36	1490480	1230016
37	3080768	2671824
38	1381504	1033952
39	1226352	909504
40	1760656	1363392
41	942384	726784
42	1247424	1016128
43	1030944	822640
44	900384	683536
45	1266928	927408
46	1208416	848944
47	1120592	789632
48	1495200	978624
49	2194256	1427184
50	834064	548368
51	589504	446288
52	579264	417344
53	668576	490608
54	723968	594816
55	872608	666000
56	1274896	1016512
57	1087808	774240
58	948064	739168
59	720896	562144
60	616912	480736
61	1401552	1011376
62	2696864	1932720
63	706352	562080
64	922432	762544
66	1037232	895760
68	2712240	2166448
70	1850704	1395232
72	992960	856048
74	981296	863280
76	693984	605216
78	628816	555920
80	436592	390384
82	426400	389024
84	564240	515392
86	1171312	1111488
88	640976	562208
90	280288	244800
92	328752	289600
94	298208	250640
96	300256	230480
98	217024	175968
100	203440	168944
102	181872	146096
104	138832	112448
106	117616	95168
108	147616	126544
110	162176	139376
112	226896	209088
114	127584	114672
116	124576	111536
118	159248	144064
120	142656	125088
122	109376	92160
124	112640	95856
126	119424	105072
128	233424	211664
132	230096	211984
136	263888	241520
140	254144	236608
144	258832	246064
148	297232	276384
152	218640	191120
156	174640	165024
160	177120	164800
164	193904	173168
168	151888	136768
172	125920	114768
176	171968	149424
180	147264	135920
184	124064	119232
188	136480	131600
192	141248	135280
196	124624	115264
200	192192	165648
204	188368	168160
208	135680	124352
212	111744	108496
216	83952	82400
220	83216	81920
224	75056	74224
228	77056	76208
232	64752	63824
236	70896	69712
240	86192	85088
244	78816	77488
248	68496	67152
252	62304	60352
256	132112	127120
264	203920	197664
272	193840	189200
280	199872	194640
288	150432	139744
296	144048	132736
304	127328	124336
312	162272	147904
320	126144	123392
328	127008	123776
336	133616	122896
344	113568	107200
352	155680	146480
360	153136	144736
368	128384	117760
376	187312	171712
384	166176	144608
392	123008	110944
400	163360	153776
408	243040	234688
416	426608	420480
424	184992	181008
432	123648	120320
440	89008	87792
448	77072	75776
456	78032	76848
464	90160	89632
472	101328	101056
480	147984	147872
488	178352	178224
496	116736	116576
504	74592	73824
512	113456	106192
528	65152	57680
544	52528	50896
560	61216	52080
576	70208	68864
592	58272	58000
608	43424	43104
624	32464	31536
640	27984	24400
656	19376	18928
672	19440	18976
688	25872	23632
704	30368	22752
720	34480	23936
736	26880	17408
752	23392	13584
768	18224	14576
784	26256	18704
800	34240	25200
816	49040	35680
832	44480	34000
848	25488	18128
864	16912	11088
880	29952	14512
896	31184	14880
912	25968	17024
928	25232	20704
944	31552	25824
960	40192	30736
976	33296	25168
992	28336	20224
1008	26064	18096
1024	54096	34368
1056	81312	73056
1088	58880	40544
1120	62464	45888
1152	53856	48928
1184	49328	43392
1216	43664	36448
1248	38816	32320
1280	30224	24624
1312	35280	28736
1344	53184	35024
1376	169728	107056
1408	185872	149280
1440	80480	65424
1472	107552	85200
1504	413536	371760
1536	74560	55136
1568	93728	89184
1600	58656	55232
1632	56912	53632
1664	31392	26672
1696	25584	21072
1728	38016	32352
1760	68512	64384
1792	29248	24560
1824	39056	28400
1856	63536	39632
1888	54928	43088
1920	40400	33152
1952	46496	41264
1984	62960	57904
2016	30976	26464
2048	51568	43328
2112	45600	37392
2176	39888	30768
2240	40864	29952
2304	61008	42976
2368	69056	27136
2432	91520	66752
2496	233520	213376
2560	76960	60592
2624	60688	49664
2688	65616	48896
2752	77648	60240
2816	113488	70864
2880	94496	57920
2944	221072	192720
3008	133424	118944
3072	102256	92112
3136	53072	42960
3200	53504	39744
3264	60400	44000
3328	69408	53360
3392	75456	61648
3456	76192	67664
3520	59568	53760
3584	35904	30944
3648	28832	24112
3712	28016	21520
3776	27840	22800
3840	29680	25376
3904	22800	18880
3968	21712	16752
4032	21824	17840
4096	42304	34592
4224	39472	30544
4352	35776	27232
4480	42528	34288
4608	47232	39232
4736	38768	30880
4864	39168	30096
4992	29568	21632
5120	24464	17520
5248	28864	20320
5376	27728	19952
5504	29184	21824
5632	30416	22032
5760	29888	22352
5888	26448	20192
6016	28624	22752
6144	37328	31184
6272	31504	25696
6400	30848	24192
6528	26880	20752
6656	29120	23008
6784	42368	34432
6912	41152	31376
7040	56464	43872
7168	86352	71712
7296	127072	111504
7424	87648	76112
7552	32784	23280
7680	21488	12976
7808	18256	12000
7936	34608	28624
8064	18688	11744
8192	56080	44848
8448	53024	40880
8704	46704	31920
8960	38960	27712
9216	26112	17296
9472	51104	39936
9728	32672	18944
9984	31616	19216
10240	36208	24576
10496	35808	24064
10752	29728	17680
11008	26416	16624
11264	29392	18240
11520	24624	15184
11776	30976	19744
12032	39056	28352
12288	41552	33120
12544	46304	37136
12800	41152	29888
13056	36896	25504
13312	33296	22288
13568	34656	24672
13824	35264	25424
14080	65520	55312
14336	50640	42048
14592	24560	16256
14848	24096	15136
15104	30080	24128
15360	33152	29008
15616	28512	24928
15872	21104	17744
16128	22304	19184
16384	122096	114848
16896	195072	188928
17408	25344	19888
17920	15216	9744
18432	39232	33472
18944	94640	87248
19456	21056	15328
19968	15328	9936
20480	15360	8656
20992	22480	13104
21504	27920	16528
22016	26656	15024
22528	22608	14384
23040	14848	10816
23552	55856	53504
24064	213360	212256
24576	26240	24800
25088	43824	42016
25600	47072	45968
26112	28304	25104
26624	23776	19264
27136	23696	19408
27648	38160	33872
28160	17840	13248
28672	13616	9376
29184	8304	3360
29696	6560	2816
30208	7744	3296
30720	7456	2640
31232	6560	2000
31744	8608	4016
32256	16080	11520
32768	17808	13008
33792	21392	19200
34816	20144	17616
35840	19856	16000
36864	35584	32304
37888	21856	19104
38912	13104	10464
39936	10800	8512
40960	8560	6272
41984	13712	10704
43008	16416	13904
44032	11600	7696
45056	7968	5584
46080	7744	5312
47104	7600	4912
48128	6848	4480
49152	8576	5824
50176	8400	5888
51200	7840	5216
52224	31696	29184
53248	213840	211440
54272	6688	4304
55296	6480	3904
56320	6640	4160
57344	8240	5456
58368	6832	4976
59392	6144	4160
60416	6096	4432
61440	6800	4912
62464	7056	5104
63488	6112	4448
64512	6688	4832
65536	14096	10352
67584	15344	11408
69632	15104	11984
71680	19408	17904
73728	22560	21216
75776	21808	20512
77824	19968	18816
79872	20704	19024
81920	23104	20832
83968	22928	20192
86016	25024	21632
88064	24096	21280
90112	21440	19760
92160	30192	27776
94208	45056	42720
96256	42752	40256
98304	30512	27616
100352	21120	18144
102400	19888	17280
104448	19264	17152
106496	19712	17584
108544	19520	17072
110592	20448	17840
112640	18016	15440
114688	17360	15264
116736	17488	15328
118784	17728	15616
120832	28048	26144
122880	28992	27104
124928	25808	24032
126976	25280	23856
129024	25952	24400
131072	32432	30464
135168	30032	29360
139264	37584	36816
143360	35712	34752
147456	29440	27680
151552	40544	39488
155648	34624	33216
159744	27600	26736
163840	18976	17760
167936	19424	18080
172032	16224	14720
176128	16224	14832
180224	15328	13584
184320	17248	15232
188416	17584	15856
192512	21680	19472
196608	17504	15872
200704	14560	12912
204800	15120	12832
208896	14768	11616
212992	17584	13744
217088	19792	13456
221184	20320	12688
225280	20912	12624
229376	19872	11552
233472	22832	14688
237568	21920	13696
241664	19184	10912
245760	19056	10528
249856	19168	10896
253952	21696	13328
258048	23664	12208
262144	45808	24560
270336	46736	26800
278528	39760	28400
286720	37920	26480
294912	31008	19296
303104	31056	17504
311296	37024	18416
319488	45168	18128
327680	37504	18896
335872	32832	18080
344064	30096	16416
352256	27552	15600
360448	20384	16560
368640	16816	13568
376832	17840	14288
385024	18912	15360
393216	17888	14000
401408	17888	13792
409600	23232	17760
417792	25376	18048
425984	23696	16656
434176	24576	17968
442368	48944	41888
450560	50176	41632
458752	46992	40176
466944	49104	38496
475136	28528	19488
483328	27760	19952
491520	29120	20688
499712	28000	19600
507904	31936	21472
516096	32672	21232
524288	61920	43776
540672	56736	40304
557056	47680	40160
573440	44448	41568
589824	41216	38336
606208	36336	33072
622592	40512	36400
638976	37360	32624
655360	40320	35072
671744	38048	32224
688128	35808	30528
704512	37904	30288
720896	49120	30992
737280	41680	33280
753664	36528	30512
770048	44800	35712
786432	38384	35920
802816	62240	59632
819200	68416	66304
835584	64496	61920
851968	62256	59616
868352	55472	53216
884736	54032	52016
901120	52192	50448
917504	58912	57568
933888	62256	60800
950272	57904	56256
966656	70208	68960
983040	132080	130656
999424	44768	43072
1015808	44176	42048
1032192	43440	37984
1048576	94448	84784
1081344	87696	79552
1114112	91184	80368
1146880	87680	71840
1179648	80576	64912
1212416	75488	65152
1245184	81600	69984
1277952	80752	74592
1310720	50576	46880
1343488	46448	43472
1376256	46416	42928
1409024	37344	33584
1441792	35536	30032
1474560	42896	29984
1507328	39568	29408
1540096	52960	34736
1572864	47888	35696
1605632	42752	33856
1638400	45856	32928
1671168	36112	28384
1703936	27904	27152
1736704	26144	25360
1769472	26624	25696
1802240	28608	27680
1835008	27776	26944
1867776	28064	26880
1900544	26016	25248
1933312	28048	27120
1966080	27456	26704
1998848	29344	28224
2031616	25360	24384
2064384	23888	23072
2097152	45408	43632
2162688	56768	53952
2228224	74560	71008
2293760	88000	84032
2359296	90720	88640
2424832	81360	76864
2490368	60448	56736
2555904	59648	54592
2621440	40640	36128
2686976	32240	25808
2752512	27280	21744
2818048	26752	21168
2883584	27120	21328
2949120	28848	23312
3014656	27216	22208
3080192	28560	22896
3145728	37664	32784
3211264	48304	41840
3276800	27904	21712
3342336	33728	28112
3407872	53104	34272
3473408	49872	33120
3538944	37056	34064
3604480	52032	30208
3670016	179872	120272
3735552	34112	28576
3801088	38752	33840
3866624	44528	39776
3932160	36736	32336
3997696	32208	27872
4063232	22640	16096
4128768	23936	14560
4194304	48544	27728
4325376	46656	26240
4456448	52656	27552
4587520	60512	36192
4718592	72048	46560
4849664	112752	90240
4980736	76208	59120
5111808	85296	68928
5242880	51568	41024
5373952	37600	31104
5505024	40688	37984
5636096	25568	23744
5767168	24608	21312
5898240	27776	26896
6029312	633216	626000
6160384	21888	19200
6291456	23952	20240
6422528	54576	46848
6553600	23424	17760
6684672	23232	19824
6815744	15024	11632
6946816	15280	12016
7077888	27312	24144
7208960	28960	25024
7340032	25936	22400
7471104	28528	25056
7602176	25952	23088
7733248	41056	37504
7864320	20912	17856
7995392	21504	17760
8126464	14912	11520
8257536	11248	7008
8388608	44016	33216
8650752	36832	30704
8912896	28704	27072
9175040	25104	24960
9437184	17232	17056
9699328	33184	32832
9961472	26704	26448
10223616	37152	36400
10485760	8736	7664
10747904	134208	77728
11010048	60176	41696
11272192	11392	7808
11534336	24880	24272
11796480	11616	8384
12058624	8896	8064
12320768	3440	2624
12582912	3392	2992
12845056	4304	3920
13107200	7504	7184
13369344	7904	7520
13631488	8368	8016
13893632	1328	960
14155776	2400	2080
14417920	2176	1840
14680064	4016	3792
14942208	10336	10240
15204352	25168	24672
15466496	15664	15184
15728640	6656	6048
15990784	2528	2528
16252928	2144	2000
16515072	1920	1552
16777216	16112	15952
17301504	19312	19088
17825792	13152	12592
18350080	15568	15552
18874368	16368	11264
19398656	16368	11056
19922944	4256	2592
20447232	5184	3600
20971520	5504	4320
21495808	6960	5824
22020096	15456	13888
22544384	6784	5808
23068672	8784	7088
23592960	42624	28640
24117248	11536	6624
24641536	3680	3584
25165824	3328	2848
25690112	36512	11552
26214400	76272	2928
26738688	12000	8000
27262976	14816	8368
27787264	11936	4544
28311552	9584	3280
28835840	8096	3296
29360128	11680	320
29884416	6224	512
30408704	15760	1184
30932992	21104	80
31457280	8608	352
31981568	5552	1520
32505856	3776	432
33030144	11584	10928
33554432	5936	5568
34603008	5120	4544
35651584	2976	1888
36700160	2304	1584
37748736	1760	1728
38797312	1920	800
39845888	4928	1488
40894464	10400	1712
41943040	7920	1728
42991616	29792	1216
44040192	22016	14400
45088768	6512	6080
46137344	5904	5632
47185920	4416	3872
48234496	2640	2176
49283072	1824	1440
50331648	2528	1856
51380224	3120	1808
52428800	17648	1376
53477376	10496	2000
54525952	20496	12096
55574528	30512	13792
56623104	16320	6432
57671680	8336	3792
58720256	10976	3456
59768832	8512	3648
60817408	22720	19760
61865984	15248	4304
62914560	9984	8512
63963136	8768	6784
65011712	42752	22208
66060288	9776	7552
67108864	100672	95776
69206016	30448	29008
71303168	20864	20000
73400320	3584	2864
75497472	22704	22032
77594624	9728	8464
79691776	3248	2544
81788928	3568	3056
83886080	3824	2672
85983232	14240	5056
88080384	10432	9360
90177536	4512	3808
92274688	11904	8240
94371840	14560	11392
96468992	25760	15792
98566144	20704	17952
100663296	3200	3040
102760448	1840	1664
104857600	9456	9232
106954752	16832	2176
109051904	15424	10000
111149056	14176	672
113246208	2496	736
115343360	944	944
117440512	432	432
119537664	768	768
121634816	8704	320
123731968	17520	480
125829120	160	160
127926272	192	192
130023424	528	512
132120576	8608	96
134217728	112	112
138412032	320	288
142606336	8928	0
146800640	0	0
150994944	0	0
155189248	8288	0
159383552	0	0
163577856	43088	31808
167772160	22144	3744
171966464	25136	0
176160768	0	0
180355072	0	0
184549376	0	0
188743680	16832	13440
192937984	70608	0
197132288	288	0
201326592	368	352
205520896	0	0
209715200	0	0
213909504	0	0
218103808	15040	5104
222298112	0	0
226492416	0	0
230686720	0	0
234881024	0	0
239075328	0	0
243269632	0	0
247463936	0	0
251658240	0	0
255852544	0	0
260046848	0	0
264241152	0	0
268435456	0	0
276824064	0	0
285212672	0	0
293601280	0	0
301989888	0	0
310378496	0	0
318767104	0	0
327155712	0	0
335544320	0	0
343932928	0	0
352321536	0	0
360710144	0	0
369098752	0	0
377487360	0	0
385875968	0	0
394264576	0	0
402653184	0	0
411041792	0	0
419430400	0	0
427819008	0	0
436207616	0	0
444596224	0	0
452984832	0	0
461373440	0	0
469762048	0	0
478150656	0	0
486539264	0	0
494927872	0	0
503316480	0	0
511705088	0	0
520093696	0	0
528482304	0	0
536870912	0	0
553648128	0	0
570425344	0	0
587202560	0	0
603979776	0	0
620756992	0	0
637534208	0	0
654311424	0	0
671088640	0	0
687865856	0	0
704643072	0	0
721420288	0	0
738197504	0	0
754974720	0	0
771751936	0	0
788529152	0	0
805306368	0	0
822083584	0	0
838860800	0	0
855638016	0	0
872415232	0	0
889192448	0	0
905969664	0	0
922746880	0	0
939524096	0	0
956301312	0	0
973078528	0	0
989855744	0	0
1006632960	0	0
1023410176	0	0
1040187392	0	0
1056964608	0	0
1073741824	0	0
1107296256	0	0
1140850688	0	0
1174405120	0	0
1207959552	0	0
1241513984	0	0
1275068416	0	0
1308622848	0	0
1342177280	0	0
1375731712	0	0
1409286144	0	0
1442840576	0	0
1476395008	0	0
1509949440	0	0
1543503872	0	0
1577058304	0	0
1610612736	0	0
1644167168	0	0
1677721600	0	0
1711276032	0	0
1744830464	0	0
1778384896	0	0
1811939328	0	0
1845493760	0	0
1879048192	0	0
1912602624	0	0
1946157056	0	0
1979711488	0	0
2013265920	0	0
2046820352	0	0
2080374784	0	0
2113929216	0	0
2147483648	0	0
2214592512	0	0
2281701376	0	0
2348810240	0	0
2415919104	0	0
2483027968	0	0
2550136832	0	0
2617245696	0	0
2684354560	0	0
2751463424	0	0
2818572288	0	0
2885681152	0	0
2952790016	0	0
3019898880	0	0
3087007744	0	0
3154116608	0	0
3221225472	0	0
3288334336	0	0
3355443200	0	0
3422552064	0	0
3489660928	0	0
3556769792	0	0
3623878656	0	0
3690987520	0	0
3758096384	0	0
3825205248	0	0
3892314112	0	0
3959422976	0	0
4026531840	0	0
4093640704	0	0
4160749568	0	0
4227858432	0	0
~~~~~~~~~~Reuse Distance Profiler output end~~~~~~~~~~

Sampler size:64003

DRAM Statistics
 CHANNEL 0
 RQ ROW_BUFFER_HIT:     829477  ROW_BUFFER_MISS:    6376687
 DBUS AVG_CONGESTED_CYCLE:    3.95851
 WQ ROW_BUFFER_HIT:     273210  ROW_BUFFER_MISS:    2775346  FULL:        496


CPU 0 Branch Prediction Accuracy: 95.2529% MPKI: 4.46789 Average ROB Occupancy at Mispredict: 140.002
Branch type MPKI
BRANCH_DIRECT_JUMP: 0.000275333
BRANCH_INDIRECT: 9.06667e-05
BRANCH_CONDITIONAL: 4.46504
BRANCH_DIRECT_CALL: 0.00193333
BRANCH_INDIRECT_CALL: 2.66667e-06
BRANCH_RETURN: 0.000548667

