
*** ChampSim Multicore Out-of-Order Simulator ***

Warmup Instructions: 50000000
Simulation Instructions: 1500000000
Number of CPUs: 1
Off-chip DRAM Size: 4 GiB Channels: 1 Width: 64-bit Data Rate: 3200 MT/s

VirtualMemory physical capacity: 8588881920 num_ppages: 2096895
VirtualMemory page size: 4096 log2_page_size: 12

CPU 0 runs /s/traces/champsim_traces/625.x264_s-39B.champsimtrace.xz
CPU 0 Bimodal branch predictor
Basic BTB sets: 1024 ways: 8 indirect buffer size: 4096 RAS size: 64
Initializing LRU.
Initializing LRU.
Initializing LRU.
Initializing LRU.
Initializing rdLRU.
Initializing LRU.
Initializing LRU.
Heartbeat CPU 0 instructions: 2000002 cycles: 507499 heartbeat IPC: 3.9409 cumulative IPC: 3.9409 (Simulation time: 0 hr 0 min 57 sec) 
Heartbeat CPU 0 instructions: 4000000 cycles: 1018215 heartbeat IPC: 3.91607 cumulative IPC: 3.92844 (Simulation time: 0 hr 1 min 57 sec) 
Heartbeat CPU 0 instructions: 6000002 cycles: 1522768 heartbeat IPC: 3.96391 cumulative IPC: 3.94019 (Simulation time: 0 hr 2 min 54 sec) 
Heartbeat CPU 0 instructions: 8000003 cycles: 2026228 heartbeat IPC: 3.97251 cumulative IPC: 3.94822 (Simulation time: 0 hr 4 min 0 sec) 
Heartbeat CPU 0 instructions: 10000000 cycles: 2539075 heartbeat IPC: 3.89979 cumulative IPC: 3.93844 (Simulation time: 0 hr 4 min 57 sec) 
Heartbeat CPU 0 instructions: 12000000 cycles: 3044443 heartbeat IPC: 3.95751 cumulative IPC: 3.94161 (Simulation time: 0 hr 5 min 52 sec) 
Heartbeat CPU 0 instructions: 14000003 cycles: 3545611 heartbeat IPC: 3.99068 cumulative IPC: 3.94854 (Simulation time: 0 hr 6 min 45 sec) 
Heartbeat CPU 0 instructions: 16000003 cycles: 4057634 heartbeat IPC: 3.90607 cumulative IPC: 3.94319 (Simulation time: 0 hr 7 min 44 sec) 
Heartbeat CPU 0 instructions: 18000003 cycles: 4564651 heartbeat IPC: 3.94464 cumulative IPC: 3.94335 (Simulation time: 0 hr 8 min 43 sec) 
Heartbeat CPU 0 instructions: 20000001 cycles: 5065523 heartbeat IPC: 3.99303 cumulative IPC: 3.94826 (Simulation time: 0 hr 9 min 39 sec) 
Heartbeat CPU 0 instructions: 22000002 cycles: 5576499 heartbeat IPC: 3.91408 cumulative IPC: 3.94513 (Simulation time: 0 hr 10 min 37 sec) 
Heartbeat CPU 0 instructions: 24000003 cycles: 6084340 heartbeat IPC: 3.93824 cumulative IPC: 3.94455 (Simulation time: 0 hr 11 min 37 sec) 
Heartbeat CPU 0 instructions: 26000002 cycles: 6586048 heartbeat IPC: 3.98638 cumulative IPC: 3.94774 (Simulation time: 0 hr 12 min 33 sec) 
Heartbeat CPU 0 instructions: 28000003 cycles: 7092779 heartbeat IPC: 3.94687 cumulative IPC: 3.94768 (Simulation time: 0 hr 13 min 27 sec) 
Heartbeat CPU 0 instructions: 30000001 cycles: 7601314 heartbeat IPC: 3.93286 cumulative IPC: 3.94669 (Simulation time: 0 hr 14 min 27 sec) 
Heartbeat CPU 0 instructions: 32000002 cycles: 8103677 heartbeat IPC: 3.98119 cumulative IPC: 3.94882 (Simulation time: 0 hr 15 min 25 sec) 
Heartbeat CPU 0 instructions: 34000002 cycles: 8607761 heartbeat IPC: 3.96759 cumulative IPC: 3.94992 (Simulation time: 0 hr 16 min 21 sec) 
Heartbeat CPU 0 instructions: 36000001 cycles: 9117429 heartbeat IPC: 3.92412 cumulative IPC: 3.94848 (Simulation time: 0 hr 17 min 20 sec) 
Heartbeat CPU 0 instructions: 38000002 cycles: 9622535 heartbeat IPC: 3.95957 cumulative IPC: 3.94906 (Simulation time: 0 hr 18 min 17 sec) 
Heartbeat CPU 0 instructions: 40000003 cycles: 10125248 heartbeat IPC: 3.97842 cumulative IPC: 3.95052 (Simulation time: 0 hr 19 min 13 sec) 
Heartbeat CPU 0 instructions: 42000001 cycles: 10634956 heartbeat IPC: 3.92381 cumulative IPC: 3.94924 (Simulation time: 0 hr 20 min 14 sec) 
Heartbeat CPU 0 instructions: 44000001 cycles: 11139369 heartbeat IPC: 3.965 cumulative IPC: 3.94995 (Simulation time: 0 hr 21 min 14 sec) 
Heartbeat CPU 0 instructions: 46000002 cycles: 11641068 heartbeat IPC: 3.98646 cumulative IPC: 3.95153 (Simulation time: 0 hr 22 min 13 sec) 
Heartbeat CPU 0 instructions: 48000000 cycles: 12152115 heartbeat IPC: 3.91353 cumulative IPC: 3.94993 (Simulation time: 0 hr 23 min 14 sec) 
Heartbeat CPU 0 instructions: 50000001 cycles: 12657313 heartbeat IPC: 3.95885 cumulative IPC: 3.95029 (Simulation time: 0 hr 24 min 15 sec) 

Warmup complete CPU 0 instructions: 50000001 cycles: 12657313 (Simulation time: 0 hr 24 min 15 sec) 

Heartbeat CPU 0 instructions: 52000000 cycles: 13421669 heartbeat IPC: 2.61658 cumulative IPC: 2.61658 (Simulation time: 0 hr 25 min 12 sec) 

Region of Interest Statistics
cpu0_DTLB TOTAL     ACCESS:     252906  HIT:     252216  MISS:        690
cpu0_DTLB LOAD      ACCESS:     179604  HIT:     179154  MISS:        450
cpu0_DTLB RFO       ACCESS:      73302  HIT:      73062  MISS:        240
cpu0_DTLB PREFETCH  ACCESS:          0  HIT:          0  MISS:          0
cpu0_DTLB WRITEBACK ACCESS:          0  HIT:          0  MISS:          0
cpu0_ITLB TOTAL     ACCESS:      65119  HIT:      65104  MISS:         15
cpu0_ITLB LOAD      ACCESS:      65119  HIT:      65104  MISS:         15
cpu0_ITLB RFO       ACCESS:          0  HIT:          0  MISS:          0
cpu0_ITLB PREFETCH  ACCESS:          0  HIT:          0  MISS:          0
cpu0_ITLB WRITEBACK ACCESS:          0  HIT:          0  MISS:          0
cpu0_L1I TOTAL     ACCESS:      56557  HIT:      51892  MISS:       4665
cpu0_L1I LOAD      ACCESS:      56557  HIT:      51892  MISS:       4665
cpu0_L1I RFO       ACCESS:          0  HIT:          0  MISS:          0
cpu0_L1I PREFETCH  ACCESS:          0  HIT:          0  MISS:          0
cpu0_L1I WRITEBACK ACCESS:          0  HIT:          0  MISS:          0
cpu0_STLB TOTAL     ACCESS:        705  HIT:        670  MISS:         35
cpu0_STLB LOAD      ACCESS:        465  HIT:        456  MISS:          9
cpu0_STLB RFO       ACCESS:        240  HIT:        214  MISS:         26
cpu0_STLB PREFETCH  ACCESS:          0  HIT:          0  MISS:          0
cpu0_STLB WRITEBACK ACCESS:          0  HIT:          0  MISS:          0
cpu0_L1D TOTAL     ACCESS:     311550  HIT:     308596  MISS:       2954
cpu0_L1D LOAD      ACCESS:     212447  HIT:     210877  MISS:       1570
cpu0_L1D RFO       ACCESS:      99074  HIT:      97693  MISS:       1381
cpu0_L1D PREFETCH  ACCESS:          0  HIT:          0  MISS:          0
cpu0_L1D WRITEBACK ACCESS:          0  HIT:          0  MISS:          0
cpu0_L2C TOTAL     ACCESS:       9402  HIT:       3989  MISS:       5413
cpu0_L2C LOAD      ACCESS:       6235  HIT:       3007  MISS:       3228
cpu0_L2C RFO       ACCESS:       1379  HIT:         59  MISS:       1320
cpu0_L2C PREFETCH  ACCESS:          0  HIT:          0  MISS:          0
cpu0_L2C WRITEBACK ACCESS:       1785  HIT:        923  MISS:        862
LLC TOTAL     ACCESS:       6287  HIT:       4967  MISS:       1320
LLC LOAD      ACCESS:       3228  HIT:       3017  MISS:        211
LLC RFO       ACCESS:       1320  HIT:        211  MISS:       1109
LLC PREFETCH  ACCESS:          0  HIT:          0  MISS:          0
LLC WRITEBACK ACCESS:       1736  HIT:       1736  MISS:          0
Heartbeat CPU 0 instructions: 54000000 cycles: 14352141 heartbeat IPC: 2.14945 cumulative IPC: 2.36012 (Simulation time: 0 hr 26 min 9 sec) 

Region of Interest Statistics
cpu0_DTLB TOTAL     ACCESS:     498787  HIT:     495354  MISS:       3433
cpu0_DTLB LOAD      ACCESS:     362873  HIT:     360414  MISS:       2459
cpu0_DTLB RFO       ACCESS:     135914  HIT:     134940  MISS:        974
cpu0_DTLB PREFETCH  ACCESS:          0  HIT:          0  MISS:          0
cpu0_DTLB WRITEBACK ACCESS:          0  HIT:          0  MISS:          0
cpu0_ITLB TOTAL     ACCESS:     182032  HIT:     181991  MISS:         41
cpu0_ITLB LOAD      ACCESS:     182032  HIT:     181991  MISS:         41
cpu0_ITLB RFO       ACCESS:          0  HIT:          0  MISS:          0
cpu0_ITLB PREFETCH  ACCESS:          0  HIT:          0  MISS:          0
cpu0_ITLB WRITEBACK ACCESS:          0  HIT:          0  MISS:          0
cpu0_L1I TOTAL     ACCESS:     159128  HIT:     137286  MISS:      21842
cpu0_L1I LOAD      ACCESS:     159128  HIT:     137286  MISS:      21842
cpu0_L1I RFO       ACCESS:          0  HIT:          0  MISS:          0
cpu0_L1I PREFETCH  ACCESS:          0  HIT:          0  MISS:          0
cpu0_L1I WRITEBACK ACCESS:          0  HIT:          0  MISS:          0
cpu0_STLB TOTAL     ACCESS:       3474  HIT:       3395  MISS:         79
cpu0_STLB LOAD      ACCESS:       2500  HIT:       2449  MISS:         51
cpu0_STLB RFO       ACCESS:        974  HIT:        946  MISS:         28
cpu0_STLB PREFETCH  ACCESS:          0  HIT:          0  MISS:          0
cpu0_STLB WRITEBACK ACCESS:          0  HIT:          0  MISS:          0
cpu0_L1D TOTAL     ACCESS:     626750  HIT:     620810  MISS:       5940
cpu0_L1D LOAD      ACCESS:     381841  HIT:     377929  MISS:       3912
cpu0_L1D RFO       ACCESS:     244836  HIT:     242815  MISS:       2021
cpu0_L1D PREFETCH  ACCESS:          0  HIT:          0  MISS:          0
cpu0_L1D WRITEBACK ACCESS:          0  HIT:          0  MISS:          0
cpu0_L2C TOTAL     ACCESS:      30401  HIT:      16590  MISS:      13811
cpu0_L2C LOAD      ACCESS:      25754  HIT:      15134  MISS:      10620
cpu0_L2C RFO       ACCESS:       2014  HIT:        368  MISS:       1646
cpu0_L2C PREFETCH  ACCESS:          0  HIT:          0  MISS:          0
cpu0_L2C WRITEBACK ACCESS:       2626  HIT:       1088  MISS:       1538
LLC TOTAL     ACCESS:      14834  HIT:      12519  MISS:       2315
LLC LOAD      ACCESS:      10620  HIT:       9630  MISS:        990
LLC RFO       ACCESS:       1645  HIT:        320  MISS:       1325
LLC PREFETCH  ACCESS:          0  HIT:          0  MISS:          0
LLC WRITEBACK ACCESS:       2562  HIT:       2562  MISS:          0
Heartbeat CPU 0 instructions: 56000004 cycles: 15247852 heartbeat IPC: 2.23287 cumulative IPC: 2.31612 (Simulation time: 0 hr 27 min 9 sec) 

Region of Interest Statistics
cpu0_DTLB TOTAL     ACCESS:     736325  HIT:     730131  MISS:       6194
cpu0_DTLB LOAD      ACCESS:     538679  HIT:     534378  MISS:       4301
cpu0_DTLB RFO       ACCESS:     197646  HIT:     195753  MISS:       1893
cpu0_DTLB PREFETCH  ACCESS:          0  HIT:          0  MISS:          0
cpu0_DTLB WRITEBACK ACCESS:          0  HIT:          0  MISS:          0
cpu0_ITLB TOTAL     ACCESS:     292514  HIT:     292464  MISS:         50
cpu0_ITLB LOAD      ACCESS:     292514  HIT:     292464  MISS:         50
cpu0_ITLB RFO       ACCESS:          0  HIT:          0  MISS:          0
cpu0_ITLB PREFETCH  ACCESS:          0  HIT:          0  MISS:          0
cpu0_ITLB WRITEBACK ACCESS:          0  HIT:          0  MISS:          0
cpu0_L1I TOTAL     ACCESS:     267786  HIT:     229144  MISS:      38642
cpu0_L1I LOAD      ACCESS:     267786  HIT:     229144  MISS:      38642
cpu0_L1I RFO       ACCESS:          0  HIT:          0  MISS:          0
cpu0_L1I PREFETCH  ACCESS:          0  HIT:          0  MISS:          0
cpu0_L1I WRITEBACK ACCESS:          0  HIT:          0  MISS:          0
cpu0_STLB TOTAL     ACCESS:       6244  HIT:       6159  MISS:         85
cpu0_STLB LOAD      ACCESS:       4351  HIT:       4294  MISS:         57
cpu0_STLB RFO       ACCESS:       1893  HIT:       1865  MISS:         28
cpu0_STLB PREFETCH  ACCESS:          0  HIT:          0  MISS:          0
cpu0_STLB WRITEBACK ACCESS:          0  HIT:          0  MISS:          0
cpu0_L1D TOTAL     ACCESS:     933898  HIT:     925460  MISS:       8438
cpu0_L1D LOAD      ACCESS:     543938  HIT:     538155  MISS:       5783
cpu0_L1D RFO       ACCESS:     389881  HIT:     387234  MISS:       2647
cpu0_L1D PREFETCH  ACCESS:          0  HIT:          0  MISS:          0
cpu0_L1D WRITEBACK ACCESS:          0  HIT:          0  MISS:          0
cpu0_L2C TOTAL     ACCESS:      50297  HIT:      29484  MISS:      20813
cpu0_L2C LOAD      ACCESS:      44425  HIT:      27613  MISS:      16812
cpu0_L2C RFO       ACCESS:       2634  HIT:        634  MISS:       2000
cpu0_L2C PREFETCH  ACCESS:          0  HIT:          0  MISS:          0
cpu0_L2C WRITEBACK ACCESS:       3230  HIT:       1237  MISS:       1993
LLC TOTAL     ACCESS:      21885  HIT:      18408  MISS:       3477
LLC LOAD      ACCESS:      16812  HIT:      14950  MISS:       1862
LLC RFO       ACCESS:       1999  HIT:        384  MISS:       1615
LLC PREFETCH  ACCESS:          0  HIT:          0  MISS:          0
LLC WRITEBACK ACCESS:       3066  HIT:       3066  MISS:          0
Heartbeat CPU 0 instructions: 58000002 cycles: 16060426 heartbeat IPC: 2.46131 cumulative IPC: 2.35079 (Simulation time: 0 hr 28 min 6 sec) 

Region of Interest Statistics
cpu0_DTLB TOTAL     ACCESS:     984750  HIT:     977684  MISS:       7066
cpu0_DTLB LOAD      ACCESS:     716527  HIT:     711687  MISS:       4840
cpu0_DTLB RFO       ACCESS:     268223  HIT:     265997  MISS:       2226
cpu0_DTLB PREFETCH  ACCESS:          0  HIT:          0  MISS:          0
cpu0_DTLB WRITEBACK ACCESS:          0  HIT:          0  MISS:          0
cpu0_ITLB TOTAL     ACCESS:     378250  HIT:     378199  MISS:         51
cpu0_ITLB LOAD      ACCESS:     378250  HIT:     378199  MISS:         51
cpu0_ITLB RFO       ACCESS:          0  HIT:          0  MISS:          0
cpu0_ITLB PREFETCH  ACCESS:          0  HIT:          0  MISS:          0
cpu0_ITLB WRITEBACK ACCESS:          0  HIT:          0  MISS:          0
cpu0_L1I TOTAL     ACCESS:     336566  HIT:     290644  MISS:      45922
cpu0_L1I LOAD      ACCESS:     336566  HIT:     290644  MISS:      45922
cpu0_L1I RFO       ACCESS:          0  HIT:          0  MISS:          0
cpu0_L1I PREFETCH  ACCESS:          0  HIT:          0  MISS:          0
cpu0_L1I WRITEBACK ACCESS:          0  HIT:          0  MISS:          0
cpu0_STLB TOTAL     ACCESS:       7117  HIT:       7022  MISS:         95
cpu0_STLB LOAD      ACCESS:       4891  HIT:       4834  MISS:         57
cpu0_STLB RFO       ACCESS:       2226  HIT:       2188  MISS:         38
cpu0_STLB PREFETCH  ACCESS:          0  HIT:          0  MISS:          0
cpu0_STLB WRITEBACK ACCESS:          0  HIT:          0  MISS:          0
cpu0_L1D TOTAL     ACCESS:    1249606  HIT:    1238986  MISS:      10620
cpu0_L1D LOAD      ACCESS:     743875  HIT:     736826  MISS:       7049
cpu0_L1D RFO       ACCESS:     505642  HIT:     502081  MISS:       3561
cpu0_L1D PREFETCH  ACCESS:          0  HIT:          0  MISS:          0
cpu0_L1D WRITEBACK ACCESS:          0  HIT:          0  MISS:          0
cpu0_L2C TOTAL     ACCESS:      60868  HIT:      35724  MISS:      25144
cpu0_L2C LOAD      ACCESS:      52971  HIT:      33361  MISS:      19610
cpu0_L2C RFO       ACCESS:       3547  HIT:        694  MISS:       2853
cpu0_L2C PREFETCH  ACCESS:          0  HIT:          0  MISS:          0
cpu0_L2C WRITEBACK ACCESS:       4340  HIT:       1669  MISS:       2671
LLC TOTAL     ACCESS:      26243  HIT:      21783  MISS:       4460
LLC LOAD      ACCESS:      19610  HIT:      17519  MISS:       2091
LLC RFO       ACCESS:       2852  HIT:        483  MISS:       2369
LLC PREFETCH  ACCESS:          0  HIT:          0  MISS:          0
LLC WRITEBACK ACCESS:       3771  HIT:       3771  MISS:          0
Heartbeat CPU 0 instructions: 60000004 cycles: 16928125 heartbeat IPC: 2.30495 cumulative IPC: 2.34148 (Simulation time: 0 hr 29 min 6 sec) 

Region of Interest Statistics
cpu0_DTLB TOTAL     ACCESS:    1233022  HIT:    1223359  MISS:       9663
cpu0_DTLB LOAD      ACCESS:     898411  HIT:     891673  MISS:       6738
cpu0_DTLB RFO       ACCESS:     334611  HIT:     331686  MISS:       2925
cpu0_DTLB PREFETCH  ACCESS:          0  HIT:          0  MISS:          0
cpu0_DTLB WRITEBACK ACCESS:          0  HIT:          0  MISS:          0
cpu0_ITLB TOTAL     ACCESS:     474503  HIT:     474442  MISS:         61
cpu0_ITLB LOAD      ACCESS:     474503  HIT:     474442  MISS:         61
cpu0_ITLB RFO       ACCESS:          0  HIT:          0  MISS:          0
cpu0_ITLB PREFETCH  ACCESS:          0  HIT:          0  MISS:          0
cpu0_ITLB WRITEBACK ACCESS:          0  HIT:          0  MISS:          0
cpu0_L1I TOTAL     ACCESS:     425400  HIT:     365972  MISS:      59428
cpu0_L1I LOAD      ACCESS:     425400  HIT:     365972  MISS:      59428
cpu0_L1I RFO       ACCESS:          0  HIT:          0  MISS:          0
cpu0_L1I PREFETCH  ACCESS:          0  HIT:          0  MISS:          0
cpu0_L1I WRITEBACK ACCESS:          0  HIT:          0  MISS:          0
cpu0_STLB TOTAL     ACCESS:       9724  HIT:       9582  MISS:        142
cpu0_STLB LOAD      ACCESS:       6799  HIT:       6709  MISS:         90
cpu0_STLB RFO       ACCESS:       2925  HIT:       2873  MISS:         52
cpu0_STLB PREFETCH  ACCESS:          0  HIT:          0  MISS:          0
cpu0_STLB WRITEBACK ACCESS:          0  HIT:          0  MISS:          0
cpu0_L1D TOTAL     ACCESS:    1560155  HIT:    1546498  MISS:      13657
cpu0_L1D LOAD      ACCESS:     925332  HIT:     916211  MISS:       9121
cpu0_L1D RFO       ACCESS:     634692  HIT:     630170  MISS:       4522
cpu0_L1D PREFETCH  ACCESS:          0  HIT:          0  MISS:          0
cpu0_L1D WRITEBACK ACCESS:          0  HIT:          0  MISS:          0
cpu0_L2C TOTAL     ACCESS:      78745  HIT:      45021  MISS:      33724
cpu0_L2C LOAD      ACCESS:      68549  HIT:      42154  MISS:      26395
cpu0_L2C RFO       ACCESS:       4501  HIT:        895  MISS:       3606
cpu0_L2C PREFETCH  ACCESS:          0  HIT:          0  MISS:          0
cpu0_L2C WRITEBACK ACCESS:       5681  HIT:       1972  MISS:       3709
LLC TOTAL     ACCESS:      35434  HIT:      29610  MISS:       5824
LLC LOAD      ACCESS:      26395  HIT:      23541  MISS:       2854
LLC RFO       ACCESS:       3605  HIT:        635  MISS:       2970
LLC PREFETCH  ACCESS:          0  HIT:          0  MISS:          0
LLC WRITEBACK ACCESS:       5420  HIT:       5420  MISS:          0
Heartbeat CPU 0 instructions: 62000000 cycles: 17833094 heartbeat IPC: 2.21002 cumulative IPC: 2.31849 (Simulation time: 0 hr 30 min 4 sec) 

Region of Interest Statistics
cpu0_DTLB TOTAL     ACCESS:    1471839  HIT:    1459117  MISS:      12722
cpu0_DTLB LOAD      ACCESS:    1073300  HIT:    1064403  MISS:       8897
cpu0_DTLB RFO       ACCESS:     398539  HIT:     394714  MISS:       3825
cpu0_DTLB PREFETCH  ACCESS:          0  HIT:          0  MISS:          0
cpu0_DTLB WRITEBACK ACCESS:          0  HIT:          0  MISS:          0
cpu0_ITLB TOTAL     ACCESS:     585542  HIT:     585441  MISS:        101
cpu0_ITLB LOAD      ACCESS:     585542  HIT:     585441  MISS:        101
cpu0_ITLB RFO       ACCESS:          0  HIT:          0  MISS:          0
cpu0_ITLB PREFETCH  ACCESS:          0  HIT:          0  MISS:          0
cpu0_ITLB WRITEBACK ACCESS:          0  HIT:          0  MISS:          0
cpu0_L1I TOTAL     ACCESS:     534581  HIT:     459225  MISS:      75356
cpu0_L1I LOAD      ACCESS:     534581  HIT:     459225  MISS:      75356
cpu0_L1I RFO       ACCESS:          0  HIT:          0  MISS:          0
cpu0_L1I PREFETCH  ACCESS:          0  HIT:          0  MISS:          0
cpu0_L1I WRITEBACK ACCESS:          0  HIT:          0  MISS:          0
cpu0_STLB TOTAL     ACCESS:      12823  HIT:      12664  MISS:        159
cpu0_STLB LOAD      ACCESS:       8998  HIT:       8891  MISS:        107
cpu0_STLB RFO       ACCESS:       3825  HIT:       3773  MISS:         52
cpu0_STLB PREFETCH  ACCESS:          0  HIT:          0  MISS:          0
cpu0_STLB WRITEBACK ACCESS:          0  HIT:          0  MISS:          0
cpu0_L1D TOTAL     ACCESS:    1874733  HIT:    1858695  MISS:      16038
cpu0_L1D LOAD      ACCESS:    1090119  HIT:    1079139  MISS:      10980
cpu0_L1D RFO       ACCESS:     784466  HIT:     779422  MISS:       5044
cpu0_L1D PREFETCH  ACCESS:          0  HIT:          0  MISS:          0
cpu0_L1D WRITEBACK ACCESS:          0  HIT:          0  MISS:          0
cpu0_L2C TOTAL     ACCESS:      97571  HIT:      56594  MISS:      40977
cpu0_L2C LOAD      ACCESS:      86337  HIT:      53441  MISS:      32896
cpu0_L2C RFO       ACCESS:       5019  HIT:       1090  MISS:       3929
cpu0_L2C PREFETCH  ACCESS:          0  HIT:          0  MISS:          0
cpu0_L2C WRITEBACK ACCESS:       6201  HIT:       2063  MISS:       4138
LLC TOTAL     ACCESS:      42749  HIT:      35767  MISS:       6982
LLC LOAD      ACCESS:      32896  HIT:      29156  MISS:       3740
LLC RFO       ACCESS:       3927  HIT:        685  MISS:       3242
LLC PREFETCH  ACCESS:          0  HIT:          0  MISS:          0
LLC WRITEBACK ACCESS:       5912  HIT:       5912  MISS:          0
Heartbeat CPU 0 instructions: 64000000 cycles: 18741778 heartbeat IPC: 2.20099 cumulative IPC: 2.30094 (Simulation time: 0 hr 31 min 0 sec) 

Region of Interest Statistics
cpu0_DTLB TOTAL     ACCESS:    1714880  HIT:    1700378  MISS:      14502
cpu0_DTLB LOAD      ACCESS:    1251266  HIT:    1241116  MISS:      10150
cpu0_DTLB RFO       ACCESS:     463614  HIT:     459262  MISS:       4352
cpu0_DTLB PREFETCH  ACCESS:          0  HIT:          0  MISS:          0
cpu0_DTLB WRITEBACK ACCESS:          0  HIT:          0  MISS:          0
cpu0_ITLB TOTAL     ACCESS:     697039  HIT:     696937  MISS:        102
cpu0_ITLB LOAD      ACCESS:     697039  HIT:     696937  MISS:        102
cpu0_ITLB RFO       ACCESS:          0  HIT:          0  MISS:          0
cpu0_ITLB PREFETCH  ACCESS:          0  HIT:          0  MISS:          0
cpu0_ITLB WRITEBACK ACCESS:          0  HIT:          0  MISS:          0
cpu0_L1I TOTAL     ACCESS:     623158  HIT:     535870  MISS:      87288
cpu0_L1I LOAD      ACCESS:     623158  HIT:     535870  MISS:      87288
cpu0_L1I RFO       ACCESS:          0  HIT:          0  MISS:          0
cpu0_L1I PREFETCH  ACCESS:          0  HIT:          0  MISS:          0
cpu0_L1I WRITEBACK ACCESS:          0  HIT:          0  MISS:          0
cpu0_STLB TOTAL     ACCESS:      14604  HIT:      14442  MISS:        162
cpu0_STLB LOAD      ACCESS:      10252  HIT:      10145  MISS:        107
cpu0_STLB RFO       ACCESS:       4352  HIT:       4297  MISS:         55
cpu0_STLB PREFETCH  ACCESS:          0  HIT:          0  MISS:          0
cpu0_STLB WRITEBACK ACCESS:          0  HIT:          0  MISS:          0
cpu0_L1D TOTAL     ACCESS:    2192786  HIT:    2174226  MISS:      18560
cpu0_L1D LOAD      ACCESS:    1272029  HIT:    1259263  MISS:      12766
cpu0_L1D RFO       ACCESS:     920606  HIT:     914827  MISS:       5779
cpu0_L1D PREFETCH  ACCESS:          0  HIT:          0  MISS:          0
cpu0_L1D WRITEBACK ACCESS:          0  HIT:          0  MISS:          0
cpu0_L2C TOTAL     ACCESS:     112962  HIT:      66581  MISS:      46381
cpu0_L2C LOAD      ACCESS:     100054  HIT:      62858  MISS:      37196
cpu0_L2C RFO       ACCESS:       5750  HIT:       1363  MISS:       4387
cpu0_L2C PREFETCH  ACCESS:          0  HIT:          0  MISS:          0
cpu0_L2C WRITEBACK ACCESS:       7143  HIT:       2360  MISS:       4783
LLC TOTAL     ACCESS:      48001  HIT:      40308  MISS:       7693
LLC LOAD      ACCESS:      37196  HIT:      33061  MISS:       4135
LLC RFO       ACCESS:       4385  HIT:        827  MISS:       3558
LLC PREFETCH  ACCESS:          0  HIT:          0  MISS:          0
LLC WRITEBACK ACCESS:       6405  HIT:       6405  MISS:          0
Heartbeat CPU 0 instructions: 66000000 cycles: 19500712 heartbeat IPC: 2.63528 cumulative IPC: 2.33802 (Simulation time: 0 hr 31 min 59 sec) 

Region of Interest Statistics
cpu0_DTLB TOTAL     ACCESS:    1965462  HIT:    1949650  MISS:      15812
cpu0_DTLB LOAD      ACCESS:    1429770  HIT:    1418697  MISS:      11073
cpu0_DTLB RFO       ACCESS:     535692  HIT:     530953  MISS:       4739
cpu0_DTLB PREFETCH  ACCESS:          0  HIT:          0  MISS:          0
cpu0_DTLB WRITEBACK ACCESS:          0  HIT:          0  MISS:          0
cpu0_ITLB TOTAL     ACCESS:     766501  HIT:     766391  MISS:        110
cpu0_ITLB LOAD      ACCESS:     766501  HIT:     766391  MISS:        110
cpu0_ITLB RFO       ACCESS:          0  HIT:          0  MISS:          0
cpu0_ITLB PREFETCH  ACCESS:          0  HIT:          0  MISS:          0
cpu0_ITLB WRITEBACK ACCESS:          0  HIT:          0  MISS:          0
cpu0_L1I TOTAL     ACCESS:     692651  HIT:     596391  MISS:      96260
cpu0_L1I LOAD      ACCESS:     692651  HIT:     596391  MISS:      96260
cpu0_L1I RFO       ACCESS:          0  HIT:          0  MISS:          0
cpu0_L1I PREFETCH  ACCESS:          0  HIT:          0  MISS:          0
cpu0_L1I WRITEBACK ACCESS:          0  HIT:          0  MISS:          0
cpu0_STLB TOTAL     ACCESS:      15922  HIT:      15725  MISS:        197
cpu0_STLB LOAD      ACCESS:      11183  HIT:      11062  MISS:        121
cpu0_STLB RFO       ACCESS:       4739  HIT:       4663  MISS:         76
cpu0_STLB PREFETCH  ACCESS:          0  HIT:          0  MISS:          0
cpu0_STLB WRITEBACK ACCESS:          0  HIT:          0  MISS:          0
cpu0_L1D TOTAL     ACCESS:    2498795  HIT:    2477164  MISS:      21631
cpu0_L1D LOAD      ACCESS:    1469087  HIT:    1454619  MISS:      14468
cpu0_L1D RFO       ACCESS:    1029526  HIT:    1022381  MISS:       7145
cpu0_L1D PREFETCH  ACCESS:          0  HIT:          0  MISS:          0
cpu0_L1D WRITEBACK ACCESS:          0  HIT:          0  MISS:          0
cpu0_L2C TOTAL     ACCESS:     126760  HIT:      73282  MISS:      53478
cpu0_L2C LOAD      ACCESS:     110728  HIT:      68566  MISS:      42162
cpu0_L2C RFO       ACCESS:       7111  HIT:       1583  MISS:       5528
cpu0_L2C PREFETCH  ACCESS:          0  HIT:          0  MISS:          0
cpu0_L2C WRITEBACK ACCESS:       8903  HIT:       3133  MISS:       5770
LLC TOTAL     ACCESS:      56146  HIT:      46932  MISS:       9214
LLC LOAD      ACCESS:      42162  HIT:      37513  MISS:       4649
LLC RFO       ACCESS:       5526  HIT:        961  MISS:       4565
LLC PREFETCH  ACCESS:          0  HIT:          0  MISS:          0
LLC WRITEBACK ACCESS:       8440  HIT:       8440  MISS:          0
Heartbeat CPU 0 instructions: 68000001 cycles: 20443576 heartbeat IPC: 2.1212 cumulative IPC: 2.31176 (Simulation time: 0 hr 33 min 1 sec) 

Region of Interest Statistics
cpu0_DTLB TOTAL     ACCESS:    2212056  HIT:    2193615  MISS:      18441
cpu0_DTLB LOAD      ACCESS:    1609325  HIT:    1596353  MISS:      12972
cpu0_DTLB RFO       ACCESS:     602731  HIT:     597262  MISS:       5469
cpu0_DTLB PREFETCH  ACCESS:          0  HIT:          0  MISS:          0
cpu0_DTLB WRITEBACK ACCESS:          0  HIT:          0  MISS:          0
cpu0_ITLB TOTAL     ACCESS:     881937  HIT:     881776  MISS:        161
cpu0_ITLB LOAD      ACCESS:     881937  HIT:     881776  MISS:        161
cpu0_ITLB RFO       ACCESS:          0  HIT:          0  MISS:          0
cpu0_ITLB PREFETCH  ACCESS:          0  HIT:          0  MISS:          0
cpu0_ITLB WRITEBACK ACCESS:          0  HIT:          0  MISS:          0
cpu0_L1I TOTAL     ACCESS:     800356  HIT:     688787  MISS:     111569
cpu0_L1I LOAD      ACCESS:     800356  HIT:     688787  MISS:     111569
cpu0_L1I RFO       ACCESS:          0  HIT:          0  MISS:          0
cpu0_L1I PREFETCH  ACCESS:          0  HIT:          0  MISS:          0
cpu0_L1I WRITEBACK ACCESS:          0  HIT:          0  MISS:          0
cpu0_STLB TOTAL     ACCESS:      18602  HIT:      18378  MISS:        224
cpu0_STLB LOAD      ACCESS:      13133  HIT:      12986  MISS:        147
cpu0_STLB RFO       ACCESS:       5469  HIT:       5392  MISS:         77
cpu0_STLB PREFETCH  ACCESS:          0  HIT:          0  MISS:          0
cpu0_STLB WRITEBACK ACCESS:          0  HIT:          0  MISS:          0
cpu0_L1D TOTAL     ACCESS:    2824196  HIT:    2799733  MISS:      24463
cpu0_L1D LOAD      ACCESS:    1640266  HIT:    1623573  MISS:      16693
cpu0_L1D RFO       ACCESS:    1183721  HIT:    1175970  MISS:       7751
cpu0_L1D PREFETCH  ACCESS:          0  HIT:          0  MISS:          0
cpu0_L1D WRITEBACK ACCESS:          0  HIT:          0  MISS:          0
cpu0_L2C TOTAL     ACCESS:     145534  HIT:      83451  MISS:      62083
cpu0_L2C LOAD      ACCESS:     128262  HIT:      78348  MISS:      49914
cpu0_L2C RFO       ACCESS:       7704  HIT:       1884  MISS:       5820
cpu0_L2C PREFETCH  ACCESS:          0  HIT:          0  MISS:          0
cpu0_L2C WRITEBACK ACCESS:       9549  HIT:       3219  MISS:       6330
LLC TOTAL     ACCESS:      64844  HIT:      54591  MISS:      10253
LLC LOAD      ACCESS:      49914  HIT:      44471  MISS:       5443
LLC RFO       ACCESS:       5818  HIT:       1008  MISS:       4810
LLC PREFETCH  ACCESS:          0  HIT:          0  MISS:          0
LLC WRITEBACK ACCESS:       9093  HIT:       9093  MISS:          0
Heartbeat CPU 0 instructions: 70000002 cycles: 21347458 heartbeat IPC: 2.21268 cumulative IPC: 2.30146 (Simulation time: 0 hr 33 min 58 sec) 

Region of Interest Statistics
cpu0_DTLB TOTAL     ACCESS:    2448957  HIT:    2428170  MISS:      20787
cpu0_DTLB LOAD      ACCESS:    1781981  HIT:    1767389  MISS:      14592
cpu0_DTLB RFO       ACCESS:     666976  HIT:     660781  MISS:       6195
cpu0_DTLB PREFETCH  ACCESS:          0  HIT:          0  MISS:          0
cpu0_DTLB WRITEBACK ACCESS:          0  HIT:          0  MISS:          0
cpu0_ITLB TOTAL     ACCESS:     991143  HIT:     990973  MISS:        170
cpu0_ITLB LOAD      ACCESS:     991143  HIT:     990973  MISS:        170
cpu0_ITLB RFO       ACCESS:          0  HIT:          0  MISS:          0
cpu0_ITLB PREFETCH  ACCESS:          0  HIT:          0  MISS:          0
cpu0_ITLB WRITEBACK ACCESS:          0  HIT:          0  MISS:          0
cpu0_L1I TOTAL     ACCESS:     910459  HIT:     781376  MISS:     129083
cpu0_L1I LOAD      ACCESS:     910459  HIT:     781376  MISS:     129083
cpu0_L1I RFO       ACCESS:          0  HIT:          0  MISS:          0
cpu0_L1I PREFETCH  ACCESS:          0  HIT:          0  MISS:          0
cpu0_L1I WRITEBACK ACCESS:          0  HIT:          0  MISS:          0
cpu0_STLB TOTAL     ACCESS:      20957  HIT:      20710  MISS:        247
cpu0_STLB LOAD      ACCESS:      14762  HIT:      14592  MISS:        170
cpu0_STLB RFO       ACCESS:       6195  HIT:       6118  MISS:         77
cpu0_STLB PREFETCH  ACCESS:          0  HIT:          0  MISS:          0
cpu0_STLB WRITEBACK ACCESS:          0  HIT:          0  MISS:          0
cpu0_L1D TOTAL     ACCESS:    3137115  HIT:    3110851  MISS:      26264
cpu0_L1D LOAD      ACCESS:    1802160  HIT:    1784106  MISS:      18054
cpu0_L1D RFO       ACCESS:    1334723  HIT:    1326533  MISS:       8190
cpu0_L1D PREFETCH  ACCESS:          0  HIT:          0  MISS:          0
cpu0_L1D WRITEBACK ACCESS:          0  HIT:          0  MISS:          0
cpu0_L2C TOTAL     ACCESS:     165287  HIT:      97182  MISS:      68105
cpu0_L2C LOAD      ACCESS:     147137  HIT:      91836  MISS:      55301
cpu0_L2C RFO       ACCESS:       8134  HIT:       2039  MISS:       6095
cpu0_L2C PREFETCH  ACCESS:          0  HIT:          0  MISS:          0
cpu0_L2C WRITEBACK ACCESS:       9996  HIT:       3307  MISS:       6689
LLC TOTAL     ACCESS:      70888  HIT:      59683  MISS:      11205
LLC LOAD      ACCESS:      55301  HIT:      49150  MISS:       6151
LLC RFO       ACCESS:       6093  HIT:       1039  MISS:       5054
LLC PREFETCH  ACCESS:          0  HIT:          0  MISS:          0
LLC WRITEBACK ACCESS:       9474  HIT:       9474  MISS:          0
Heartbeat CPU 0 instructions: 72000004 cycles: 22107946 heartbeat IPC: 2.62989 cumulative IPC: 2.32789 (Simulation time: 0 hr 34 min 53 sec) 

Region of Interest Statistics
cpu0_DTLB TOTAL     ACCESS:    2701780  HIT:    2680496  MISS:      21284
cpu0_DTLB LOAD      ACCESS:    1962159  HIT:    1947258  MISS:      14901
cpu0_DTLB RFO       ACCESS:     739621  HIT:     733238  MISS:       6383
cpu0_DTLB PREFETCH  ACCESS:          0  HIT:          0  MISS:          0
cpu0_DTLB WRITEBACK ACCESS:          0  HIT:          0  MISS:          0
cpu0_ITLB TOTAL     ACCESS:    1060418  HIT:    1060237  MISS:        181
cpu0_ITLB LOAD      ACCESS:    1060418  HIT:    1060237  MISS:        181
cpu0_ITLB RFO       ACCESS:          0  HIT:          0  MISS:          0
cpu0_ITLB PREFETCH  ACCESS:          0  HIT:          0  MISS:          0
cpu0_ITLB WRITEBACK ACCESS:          0  HIT:          0  MISS:          0
cpu0_L1I TOTAL     ACCESS:     960167  HIT:     827579  MISS:     132588
cpu0_L1I LOAD      ACCESS:     960167  HIT:     827579  MISS:     132588
cpu0_L1I RFO       ACCESS:          0  HIT:          0  MISS:          0
cpu0_L1I PREFETCH  ACCESS:          0  HIT:          0  MISS:          0
cpu0_L1I WRITEBACK ACCESS:          0  HIT:          0  MISS:          0
cpu0_STLB TOTAL     ACCESS:      21465  HIT:      21186  MISS:        279
cpu0_STLB LOAD      ACCESS:      15082  HIT:      14905  MISS:        177
cpu0_STLB RFO       ACCESS:       6383  HIT:       6281  MISS:        102
cpu0_STLB PREFETCH  ACCESS:          0  HIT:          0  MISS:          0
cpu0_STLB WRITEBACK ACCESS:          0  HIT:          0  MISS:          0
cpu0_L1D TOTAL     ACCESS:    3447802  HIT:    3418809  MISS:      28993
cpu0_L1D LOAD      ACCESS:    2017700  HIT:    1998252  MISS:      19448
cpu0_L1D RFO       ACCESS:    1429843  HIT:    1420321  MISS:       9522
cpu0_L1D PREFETCH  ACCESS:          0  HIT:          0  MISS:          0
cpu0_L1D WRITEBACK ACCESS:          0  HIT:          0  MISS:          0
cpu0_L2C TOTAL     ACCESS:     173232  HIT:     100211  MISS:      73021
cpu0_L2C LOAD      ACCESS:     152036  HIT:      93905  MISS:      58131
cpu0_L2C RFO       ACCESS:       9466  HIT:       2069  MISS:       7397
cpu0_L2C PREFETCH  ACCESS:          0  HIT:          0  MISS:          0
cpu0_L2C WRITEBACK ACCESS:      11707  HIT:       4237  MISS:       7470
LLC TOTAL     ACCESS:      76695  HIT:      64281  MISS:      12414
LLC LOAD      ACCESS:      58131  HIT:      51865  MISS:       6266
LLC RFO       ACCESS:       7395  HIT:       1247  MISS:       6148
LLC PREFETCH  ACCESS:          0  HIT:          0  MISS:          0
LLC WRITEBACK ACCESS:      11146  HIT:      11146  MISS:          0
Heartbeat CPU 0 instructions: 74000000 cycles: 23075942 heartbeat IPC: 2.06612 cumulative IPC: 2.30357 (Simulation time: 0 hr 35 min 54 sec) 

Region of Interest Statistics
cpu0_DTLB TOTAL     ACCESS:    2955703  HIT:    2931851  MISS:      23852
cpu0_DTLB LOAD      ACCESS:    2146424  HIT:    2129670  MISS:      16754
cpu0_DTLB RFO       ACCESS:     809279  HIT:     802181  MISS:       7098
cpu0_DTLB PREFETCH  ACCESS:          0  HIT:          0  MISS:          0
cpu0_DTLB WRITEBACK ACCESS:          0  HIT:          0  MISS:          0
cpu0_ITLB TOTAL     ACCESS:    1179201  HIT:    1178982  MISS:        219
cpu0_ITLB LOAD      ACCESS:    1179201  HIT:    1178982  MISS:        219
cpu0_ITLB RFO       ACCESS:          0  HIT:          0  MISS:          0
cpu0_ITLB PREFETCH  ACCESS:          0  HIT:          0  MISS:          0
cpu0_ITLB WRITEBACK ACCESS:          0  HIT:          0  MISS:          0
cpu0_L1I TOTAL     ACCESS:    1070061  HIT:     921526  MISS:     148535
cpu0_L1I LOAD      ACCESS:    1070061  HIT:     921526  MISS:     148535
cpu0_L1I RFO       ACCESS:          0  HIT:          0  MISS:          0
cpu0_L1I PREFETCH  ACCESS:          0  HIT:          0  MISS:          0
cpu0_L1I WRITEBACK ACCESS:          0  HIT:          0  MISS:          0
cpu0_STLB TOTAL     ACCESS:      24071  HIT:      23742  MISS:        329
cpu0_STLB LOAD      ACCESS:      16973  HIT:      16749  MISS:        224
cpu0_STLB RFO       ACCESS:       7098  HIT:       6993  MISS:        105
cpu0_STLB PREFETCH  ACCESS:          0  HIT:          0  MISS:          0
cpu0_STLB WRITEBACK ACCESS:          0  HIT:          0  MISS:          0
cpu0_L1D TOTAL     ACCESS:    3779845  HIT:    3748129  MISS:      31716
cpu0_L1D LOAD      ACCESS:    2191875  HIT:    2170161  MISS:      21714
cpu0_L1D RFO       ACCESS:    1587662  HIT:    1577689  MISS:       9973
cpu0_L1D PREFETCH  ACCESS:          0  HIT:          0  MISS:          0
cpu0_L1D WRITEBACK ACCESS:          0  HIT:          0  MISS:          0
cpu0_L2C TOTAL     ACCESS:     192569  HIT:     111254  MISS:      81315
cpu0_L2C LOAD      ACCESS:     170249  HIT:     104651  MISS:      65598
cpu0_L2C RFO       ACCESS:       9916  HIT:       2268  MISS:       7648
cpu0_L2C PREFETCH  ACCESS:          0  HIT:          0  MISS:          0
cpu0_L2C WRITEBACK ACCESS:      12375  HIT:       4335  MISS:       8040
LLC TOTAL     ACCESS:      85087  HIT:      71648  MISS:      13439
LLC LOAD      ACCESS:      65598  HIT:      58505  MISS:       7093
LLC RFO       ACCESS:       7646  HIT:       1300  MISS:       6346
LLC PREFETCH  ACCESS:          0  HIT:          0  MISS:          0
LLC WRITEBACK ACCESS:      11814  HIT:      11814  MISS:          0
Heartbeat CPU 0 instructions: 76000004 cycles: 23985801 heartbeat IPC: 2.19815 cumulative IPC: 2.2951 (Simulation time: 0 hr 36 min 53 sec) 

Region of Interest Statistics
cpu0_DTLB TOTAL     ACCESS:    3195533  HIT:    3168726  MISS:      26807
cpu0_DTLB LOAD      ACCESS:    2323536  HIT:    2304708  MISS:      18828
cpu0_DTLB RFO       ACCESS:     871997  HIT:     864018  MISS:       7979
cpu0_DTLB PREFETCH  ACCESS:          0  HIT:          0  MISS:          0
cpu0_DTLB WRITEBACK ACCESS:          0  HIT:          0  MISS:          0
cpu0_ITLB TOTAL     ACCESS:    1291417  HIT:    1291176  MISS:        241
cpu0_ITLB LOAD      ACCESS:    1291417  HIT:    1291176  MISS:        241
cpu0_ITLB RFO       ACCESS:          0  HIT:          0  MISS:          0
cpu0_ITLB PREFETCH  ACCESS:          0  HIT:          0  MISS:          0
cpu0_ITLB WRITEBACK ACCESS:          0  HIT:          0  MISS:          0
cpu0_L1I TOTAL     ACCESS:    1177018  HIT:    1012443  MISS:     164575
cpu0_L1I LOAD      ACCESS:    1177018  HIT:    1012443  MISS:     164575
cpu0_L1I RFO       ACCESS:          0  HIT:          0  MISS:          0
cpu0_L1I PREFETCH  ACCESS:          0  HIT:          0  MISS:          0
cpu0_L1I WRITEBACK ACCESS:          0  HIT:          0  MISS:          0
cpu0_STLB TOTAL     ACCESS:      27048  HIT:      26701  MISS:        347
cpu0_STLB LOAD      ACCESS:      19069  HIT:      18827  MISS:        242
cpu0_STLB RFO       ACCESS:       7979  HIT:       7874  MISS:        105
cpu0_STLB PREFETCH  ACCESS:          0  HIT:          0  MISS:          0
cpu0_STLB WRITEBACK ACCESS:          0  HIT:          0  MISS:          0
cpu0_L1D TOTAL     ACCESS:    4090795  HIT:    4056423  MISS:      34372
cpu0_L1D LOAD      ACCESS:    2356834  HIT:    2333072  MISS:      23762
cpu0_L1D RFO       ACCESS:    1733636  HIT:    1723056  MISS:      10580
cpu0_L1D PREFETCH  ACCESS:          0  HIT:          0  MISS:          0
cpu0_L1D WRITEBACK ACCESS:          0  HIT:          0  MISS:          0
cpu0_L2C TOTAL     ACCESS:     211855  HIT:     122949  MISS:      88906
cpu0_L2C LOAD      ACCESS:     188337  HIT:     115999  MISS:      72338
cpu0_L2C RFO       ACCESS:      10520  HIT:       2521  MISS:       7999
cpu0_L2C PREFETCH  ACCESS:          0  HIT:          0  MISS:          0
cpu0_L2C WRITEBACK ACCESS:      12968  HIT:       4429  MISS:       8539
LLC TOTAL     ACCESS:      92701  HIT:      78129  MISS:      14572
LLC LOAD      ACCESS:      72338  HIT:      64404  MISS:       7934
LLC RFO       ACCESS:       7997  HIT:       1359  MISS:       6638
LLC PREFETCH  ACCESS:          0  HIT:          0  MISS:          0
LLC WRITEBACK ACCESS:      12336  HIT:      12336  MISS:          0
Heartbeat CPU 0 instructions: 78000003 cycles: 24843689 heartbeat IPC: 2.33131 cumulative IPC: 2.29765 (Simulation time: 0 hr 37 min 47 sec) 

Region of Interest Statistics
cpu0_DTLB TOTAL     ACCESS:    3440273  HIT:    3412193  MISS:      28080
cpu0_DTLB LOAD      ACCESS:    2501512  HIT:    2481806  MISS:      19706
cpu0_DTLB RFO       ACCESS:     938761  HIT:     930387  MISS:       8374
cpu0_DTLB PREFETCH  ACCESS:          0  HIT:          0  MISS:          0
cpu0_DTLB WRITEBACK ACCESS:          0  HIT:          0  MISS:          0
cpu0_ITLB TOTAL     ACCESS:    1391274  HIT:    1391032  MISS:        242
cpu0_ITLB LOAD      ACCESS:    1391274  HIT:    1391032  MISS:        242
cpu0_ITLB RFO       ACCESS:          0  HIT:          0  MISS:          0
cpu0_ITLB PREFETCH  ACCESS:          0  HIT:          0  MISS:          0
cpu0_ITLB WRITEBACK ACCESS:          0  HIT:          0  MISS:          0
cpu0_L1I TOTAL     ACCESS:    1252732  HIT:    1078908  MISS:     173824
cpu0_L1I LOAD      ACCESS:    1252732  HIT:    1078908  MISS:     173824
cpu0_L1I RFO       ACCESS:          0  HIT:          0  MISS:          0
cpu0_L1I PREFETCH  ACCESS:          0  HIT:          0  MISS:          0
cpu0_L1I WRITEBACK ACCESS:          0  HIT:          0  MISS:          0
cpu0_STLB TOTAL     ACCESS:      28322  HIT:      27968  MISS:        354
cpu0_STLB LOAD      ACCESS:      19948  HIT:      19706  MISS:        242
cpu0_STLB RFO       ACCESS:       8374  HIT:       8262  MISS:        112
cpu0_STLB PREFETCH  ACCESS:          0  HIT:          0  MISS:          0
cpu0_STLB WRITEBACK ACCESS:          0  HIT:          0  MISS:          0
cpu0_L1D TOTAL     ACCESS:    4405618  HIT:    4369177  MISS:      36441
cpu0_L1D LOAD      ACCESS:    2549209  HIT:    2524083  MISS:      25126
cpu0_L1D RFO       ACCESS:    1856077  HIT:    1844794  MISS:      11283
cpu0_L1D PREFETCH  ACCESS:          0  HIT:          0  MISS:          0
cpu0_L1D WRITEBACK ACCESS:          0  HIT:          0  MISS:          0
cpu0_L2C TOTAL     ACCESS:     224091  HIT:     130617  MISS:      93474
cpu0_L2C LOAD      ACCESS:     198949  HIT:     123294  MISS:      75655
cpu0_L2C RFO       ACCESS:      11222  HIT:       2594  MISS:       8628
cpu0_L2C PREFETCH  ACCESS:          0  HIT:          0  MISS:          0
cpu0_L2C WRITEBACK ACCESS:      13888  HIT:       4729  MISS:       9159
LLC TOTAL     ACCESS:      97183  HIT:      81759  MISS:      15424
LLC LOAD      ACCESS:      75655  HIT:      67396  MISS:       8259
LLC RFO       ACCESS:       8626  HIT:       1461  MISS:       7165
LLC PREFETCH  ACCESS:          0  HIT:          0  MISS:          0
LLC WRITEBACK ACCESS:      12870  HIT:      12870  MISS:          0
Heartbeat CPU 0 instructions: 80000002 cycles: 25658806 heartbeat IPC: 2.45363 cumulative IPC: 2.30743 (Simulation time: 0 hr 38 min 45 sec) 

Region of Interest Statistics
cpu0_DTLB TOTAL     ACCESS:    3687594  HIT:    3657738  MISS:      29856
cpu0_DTLB LOAD      ACCESS:    2677353  HIT:    2656321  MISS:      21032
cpu0_DTLB RFO       ACCESS:    1010241  HIT:    1001417  MISS:       8824
cpu0_DTLB PREFETCH  ACCESS:          0  HIT:          0  MISS:          0
cpu0_DTLB WRITEBACK ACCESS:          0  HIT:          0  MISS:          0
cpu0_ITLB TOTAL     ACCESS:    1472594  HIT:    1472324  MISS:        270
cpu0_ITLB LOAD      ACCESS:    1472594  HIT:    1472324  MISS:        270
cpu0_ITLB RFO       ACCESS:          0  HIT:          0  MISS:          0
cpu0_ITLB PREFETCH  ACCESS:          0  HIT:          0  MISS:          0
cpu0_ITLB WRITEBACK ACCESS:          0  HIT:          0  MISS:          0
cpu0_L1I TOTAL     ACCESS:    1335864  HIT:    1150245  MISS:     185619
cpu0_L1I LOAD      ACCESS:    1335864  HIT:    1150245  MISS:     185619
cpu0_L1I RFO       ACCESS:          0  HIT:          0  MISS:          0
cpu0_L1I PREFETCH  ACCESS:          0  HIT:          0  MISS:          0
cpu0_L1I WRITEBACK ACCESS:          0  HIT:          0  MISS:          0
cpu0_STLB TOTAL     ACCESS:      30126  HIT:      29744  MISS:        382
cpu0_STLB LOAD      ACCESS:      21302  HIT:      21050  MISS:        252
cpu0_STLB RFO       ACCESS:       8824  HIT:       8694  MISS:        130
cpu0_STLB PREFETCH  ACCESS:          0  HIT:          0  MISS:          0
cpu0_STLB WRITEBACK ACCESS:          0  HIT:          0  MISS:          0
cpu0_L1D TOTAL     ACCESS:    4717432  HIT:    4678178  MISS:      39254
cpu0_L1D LOAD      ACCESS:    2736039  HIT:    2709235  MISS:      26804
cpu0_L1D RFO       ACCESS:    1981038  HIT:    1968624  MISS:      12414
cpu0_L1D PREFETCH  ACCESS:          0  HIT:          0  MISS:          0
cpu0_L1D WRITEBACK ACCESS:          0  HIT:          0  MISS:          0
cpu0_L2C TOTAL     ACCESS:     240178  HIT:     138938  MISS:     101240
cpu0_L2C LOAD      ACCESS:     212422  HIT:     131140  MISS:      81282
cpu0_L2C RFO       ACCESS:      12347  HIT:       2784  MISS:       9563
cpu0_L2C PREFETCH  ACCESS:          0  HIT:          0  MISS:          0
cpu0_L2C WRITEBACK ACCESS:      15373  HIT:       5014  MISS:      10359
LLC TOTAL     ACCESS:     105528  HIT:      88812  MISS:      16716
LLC LOAD      ACCESS:      81282  HIT:      72515  MISS:       8767
LLC RFO       ACCESS:       9561  HIT:       1612  MISS:       7949
LLC PREFETCH  ACCESS:          0  HIT:          0  MISS:          0
LLC WRITEBACK ACCESS:      14649  HIT:      14649  MISS:          0
Heartbeat CPU 0 instructions: 82000000 cycles: 26591363 heartbeat IPC: 2.14464 cumulative IPC: 2.29653 (Simulation time: 0 hr 39 min 43 sec) 

Region of Interest Statistics
cpu0_DTLB TOTAL     ACCESS:    3933901  HIT:    3901115  MISS:      32786
cpu0_DTLB LOAD      ACCESS:    2858925  HIT:    2835724  MISS:      23201
cpu0_DTLB RFO       ACCESS:    1074976  HIT:    1065391  MISS:       9585
cpu0_DTLB PREFETCH  ACCESS:          0  HIT:          0  MISS:          0
cpu0_DTLB WRITEBACK ACCESS:          0  HIT:          0  MISS:          0
cpu0_ITLB TOTAL     ACCESS:    1589098  HIT:    1588772  MISS:        326
cpu0_ITLB LOAD      ACCESS:    1589098  HIT:    1588772  MISS:        326
cpu0_ITLB RFO       ACCESS:          0  HIT:          0  MISS:          0
cpu0_ITLB PREFETCH  ACCESS:          0  HIT:          0  MISS:          0
cpu0_ITLB WRITEBACK ACCESS:          0  HIT:          0  MISS:          0
cpu0_L1I TOTAL     ACCESS:    1441955  HIT:    1241163  MISS:     200792
cpu0_L1I LOAD      ACCESS:    1441955  HIT:    1241163  MISS:     200792
cpu0_L1I RFO       ACCESS:          0  HIT:          0  MISS:          0
cpu0_L1I PREFETCH  ACCESS:          0  HIT:          0  MISS:          0
cpu0_L1I WRITEBACK ACCESS:          0  HIT:          0  MISS:          0
cpu0_STLB TOTAL     ACCESS:      33112  HIT:      32725  MISS:        387
cpu0_STLB LOAD      ACCESS:      23527  HIT:      23271  MISS:        256
cpu0_STLB RFO       ACCESS:       9585  HIT:       9454  MISS:        131
cpu0_STLB PREFETCH  ACCESS:          0  HIT:          0  MISS:          0
cpu0_STLB WRITEBACK ACCESS:          0  HIT:          0  MISS:          0
cpu0_L1D TOTAL     ACCESS:    5037124  HIT:    4994782  MISS:      42342
cpu0_L1D LOAD      ACCESS:    2906774  HIT:    2877370  MISS:      29404
cpu0_L1D RFO       ACCESS:    2129990  HIT:    2117090  MISS:      12900
cpu0_L1D PREFETCH  ACCESS:          0  HIT:          0  MISS:          0
cpu0_L1D WRITEBACK ACCESS:          0  HIT:          0  MISS:          0
cpu0_L2C TOTAL     ACCESS:     258989  HIT:     149083  MISS:     109906
cpu0_L2C LOAD      ACCESS:     230195  HIT:     140987  MISS:      89208
cpu0_L2C RFO       ACCESS:      12828  HIT:       2981  MISS:       9847
cpu0_L2C PREFETCH  ACCESS:          0  HIT:          0  MISS:          0
cpu0_L2C WRITEBACK ACCESS:      15928  HIT:       5115  MISS:      10813
LLC TOTAL     ACCESS:     114250  HIT:      96555  MISS:      17695
LLC LOAD      ACCESS:      89208  HIT:      79688  MISS:       9520
LLC RFO       ACCESS:       9845  HIT:       1670  MISS:       8175
LLC PREFETCH  ACCESS:          0  HIT:          0  MISS:          0
LLC WRITEBACK ACCESS:      15159  HIT:      15159  MISS:          0
Heartbeat CPU 0 instructions: 84000001 cycles: 27499062 heartbeat IPC: 2.20337 cumulative IPC: 2.29084 (Simulation time: 0 hr 40 min 39 sec) 

Region of Interest Statistics
cpu0_DTLB TOTAL     ACCESS:    4169905  HIT:    4134068  MISS:      35837
cpu0_DTLB LOAD      ACCESS:    3031237  HIT:    3005823  MISS:      25414
cpu0_DTLB RFO       ACCESS:    1138668  HIT:    1128245  MISS:      10423
cpu0_DTLB PREFETCH  ACCESS:          0  HIT:          0  MISS:          0
cpu0_DTLB WRITEBACK ACCESS:          0  HIT:          0  MISS:          0
cpu0_ITLB TOTAL     ACCESS:    1697607  HIT:    1697266  MISS:        341
cpu0_ITLB LOAD      ACCESS:    1697607  HIT:    1697266  MISS:        341
cpu0_ITLB RFO       ACCESS:          0  HIT:          0  MISS:          0
cpu0_ITLB PREFETCH  ACCESS:          0  HIT:          0  MISS:          0
cpu0_ITLB WRITEBACK ACCESS:          0  HIT:          0  MISS:          0
cpu0_L1I TOTAL     ACCESS:    1552112  HIT:    1334047  MISS:     218065
cpu0_L1I LOAD      ACCESS:    1552112  HIT:    1334047  MISS:     218065
cpu0_L1I RFO       ACCESS:          0  HIT:          0  MISS:          0
cpu0_L1I PREFETCH  ACCESS:          0  HIT:          0  MISS:          0
cpu0_L1I WRITEBACK ACCESS:          0  HIT:          0  MISS:          0
cpu0_STLB TOTAL     ACCESS:      36178  HIT:      35791  MISS:        387
cpu0_STLB LOAD      ACCESS:      25755  HIT:      25499  MISS:        256
cpu0_STLB RFO       ACCESS:      10423  HIT:      10292  MISS:        131
cpu0_STLB PREFETCH  ACCESS:          0  HIT:          0  MISS:          0
cpu0_STLB WRITEBACK ACCESS:          0  HIT:          0  MISS:          0
cpu0_L1D TOTAL     ACCESS:    5349217  HIT:    5304829  MISS:      44388
cpu0_L1D LOAD      ACCESS:    3068508  HIT:    3037537  MISS:      30971
cpu0_L1D RFO       ACCESS:    2280349  HIT:    2266970  MISS:      13379
cpu0_L1D PREFETCH  ACCESS:          0  HIT:          0  MISS:          0
cpu0_L1D WRITEBACK ACCESS:          0  HIT:          0  MISS:          0
cpu0_L2C TOTAL     ACCESS:     278745  HIT:     162205  MISS:     116540
cpu0_L2C LOAD      ACCESS:     249035  HIT:     153862  MISS:      95173
cpu0_L2C RFO       ACCESS:      13305  HIT:       3158  MISS:      10147
cpu0_L2C PREFETCH  ACCESS:          0  HIT:          0  MISS:          0
cpu0_L2C WRITEBACK ACCESS:      16367  HIT:       5185  MISS:      11182
LLC TOTAL     ACCESS:     120906  HIT:     102204  MISS:      18702
LLC LOAD      ACCESS:      95173  HIT:      84903  MISS:      10270
LLC RFO       ACCESS:      10145  HIT:       1713  MISS:       8432
LLC PREFETCH  ACCESS:          0  HIT:          0  MISS:          0
LLC WRITEBACK ACCESS:      15550  HIT:      15550  MISS:          0
Heartbeat CPU 0 instructions: 86000004 cycles: 28260708 heartbeat IPC: 2.6259 cumulative IPC: 2.30719 (Simulation time: 0 hr 41 min 34 sec) 

Region of Interest Statistics
cpu0_DTLB TOTAL     ACCESS:    4423354  HIT:    4387046  MISS:      36308
cpu0_DTLB LOAD      ACCESS:    3212389  HIT:    3186651  MISS:      25738
cpu0_DTLB RFO       ACCESS:    1210965  HIT:    1200395  MISS:      10570
cpu0_DTLB PREFETCH  ACCESS:          0  HIT:          0  MISS:          0
cpu0_DTLB WRITEBACK ACCESS:          0  HIT:          0  MISS:          0
cpu0_ITLB TOTAL     ACCESS:    1769346  HIT:    1768990  MISS:        356
cpu0_ITLB LOAD      ACCESS:    1769346  HIT:    1768990  MISS:        356
cpu0_ITLB RFO       ACCESS:          0  HIT:          0  MISS:          0
cpu0_ITLB PREFETCH  ACCESS:          0  HIT:          0  MISS:          0
cpu0_ITLB WRITEBACK ACCESS:          0  HIT:          0  MISS:          0
cpu0_L1I TOTAL     ACCESS:    1598444  HIT:    1377033  MISS:     221411
cpu0_L1I LOAD      ACCESS:    1598444  HIT:    1377033  MISS:     221411
cpu0_L1I RFO       ACCESS:          0  HIT:          0  MISS:          0
cpu0_L1I PREFETCH  ACCESS:          0  HIT:          0  MISS:          0
cpu0_L1I WRITEBACK ACCESS:          0  HIT:          0  MISS:          0
cpu0_STLB TOTAL     ACCESS:      36664  HIT:      36247  MISS:        417
cpu0_STLB LOAD      ACCESS:      26094  HIT:      25831  MISS:        263
cpu0_STLB RFO       ACCESS:      10570  HIT:      10416  MISS:        154
cpu0_STLB PREFETCH  ACCESS:          0  HIT:          0  MISS:          0
cpu0_STLB WRITEBACK ACCESS:          0  HIT:          0  MISS:          0
cpu0_L1D TOTAL     ACCESS:    5659739  HIT:    5612612  MISS:      47127
cpu0_L1D LOAD      ACCESS:    3285156  HIT:    3252748  MISS:      32408
cpu0_L1D RFO       ACCESS:    2374199  HIT:    2359521  MISS:      14678
cpu0_L1D PREFETCH  ACCESS:          0  HIT:          0  MISS:          0
cpu0_L1D WRITEBACK ACCESS:          0  HIT:          0  MISS:          0
cpu0_L2C TOTAL     ACCESS:     286574  HIT:     165040  MISS:     121534
cpu0_L2C LOAD      ACCESS:     253818  HIT:     155909  MISS:      97909
cpu0_L2C RFO       ACCESS:      14604  HIT:       3186  MISS:      11418
cpu0_L2C PREFETCH  ACCESS:          0  HIT:          0  MISS:          0
cpu0_L2C WRITEBACK ACCESS:      18111  HIT:       5945  MISS:      12166
LLC TOTAL     ACCESS:     126582  HIT:     106648  MISS:      19934
LLC LOAD      ACCESS:      97909  HIT:      87476  MISS:      10433
LLC RFO       ACCESS:      11416  HIT:       1915  MISS:       9501
LLC PREFETCH  ACCESS:          0  HIT:          0  MISS:          0
LLC WRITEBACK ACCESS:      17216  HIT:      17216  MISS:          0
Heartbeat CPU 0 instructions: 88000003 cycles: 29195574 heartbeat IPC: 2.13934 cumulative IPC: 2.2977 (Simulation time: 0 hr 42 min 29 sec) 

Region of Interest Statistics
cpu0_DTLB TOTAL     ACCESS:    4673556  HIT:    4634714  MISS:      38842
cpu0_DTLB LOAD      ACCESS:    3395260  HIT:    3367612  MISS:      27648
cpu0_DTLB RFO       ACCESS:    1278296  HIT:    1267102  MISS:      11194
cpu0_DTLB PREFETCH  ACCESS:          0  HIT:          0  MISS:          0
cpu0_DTLB WRITEBACK ACCESS:          0  HIT:          0  MISS:          0
cpu0_ITLB TOTAL     ACCESS:    1887123  HIT:    1886713  MISS:        410
cpu0_ITLB LOAD      ACCESS:    1887123  HIT:    1886713  MISS:        410
cpu0_ITLB RFO       ACCESS:          0  HIT:          0  MISS:          0
cpu0_ITLB PREFETCH  ACCESS:          0  HIT:          0  MISS:          0
cpu0_ITLB WRITEBACK ACCESS:          0  HIT:          0  MISS:          0
cpu0_L1I TOTAL     ACCESS:    1706343  HIT:    1468703  MISS:     237640
cpu0_L1I LOAD      ACCESS:    1706343  HIT:    1468703  MISS:     237640
cpu0_L1I RFO       ACCESS:          0  HIT:          0  MISS:          0
cpu0_L1I PREFETCH  ACCESS:          0  HIT:          0  MISS:          0
cpu0_L1I WRITEBACK ACCESS:          0  HIT:          0  MISS:          0
cpu0_STLB TOTAL     ACCESS:      39252  HIT:      38832  MISS:        420
cpu0_STLB LOAD      ACCESS:      28058  HIT:      27794  MISS:        264
cpu0_STLB RFO       ACCESS:      11194  HIT:      11038  MISS:        156
cpu0_STLB PREFETCH  ACCESS:          0  HIT:          0  MISS:          0
cpu0_STLB WRITEBACK ACCESS:          0  HIT:          0  MISS:          0
cpu0_L1D TOTAL     ACCESS:    5985967  HIT:    5936029  MISS:      49938
cpu0_L1D LOAD      ACCESS:    3457504  HIT:    3422831  MISS:      34673
cpu0_L1D RFO       ACCESS:    2528076  HIT:    2512855  MISS:      15221
cpu0_L1D PREFETCH  ACCESS:          0  HIT:          0  MISS:          0
cpu0_L1D WRITEBACK ACCESS:          0  HIT:          0  MISS:          0
cpu0_L2C TOTAL     ACCESS:     306334  HIT:     176464  MISS:     129870
cpu0_L2C LOAD      ACCESS:     272312  HIT:     166950  MISS:     105362
cpu0_L2C RFO       ACCESS:      15140  HIT:       3424  MISS:      11716
cpu0_L2C PREFETCH  ACCESS:          0  HIT:          0  MISS:          0
cpu0_L2C WRITEBACK ACCESS:      18838  HIT:       6090  MISS:      12748
LLC TOTAL     ACCESS:     135072  HIT:     114504  MISS:      20568
LLC LOAD      ACCESS:     105362  HIT:      94505  MISS:      10857
LLC RFO       ACCESS:      11714  HIT:       2003  MISS:       9711
LLC PREFETCH  ACCESS:          0  HIT:          0  MISS:          0
LLC WRITEBACK ACCESS:      17952  HIT:      17952  MISS:          0
Heartbeat CPU 0 instructions: 90000003 cycles: 30122727 heartbeat IPC: 2.15714 cumulative IPC: 2.29024 (Simulation time: 0 hr 43 min 25 sec) 

Region of Interest Statistics
cpu0_DTLB TOTAL     ACCESS:    4915342  HIT:    4873951  MISS:      41391
cpu0_DTLB LOAD      ACCESS:    3574484  HIT:    3545011  MISS:      29473
cpu0_DTLB RFO       ACCESS:    1340858  HIT:    1328940  MISS:      11918
cpu0_DTLB PREFETCH  ACCESS:          0  HIT:          0  MISS:          0
cpu0_DTLB WRITEBACK ACCESS:          0  HIT:          0  MISS:          0
cpu0_ITLB TOTAL     ACCESS:    2001111  HIT:    2000660  MISS:        451
cpu0_ITLB LOAD      ACCESS:    2001111  HIT:    2000660  MISS:        451
cpu0_ITLB RFO       ACCESS:          0  HIT:          0  MISS:          0
cpu0_ITLB PREFETCH  ACCESS:          0  HIT:          0  MISS:          0
cpu0_ITLB WRITEBACK ACCESS:          0  HIT:          0  MISS:          0
cpu0_L1I TOTAL     ACCESS:    1812058  HIT:    1558533  MISS:     253525
cpu0_L1I LOAD      ACCESS:    1812058  HIT:    1558533  MISS:     253525
cpu0_L1I RFO       ACCESS:          0  HIT:          0  MISS:          0
cpu0_L1I PREFETCH  ACCESS:          0  HIT:          0  MISS:          0
cpu0_L1I WRITEBACK ACCESS:          0  HIT:          0  MISS:          0
cpu0_STLB TOTAL     ACCESS:      41842  HIT:      41419  MISS:        423
cpu0_STLB LOAD      ACCESS:      29924  HIT:      29658  MISS:        266
cpu0_STLB RFO       ACCESS:      11918  HIT:      11761  MISS:        157
cpu0_STLB PREFETCH  ACCESS:          0  HIT:          0  MISS:          0
cpu0_STLB WRITEBACK ACCESS:          0  HIT:          0  MISS:          0
cpu0_L1D TOTAL     ACCESS:    6299391  HIT:    6246051  MISS:      53340
cpu0_L1D LOAD      ACCESS:    3624629  HIT:    3587252  MISS:      37377
cpu0_L1D RFO       ACCESS:    2674372  HIT:    2658455  MISS:      15917
cpu0_L1D PREFETCH  ACCESS:          0  HIT:          0  MISS:          0
cpu0_L1D WRITEBACK ACCESS:          0  HIT:          0  MISS:          0
cpu0_L2C TOTAL     ACCESS:     326359  HIT:     187489  MISS:     138870
cpu0_L2C LOAD      ACCESS:     290901  HIT:     177472  MISS:     113429
cpu0_L2C RFO       ACCESS:      15830  HIT:       3763  MISS:      12067
cpu0_L2C PREFETCH  ACCESS:          0  HIT:          0  MISS:          0
cpu0_L2C WRITEBACK ACCESS:      19582  HIT:       6254  MISS:      13328
LLC TOTAL     ACCESS:     144139  HIT:     122467  MISS:      21672
LLC LOAD      ACCESS:     113429  HIT:     101712  MISS:      11717
LLC RFO       ACCESS:      12065  HIT:       2110  MISS:       9955
LLC PREFETCH  ACCESS:          0  HIT:          0  MISS:          0
LLC WRITEBACK ACCESS:      18599  HIT:      18599  MISS:          0
Heartbeat CPU 0 instructions: 92000001 cycles: 31044148 heartbeat IPC: 2.17056 cumulative IPC: 2.28424 (Simulation time: 0 hr 44 min 21 sec) 

Region of Interest Statistics
cpu0_DTLB TOTAL     ACCESS:    5154365  HIT:    5111468  MISS:      42897
cpu0_DTLB LOAD      ACCESS:    3751497  HIT:    3720999  MISS:      30498
cpu0_DTLB RFO       ACCESS:    1402868  HIT:    1390469  MISS:      12399
cpu0_DTLB PREFETCH  ACCESS:          0  HIT:          0  MISS:          0
cpu0_DTLB WRITEBACK ACCESS:          0  HIT:          0  MISS:          0
cpu0_ITLB TOTAL     ACCESS:    2123705  HIT:    2123253  MISS:        452
cpu0_ITLB LOAD      ACCESS:    2123705  HIT:    2123253  MISS:        452
cpu0_ITLB RFO       ACCESS:          0  HIT:          0  MISS:          0
cpu0_ITLB PREFETCH  ACCESS:          0  HIT:          0  MISS:          0
cpu0_ITLB WRITEBACK ACCESS:          0  HIT:          0  MISS:          0
cpu0_L1I TOTAL     ACCESS:    1902233  HIT:    1634714  MISS:     267519
cpu0_L1I LOAD      ACCESS:    1902233  HIT:    1634714  MISS:     267519
cpu0_L1I RFO       ACCESS:          0  HIT:          0  MISS:          0
cpu0_L1I PREFETCH  ACCESS:          0  HIT:          0  MISS:          0
cpu0_L1I WRITEBACK ACCESS:          0  HIT:          0  MISS:          0
cpu0_STLB TOTAL     ACCESS:      43349  HIT:      42926  MISS:        423
cpu0_STLB LOAD      ACCESS:      30950  HIT:      30684  MISS:        266
cpu0_STLB RFO       ACCESS:      12399  HIT:      12242  MISS:        157
cpu0_STLB PREFETCH  ACCESS:          0  HIT:          0  MISS:          0
cpu0_STLB WRITEBACK ACCESS:          0  HIT:          0  MISS:          0
cpu0_L1D TOTAL     ACCESS:    6614340  HIT:    6559165  MISS:      55175
cpu0_L1D LOAD      ACCESS:    3800323  HIT:    3761496  MISS:      38827
cpu0_L1D RFO       ACCESS:    2813627  HIT:    2797325  MISS:      16302
cpu0_L1D PREFETCH  ACCESS:          0  HIT:          0  MISS:          0
cpu0_L1D WRITEBACK ACCESS:          0  HIT:          0  MISS:          0
cpu0_L2C TOTAL     ACCESS:     342682  HIT:     198504  MISS:     144178
cpu0_L2C LOAD      ACCESS:     306345  HIT:     188283  MISS:     118062
cpu0_L2C RFO       ACCESS:      16213  HIT:       3898  MISS:      12315
cpu0_L2C PREFETCH  ACCESS:          0  HIT:          0  MISS:          0
cpu0_L2C WRITEBACK ACCESS:      20078  HIT:       6323  MISS:      13755
LLC TOTAL     ACCESS:     149374  HIT:     127075  MISS:      22299
LLC LOAD      ACCESS:     118062  HIT:     105885  MISS:      12177
LLC RFO       ACCESS:      12313  HIT:       2191  MISS:      10122
LLC PREFETCH  ACCESS:          0  HIT:          0  MISS:          0
LLC WRITEBACK ACCESS:      18953  HIT:      18953  MISS:          0
Heartbeat CPU 0 instructions: 94000002 cycles: 31783209 heartbeat IPC: 2.70614 cumulative IPC: 2.30055 (Simulation time: 0 hr 45 min 21 sec) 

Region of Interest Statistics
cpu0_DTLB TOTAL     ACCESS:    5406450  HIT:    5362622  MISS:      43828
cpu0_DTLB LOAD      ACCESS:    3929679  HIT:    3898504  MISS:      31175
cpu0_DTLB RFO       ACCESS:    1476771  HIT:    1464118  MISS:      12653
cpu0_DTLB PREFETCH  ACCESS:          0  HIT:          0  MISS:          0
cpu0_DTLB WRITEBACK ACCESS:          0  HIT:          0  MISS:          0
cpu0_ITLB TOTAL     ACCESS:    2183942  HIT:    2183471  MISS:        471
cpu0_ITLB LOAD      ACCESS:    2183942  HIT:    2183471  MISS:        471
cpu0_ITLB RFO       ACCESS:          0  HIT:          0  MISS:          0
cpu0_ITLB PREFETCH  ACCESS:          0  HIT:          0  MISS:          0
cpu0_ITLB WRITEBACK ACCESS:          0  HIT:          0  MISS:          0
cpu0_L1I TOTAL     ACCESS:    1963698  HIT:    1689641  MISS:     274057
cpu0_L1I LOAD      ACCESS:    1963698  HIT:    1689641  MISS:     274057
cpu0_L1I RFO       ACCESS:          0  HIT:          0  MISS:          0
cpu0_L1I PREFETCH  ACCESS:          0  HIT:          0  MISS:          0
cpu0_L1I WRITEBACK ACCESS:          0  HIT:          0  MISS:          0
cpu0_STLB TOTAL     ACCESS:      44299  HIT:      43845  MISS:        454
cpu0_STLB LOAD      ACCESS:      31646  HIT:      31373  MISS:        273
cpu0_STLB RFO       ACCESS:      12653  HIT:      12472  MISS:        181
cpu0_STLB PREFETCH  ACCESS:          0  HIT:          0  MISS:          0
cpu0_STLB WRITEBACK ACCESS:          0  HIT:          0  MISS:          0
cpu0_L1D TOTAL     ACCESS:    6921322  HIT:    6863363  MISS:      57959
cpu0_L1D LOAD      ACCESS:    4005605  HIT:    3965369  MISS:      40236
cpu0_L1D RFO       ACCESS:    2915302  HIT:    2897628  MISS:      17674
cpu0_L1D PREFETCH  ACCESS:          0  HIT:          0  MISS:          0
cpu0_L1D WRITEBACK ACCESS:          0  HIT:          0  MISS:          0
cpu0_L2C TOTAL     ACCESS:     353850  HIT:     203503  MISS:     150347
cpu0_L2C LOAD      ACCESS:     314292  HIT:     192358  MISS:     121934
cpu0_L2C RFO       ACCESS:      17582  HIT:       3942  MISS:      13640
cpu0_L2C PREFETCH  ACCESS:          0  HIT:          0  MISS:          0
cpu0_L2C WRITEBACK ACCESS:      21927  HIT:       7203  MISS:      14724
LLC TOTAL     ACCESS:     156481  HIT:     132624  MISS:      23857
LLC LOAD      ACCESS:     121934  HIT:     109337  MISS:      12597
LLC RFO       ACCESS:      13638  HIT:       2378  MISS:      11260
LLC PREFETCH  ACCESS:          0  HIT:          0  MISS:          0
LLC WRITEBACK ACCESS:      20860  HIT:      20860  MISS:          0
Heartbeat CPU 0 instructions: 96000004 cycles: 32716808 heartbeat IPC: 2.14225 cumulative IPC: 2.29318 (Simulation time: 0 hr 46 min 19 sec) 

Region of Interest Statistics
cpu0_DTLB TOTAL     ACCESS:    5654208  HIT:    5607781  MISS:      46427
cpu0_DTLB LOAD      ACCESS:    4110265  HIT:    4077169  MISS:      33096
cpu0_DTLB RFO       ACCESS:    1543943  HIT:    1530612  MISS:      13331
cpu0_DTLB PREFETCH  ACCESS:          0  HIT:          0  MISS:          0
cpu0_DTLB WRITEBACK ACCESS:          0  HIT:          0  MISS:          0
cpu0_ITLB TOTAL     ACCESS:    2300293  HIT:    2299752  MISS:        541
cpu0_ITLB LOAD      ACCESS:    2300293  HIT:    2299752  MISS:        541
cpu0_ITLB RFO       ACCESS:          0  HIT:          0  MISS:          0
cpu0_ITLB PREFETCH  ACCESS:          0  HIT:          0  MISS:          0
cpu0_ITLB WRITEBACK ACCESS:          0  HIT:          0  MISS:          0
cpu0_L1I TOTAL     ACCESS:    2072668  HIT:    1782772  MISS:     289896
cpu0_L1I LOAD      ACCESS:    2072668  HIT:    1782772  MISS:     289896
cpu0_L1I RFO       ACCESS:          0  HIT:          0  MISS:          0
cpu0_L1I PREFETCH  ACCESS:          0  HIT:          0  MISS:          0
cpu0_L1I WRITEBACK ACCESS:          0  HIT:          0  MISS:          0
cpu0_STLB TOTAL     ACCESS:      46968  HIT:      46512  MISS:        456
cpu0_STLB LOAD      ACCESS:      33637  HIT:      33363  MISS:        274
cpu0_STLB RFO       ACCESS:      13331  HIT:      13149  MISS:        182
cpu0_STLB PREFETCH  ACCESS:          0  HIT:          0  MISS:          0
cpu0_STLB WRITEBACK ACCESS:          0  HIT:          0  MISS:          0
cpu0_L1D TOTAL     ACCESS:    7247972  HIT:    7187209  MISS:      60763
cpu0_L1D LOAD      ACCESS:    4176870  HIT:    4134249  MISS:      42621
cpu0_L1D RFO       ACCESS:    3070685  HIT:    3052594  MISS:      18091
cpu0_L1D PREFETCH  ACCESS:          0  HIT:          0  MISS:          0
cpu0_L1D WRITEBACK ACCESS:          0  HIT:          0  MISS:          0
cpu0_L2C TOTAL     ACCESS:     372945  HIT:     214043  MISS:     158902
cpu0_L2C LOAD      ACCESS:     332516  HIT:     202690  MISS:     129826
cpu0_L2C RFO       ACCESS:      17994  HIT:       4087  MISS:      13907
cpu0_L2C PREFETCH  ACCESS:          0  HIT:          0  MISS:          0
cpu0_L2C WRITEBACK ACCESS:      22384  HIT:       7266  MISS:      15118
LLC TOTAL     ACCESS:     165117  HIT:     140540  MISS:      24577
LLC LOAD      ACCESS:     129826  HIT:     116722  MISS:      13104
LLC RFO       ACCESS:      13903  HIT:       2430  MISS:      11473
LLC PREFETCH  ACCESS:          0  HIT:          0  MISS:          0
LLC WRITEBACK ACCESS:      21337  HIT:      21337  MISS:          0
Heartbeat CPU 0 instructions: 98000004 cycles: 33624407 heartbeat IPC: 2.20362 cumulative IPC: 2.2893 (Simulation time: 0 hr 47 min 16 sec) 

Region of Interest Statistics
cpu0_DTLB TOTAL     ACCESS:    5894973  HIT:    5845748  MISS:      49225
cpu0_DTLB LOAD      ACCESS:    4290274  HIT:    4255163  MISS:      35111
cpu0_DTLB RFO       ACCESS:    1604699  HIT:    1590585  MISS:      14114
cpu0_DTLB PREFETCH  ACCESS:          0  HIT:          0  MISS:          0
cpu0_DTLB WRITEBACK ACCESS:          0  HIT:          0  MISS:          0
cpu0_ITLB TOTAL     ACCESS:    2413675  HIT:    2413094  MISS:        581
cpu0_ITLB LOAD      ACCESS:    2413675  HIT:    2413094  MISS:        581
cpu0_ITLB RFO       ACCESS:          0  HIT:          0  MISS:          0
cpu0_ITLB PREFETCH  ACCESS:          0  HIT:          0  MISS:          0
cpu0_ITLB WRITEBACK ACCESS:          0  HIT:          0  MISS:          0
cpu0_L1I TOTAL     ACCESS:    2176655  HIT:    1869982  MISS:     306673
cpu0_L1I LOAD      ACCESS:    2176655  HIT:    1869982  MISS:     306673
cpu0_L1I RFO       ACCESS:          0  HIT:          0  MISS:          0
cpu0_L1I PREFETCH  ACCESS:          0  HIT:          0  MISS:          0
cpu0_L1I WRITEBACK ACCESS:          0  HIT:          0  MISS:          0
cpu0_STLB TOTAL     ACCESS:      49806  HIT:      49342  MISS:        464
cpu0_STLB LOAD      ACCESS:      35692  HIT:      35413  MISS:        279
cpu0_STLB RFO       ACCESS:      14114  HIT:      13929  MISS:        185
cpu0_STLB PREFETCH  ACCESS:          0  HIT:          0  MISS:          0
cpu0_STLB WRITEBACK ACCESS:          0  HIT:          0  MISS:          0
cpu0_L1D TOTAL     ACCESS:    7557788  HIT:    7494296  MISS:      63492
cpu0_L1D LOAD      ACCESS:    4343565  HIT:    4298832  MISS:      44733
cpu0_L1D RFO       ACCESS:    3213799  HIT:    3195095  MISS:      18704
cpu0_L1D PREFETCH  ACCESS:          0  HIT:          0  MISS:          0
cpu0_L1D WRITEBACK ACCESS:          0  HIT:          0  MISS:          0
cpu0_L2C TOTAL     ACCESS:     393072  HIT:     226502  MISS:     166570
cpu0_L2C LOAD      ACCESS:     351405  HIT:     214728  MISS:     136677
cpu0_L2C RFO       ACCESS:      18599  HIT:       4398  MISS:      14201
cpu0_L2C PREFETCH  ACCESS:          0  HIT:          0  MISS:          0
cpu0_L2C WRITEBACK ACCESS:      23013  HIT:       7376  MISS:      15637
LLC TOTAL     ACCESS:     172805  HIT:     147386  MISS:      25419
LLC LOAD      ACCESS:     136677  HIT:     122961  MISS:      13716
LLC RFO       ACCESS:      14197  HIT:       2494  MISS:      11703
LLC PREFETCH  ACCESS:          0  HIT:          0  MISS:          0
LLC WRITEBACK ACCESS:      21876  HIT:      21876  MISS:          0
Heartbeat CPU 0 instructions: 100000003 cycles: 34469404 heartbeat IPC: 2.36687 cumulative IPC: 2.29231 (Simulation time: 0 hr 48 min 10 sec) 

Region of Interest Statistics
cpu0_DTLB TOTAL     ACCESS:    6142936  HIT:    6092513  MISS:      50423
cpu0_DTLB LOAD      ACCESS:    4471451  HIT:    4435527  MISS:      35924
cpu0_DTLB RFO       ACCESS:    1671485  HIT:    1656986  MISS:      14499
cpu0_DTLB PREFETCH  ACCESS:          0  HIT:          0  MISS:          0
cpu0_DTLB WRITEBACK ACCESS:          0  HIT:          0  MISS:          0
cpu0_ITLB TOTAL     ACCESS:    2518027  HIT:    2517445  MISS:        582
cpu0_ITLB LOAD      ACCESS:    2518027  HIT:    2517445  MISS:        582
cpu0_ITLB RFO       ACCESS:          0  HIT:          0  MISS:          0
cpu0_ITLB PREFETCH  ACCESS:          0  HIT:          0  MISS:          0
cpu0_ITLB WRITEBACK ACCESS:          0  HIT:          0  MISS:          0
cpu0_L1I TOTAL     ACCESS:    2244125  HIT:    1928894  MISS:     315231
cpu0_L1I LOAD      ACCESS:    2244125  HIT:    1928894  MISS:     315231
cpu0_L1I RFO       ACCESS:          0  HIT:          0  MISS:          0
cpu0_L1I PREFETCH  ACCESS:          0  HIT:          0  MISS:          0
cpu0_L1I WRITEBACK ACCESS:          0  HIT:          0  MISS:          0
cpu0_STLB TOTAL     ACCESS:      51005  HIT:      50534  MISS:        471
cpu0_STLB LOAD      ACCESS:      36506  HIT:      36227  MISS:        279
cpu0_STLB RFO       ACCESS:      14499  HIT:      14307  MISS:        192
cpu0_STLB PREFETCH  ACCESS:          0  HIT:          0  MISS:          0
cpu0_STLB WRITEBACK ACCESS:          0  HIT:          0  MISS:          0
cpu0_L1D TOTAL     ACCESS:    7874738  HIT:    7808969  MISS:      65769
cpu0_L1D LOAD      ACCESS:    4541147  HIT:    4494890  MISS:      46257
cpu0_L1D RFO       ACCESS:    3333160  HIT:    3313704  MISS:      19456
cpu0_L1D PREFETCH  ACCESS:          0  HIT:          0  MISS:          0
cpu0_L1D WRITEBACK ACCESS:          0  HIT:          0  MISS:          0
cpu0_L2C TOTAL     ACCESS:     404924  HIT:     233638  MISS:     171286
cpu0_L2C LOAD      ACCESS:     361487  HIT:     221402  MISS:     140085
cpu0_L2C RFO       ACCESS:      19346  HIT:       4516  MISS:      14830
cpu0_L2C PREFETCH  ACCESS:          0  HIT:          0  MISS:          0
cpu0_L2C WRITEBACK ACCESS:      24035  HIT:       7720  MISS:      16315
LLC TOTAL     ACCESS:     177458  HIT:     151262  MISS:      26196
LLC LOAD      ACCESS:     140085  HIT:     126106  MISS:      13979
LLC RFO       ACCESS:      14826  HIT:       2609  MISS:      12217
LLC PREFETCH  ACCESS:          0  HIT:          0  MISS:          0
LLC WRITEBACK ACCESS:      22491  HIT:      22491  MISS:          0
Heartbeat CPU 0 instructions: 102000003 cycles: 35262008 heartbeat IPC: 2.52333 cumulative IPC: 2.30041 (Simulation time: 0 hr 49 min 6 sec) 

Region of Interest Statistics
cpu0_DTLB TOTAL     ACCESS:    6386824  HIT:    6334568  MISS:      52256
cpu0_DTLB LOAD      ACCESS:    4646784  HIT:    4609507  MISS:      37277
cpu0_DTLB RFO       ACCESS:    1740040  HIT:    1725061  MISS:      14979
cpu0_DTLB PREFETCH  ACCESS:          0  HIT:          0  MISS:          0
cpu0_DTLB WRITEBACK ACCESS:          0  HIT:          0  MISS:          0
cpu0_ITLB TOTAL     ACCESS:    2599001  HIT:    2598373  MISS:        628
cpu0_ITLB LOAD      ACCESS:    2599001  HIT:    2598373  MISS:        628
cpu0_ITLB RFO       ACCESS:          0  HIT:          0  MISS:          0
cpu0_ITLB PREFETCH  ACCESS:          0  HIT:          0  MISS:          0
cpu0_ITLB WRITEBACK ACCESS:          0  HIT:          0  MISS:          0
cpu0_L1I TOTAL     ACCESS:    2325846  HIT:    1999333  MISS:     326513
cpu0_L1I LOAD      ACCESS:    2325846  HIT:    1999333  MISS:     326513
cpu0_L1I RFO       ACCESS:          0  HIT:          0  MISS:          0
cpu0_L1I PREFETCH  ACCESS:          0  HIT:          0  MISS:          0
cpu0_L1I WRITEBACK ACCESS:          0  HIT:          0  MISS:          0
cpu0_STLB TOTAL     ACCESS:      52884  HIT:      52389  MISS:        495
cpu0_STLB LOAD      ACCESS:      37905  HIT:      37619  MISS:        286
cpu0_STLB RFO       ACCESS:      14979  HIT:      14770  MISS:        209
cpu0_STLB PREFETCH  ACCESS:          0  HIT:          0  MISS:          0
cpu0_STLB WRITEBACK ACCESS:          0  HIT:          0  MISS:          0
cpu0_L1D TOTAL     ACCESS:    8180515  HIT:    8111641  MISS:      68874
cpu0_L1D LOAD      ACCESS:    4726410  HIT:    4678172  MISS:      48238
cpu0_L1D RFO       ACCESS:    3453654  HIT:    3433076  MISS:      20578
cpu0_L1D PREFETCH  ACCESS:          0  HIT:          0  MISS:          0
cpu0_L1D WRITEBACK ACCESS:          0  HIT:          0  MISS:          0
cpu0_L2C TOTAL     ACCESS:     420831  HIT:     241736  MISS:     179095
cpu0_L2C LOAD      ACCESS:     374750  HIT:     228711  MISS:     146039
cpu0_L2C RFO       ACCESS:      20467  HIT:       4691  MISS:      15776
cpu0_L2C PREFETCH  ACCESS:          0  HIT:          0  MISS:          0
cpu0_L2C WRITEBACK ACCESS:      25556  HIT:       8334  MISS:      17222
LLC TOTAL     ACCESS:     186202  HIT:     158834  MISS:      27368
LLC LOAD      ACCESS:     146039  HIT:     131663  MISS:      14376
LLC RFO       ACCESS:      15771  HIT:       2779  MISS:      12992
LLC PREFETCH  ACCESS:          0  HIT:          0  MISS:          0
LLC WRITEBACK ACCESS:      24334  HIT:      24334  MISS:          0
Heartbeat CPU 0 instructions: 104000001 cycles: 36176144 heartbeat IPC: 2.18786 cumulative IPC: 2.29603 (Simulation time: 0 hr 50 min 5 sec) 

Region of Interest Statistics
cpu0_DTLB TOTAL     ACCESS:    6631280  HIT:    6576171  MISS:      55109
cpu0_DTLB LOAD      ACCESS:    4826114  HIT:    4786770  MISS:      39344
cpu0_DTLB RFO       ACCESS:    1805166  HIT:    1789401  MISS:      15765
cpu0_DTLB PREFETCH  ACCESS:          0  HIT:          0  MISS:          0
cpu0_DTLB WRITEBACK ACCESS:          0  HIT:          0  MISS:          0
cpu0_ITLB TOTAL     ACCESS:    2713858  HIT:    2713159  MISS:        699
cpu0_ITLB LOAD      ACCESS:    2713858  HIT:    2713159  MISS:        699
cpu0_ITLB RFO       ACCESS:          0  HIT:          0  MISS:          0
cpu0_ITLB PREFETCH  ACCESS:          0  HIT:          0  MISS:          0
cpu0_ITLB WRITEBACK ACCESS:          0  HIT:          0  MISS:          0
cpu0_L1I TOTAL     ACCESS:    2434161  HIT:    2092338  MISS:     341823
cpu0_L1I LOAD      ACCESS:    2434161  HIT:    2092338  MISS:     341823
cpu0_L1I RFO       ACCESS:          0  HIT:          0  MISS:          0
cpu0_L1I PREFETCH  ACCESS:          0  HIT:          0  MISS:          0
cpu0_L1I WRITEBACK ACCESS:          0  HIT:          0  MISS:          0
cpu0_STLB TOTAL     ACCESS:      55808  HIT:      55312  MISS:        496
cpu0_STLB LOAD      ACCESS:      40043  HIT:      39757  MISS:        286
cpu0_STLB RFO       ACCESS:      15765  HIT:      15555  MISS:        210
cpu0_STLB PREFETCH  ACCESS:          0  HIT:          0  MISS:          0
cpu0_STLB WRITEBACK ACCESS:          0  HIT:          0  MISS:          0
cpu0_L1D TOTAL     ACCESS:    8500978  HIT:    8429481  MISS:      71497
cpu0_L1D LOAD      ACCESS:    4894617  HIT:    4844261  MISS:      50356
cpu0_L1D RFO       ACCESS:    3605909  HIT:    3584827  MISS:      21082
cpu0_L1D PREFETCH  ACCESS:          0  HIT:          0  MISS:          0
cpu0_L1D WRITEBACK ACCESS:          0  HIT:          0  MISS:          0
cpu0_L2C TOTAL     ACCESS:     439261  HIT:     252210  MISS:     187051
cpu0_L2C LOAD      ACCESS:     392178  HIT:     238929  MISS:     153249
cpu0_L2C RFO       ACCESS:      20970  HIT:       4864  MISS:      16106
cpu0_L2C PREFETCH  ACCESS:          0  HIT:          0  MISS:          0
cpu0_L2C WRITEBACK ACCESS:      26054  HIT:       8417  MISS:      17637
LLC TOTAL     ACCESS:     194207  HIT:     166036  MISS:      28171
LLC LOAD      ACCESS:     153249  HIT:     138332  MISS:      14917
LLC RFO       ACCESS:      16099  HIT:       2845  MISS:      13254
LLC PREFETCH  ACCESS:          0  HIT:          0  MISS:          0
LLC WRITEBACK ACCESS:      24800  HIT:      24800  MISS:          0
Heartbeat CPU 0 instructions: 106000003 cycles: 37082466 heartbeat IPC: 2.20672 cumulative IPC: 2.29272 (Simulation time: 0 hr 51 min 0 sec) 

Region of Interest Statistics
cpu0_DTLB TOTAL     ACCESS:    6869609  HIT:    6811631  MISS:      57978
cpu0_DTLB LOAD      ACCESS:    5002824  HIT:    4961325  MISS:      41499
cpu0_DTLB RFO       ACCESS:    1866785  HIT:    1850306  MISS:      16479
cpu0_DTLB PREFETCH  ACCESS:          0  HIT:          0  MISS:          0
cpu0_DTLB WRITEBACK ACCESS:          0  HIT:          0  MISS:          0
cpu0_ITLB TOTAL     ACCESS:    2824401  HIT:    2823695  MISS:        706
cpu0_ITLB LOAD      ACCESS:    2824401  HIT:    2823695  MISS:        706
cpu0_ITLB RFO       ACCESS:          0  HIT:          0  MISS:          0
cpu0_ITLB PREFETCH  ACCESS:          0  HIT:          0  MISS:          0
cpu0_ITLB WRITEBACK ACCESS:          0  HIT:          0  MISS:          0
cpu0_L1I TOTAL     ACCESS:    2538724  HIT:    2178599  MISS:     360125
cpu0_L1I LOAD      ACCESS:    2538724  HIT:    2178599  MISS:     360125
cpu0_L1I RFO       ACCESS:          0  HIT:          0  MISS:          0
cpu0_L1I PREFETCH  ACCESS:          0  HIT:          0  MISS:          0
cpu0_L1I WRITEBACK ACCESS:          0  HIT:          0  MISS:          0
cpu0_STLB TOTAL     ACCESS:      58684  HIT:      58187  MISS:        497
cpu0_STLB LOAD      ACCESS:      42205  HIT:      41918  MISS:        287
cpu0_STLB RFO       ACCESS:      16479  HIT:      16269  MISS:        210
cpu0_STLB PREFETCH  ACCESS:          0  HIT:          0  MISS:          0
cpu0_STLB WRITEBACK ACCESS:          0  HIT:          0  MISS:          0
cpu0_L1D TOTAL     ACCESS:    8810138  HIT:    8736322  MISS:      73816
cpu0_L1D LOAD      ACCESS:    5059202  HIT:    5007146  MISS:      52056
cpu0_L1D RFO       ACCESS:    3750483  HIT:    3728783  MISS:      21700
cpu0_L1D PREFETCH  ACCESS:          0  HIT:          0  MISS:          0
cpu0_L1D WRITEBACK ACCESS:          0  HIT:          0  MISS:          0
cpu0_L2C TOTAL     ACCESS:     460517  HIT:     265999  MISS:     194518
cpu0_L2C LOAD      ACCESS:     412180  HIT:     252279  MISS:     159901
cpu0_L2C RFO       ACCESS:      21578  HIT:       5190  MISS:      16388
cpu0_L2C PREFETCH  ACCESS:          0  HIT:          0  MISS:          0
cpu0_L2C WRITEBACK ACCESS:      26699  HIT:       8530  MISS:      18169
[...]

ChampSim completed all CPUs

Region of Interest Statistics

CPU 0 cumulative IPC: 2.29683 instructions: 1500000001 cycles: 653074967
cpu0_DTLB TOTAL     ACCESS:  193090280  HIT:  191477248  MISS:    1613032
cpu0_DTLB LOAD      ACCESS:  140287671  HIT:  139131666  MISS:    1156005
cpu0_DTLB RFO       ACCESS:   52802609  HIT:   52345582  MISS:     457027
cpu0_DTLB PREFETCH  ACCESS:          0  HIT:          0  MISS:          0
cpu0_DTLB WRITEBACK ACCESS:          0  HIT:          0  MISS:          0
cpu0_DTLB TRANSLATION ACCESS:          0  HIT:          0  MISS:          0
cpu0_DTLB PREFETCH  REQUESTED:          0  ISSUED:          0  USEFUL:          0  USELESS:          0
cpu0_DTLB AVERAGE MISS LATENCY: 11.3931 cycles
cpu0_ITLB TOTAL     ACCESS:   82842261  HIT:   82836869  MISS:       5392
cpu0_ITLB LOAD      ACCESS:   82842261  HIT:   82836869  MISS:       5392
cpu0_ITLB RFO       ACCESS:          0  HIT:          0  MISS:          0
cpu0_ITLB PREFETCH  ACCESS:          0  HIT:          0  MISS:          0
cpu0_ITLB WRITEBACK ACCESS:          0  HIT:          0  MISS:          0
cpu0_ITLB TRANSLATION ACCESS:          0  HIT:          0  MISS:          0
cpu0_ITLB PREFETCH  REQUESTED:          0  ISSUED:          0  USEFUL:          0  USELESS:          0
cpu0_ITLB AVERAGE MISS LATENCY: 12.8986 cycles
cpu0_L1I TOTAL     ACCESS:   56648914  HIT:   52388098  MISS:    4260816
cpu0_L1I LOAD      ACCESS:   56648914  HIT:   52388098  MISS:    4260816
cpu0_L1I RFO       ACCESS:          0  HIT:          0  MISS:          0
cpu0_L1I PREFETCH  ACCESS:          0  HIT:          0  MISS:          0
cpu0_L1I WRITEBACK ACCESS:          0  HIT:          0  MISS:          0
cpu0_L1I TRANSLATION ACCESS:          0  HIT:          0  MISS:          0
cpu0_L1I PREFETCH  REQUESTED:          0  ISSUED:          0  USEFUL:          0  USELESS:          0
cpu0_L1I AVERAGE MISS LATENCY: 20.3448 cycles
cpu0_STLB TOTAL     ACCESS:    1618424  HIT:    1594240  MISS:      24184
cpu0_STLB LOAD      ACCESS:    1161397  HIT:    1145833  MISS:      15564
cpu0_STLB RFO       ACCESS:     457027  HIT:     448407  MISS:       8620
cpu0_STLB PREFETCH  ACCESS:          0  HIT:          0  MISS:          0
cpu0_STLB WRITEBACK ACCESS:          0  HIT:          0  MISS:          0
cpu0_STLB TRANSLATION ACCESS:          0  HIT:          0  MISS:          0
cpu0_STLB PREFETCH  REQUESTED:          0  ISSUED:          0  USEFUL:          0  USELESS:          0
cpu0_STLB AVERAGE MISS LATENCY: 157.454 cycles
cpu0_L1D TOTAL     ACCESS:  224745224  HIT:  221791626  MISS:    2953598
cpu0_L1D LOAD      ACCESS:  125786635  HIT:  123648464  MISS:    2138171
cpu0_L1D RFO       ACCESS:   98936006  HIT:   98123108  MISS:     812898
cpu0_L1D PREFETCH  ACCESS:          0  HIT:          0  MISS:          0
cpu0_L1D WRITEBACK ACCESS:          0  HIT:          0  MISS:          0
cpu0_L1D TRANSLATION ACCESS:      22583  HIT:      20054  MISS:       2529
cpu0_L1D PREFETCH  REQUESTED:          0  ISSUED:          0  USEFUL:          0  USELESS:          0
cpu0_L1D AVERAGE MISS LATENCY: 178.036 cycles
cpu0_L2C TOTAL     ACCESS:    8201511  HIT:    3358763  MISS:    4842748
cpu0_L2C LOAD      ACCESS:    6398961  HIT:    2731281  MISS:    3667680
cpu0_L2C RFO       ACCESS:     808486  HIT:     161160  MISS:     647326
cpu0_L2C PREFETCH  ACCESS:          0  HIT:          0  MISS:          0
cpu0_L2C WRITEBACK ACCESS:     991535  HIT:     466226  MISS:     525309
cpu0_L2C TRANSLATION ACCESS:       2529  HIT:         96  MISS:       2433
cpu0_L2C PREFETCH  REQUESTED:          0  ISSUED:          0  USEFUL:          0  USELESS:          0
cpu0_L2C AVERAGE MISS LATENCY: 110.043 cycles
LLC TOTAL     ACCESS:    5224473  HIT:    3970386  MISS:    1254087
LLC LOAD      ACCESS:    3667668  HIT:    2957027  MISS:     710641
LLC RFO       ACCESS:     645905  HIT:     102624  MISS:     543281
LLC PREFETCH  ACCESS:          0  HIT:          0  MISS:          0
LLC WRITEBACK ACCESS:     908467  HIT:     908368  MISS:         99
LLC TRANSLATION ACCESS:       2433  HIT:       2367  MISS:         66
LLC PREFETCH  REQUESTED:          0  ISSUED:          0  USEFUL:          0  USELESS:          0
LLC AVERAGE MISS LATENCY: 352.663 cycles
~~~~~~~~~~Reuse Distance Profiler output~~~~~~~~~~
0	62285616	9225680
1	29148960	19184096
2	13906880	8800400
3	12512400	9030032
4	9628640	6285664
5	8732576	6833344
6	7824448	5914240
7	10432576	7023712
8	4689488	3175696
9	4304160	2540784
10	2666832	1489456
11	1619152	904672
12	1903536	1055600
13	1488336	960448
14	2377312	1934736
15	1649504	1217808
16	1232560	721552
17	919360	607792
18	1202512	916864
19	1060752	866720
20	1380080	1007568
21	1126416	812944
22	982416	670720
23	1262736	932480
24	1100880	815280
25	884208	565728
26	799760	569296
27	537488	352176
28	470640	306912
29	457088	304816
30	397280	297504
31	344192	241632
32	310464	206160
33	392976	274304
34	417712	301440
35	511632	409184
36	487888	413264
37	464160	413504
38	475472	421360
39	600704	523232
40	509888	417072
41	522256	410048
42	550112	456208
43	485008	433904
44	439008	374016
45	288992	221744
46	242736	184560
47	248576	175168
48	277984	213264
49	271696	216080
50	346144	299264
51	224048	177504
52	211584	165968
53	195744	155296
54	166368	132768
55	183920	147488
56	198496	149568
57	158752	127408
58	212064	178400
59	159632	131952
60	165696	141008
61	164048	138160
62	159552	131040
63	159392	136512
64	301760	247488
66	277584	230880
68	241472	186112
70	239152	176624
72	319024	262368
74	429536	366256
76	348944	302032
78	284560	244608
80	297296	264288
82	317264	288208
84	203408	169488
86	195040	135440
88	165840	107888
90	152304	116352
92	163760	132144
94	193952	173040
96	279472	255936
98	279552	252592
100	369312	321920
102	191936	173008
104	159488	144560
106	105136	91840
108	118272	101088
110	164944	117296
112	179248	120880
114	172064	120512
116	202048	139920
118	146448	114208
120	179312	133104
122	263104	218832
124	203728	183712
126	130192	107216
128	255776	221856
132	182320	159904
136	217984	184240
140	163072	121360
144	249088	209040
148	129808	97200
152	208560	184512
156	164976	135504
160	190656	158192
164	267712	194288
168	266016	156688
172	203968	156704
176	131760	101600
180	164368	126560
184	166240	136192
188	175296	143616
192	169920	151440
196	184288	160288
200	175488	140528
204	142512	115984
208	156272	126848
212	115328	99248
216	107808	96592
220	161392	148000
224	131776	122256
228	108128	98144
232	111808	102960
236	232864	225456
240	182256	173664
244	244816	239056
248	137056	131872
252	476368	470768
256	804864	790048
264	286720	272928
272	254208	243072
280	196448	170464
288	154192	133520
296	169456	154032
304	163648	153872
312	145904	131152
320	135680	116096
328	130720	113152
336	100912	88960
344	104880	95920
352	104160	95280
360	104384	95920
368	104352	94496
376	103088	89856
384	104432	96096
392	118064	101552
400	132992	114128
408	125024	108192
416	112160	100048
424	76672	64688
432	78928	66288
440	80576	69904
448	77200	65504
456	78672	66032
464	80448	67440
472	93040	78928
480	77808	67984
488	82640	66384
496	73344	59392
504	80768	67616
512	205840	172192
528	467488	442272
544	302288	266656
560	133648	106448
576	114896	96688
592	123232	105792
608	97456	79120
624	81520	68256
640	80688	71040
656	100144	90080
672	74928	62048
688	70176	54624
704	89152	74144
720	69440	54000
736	90448	73760
752	97424	82880
768	93840	80224
784	93792	82176
800	112832	100944
816	91968	71200
832	76528	62640
848	56496	44800
864	60864	46928
880	46688	34592
896	46288	32752
912	42848	25808
928	38848	25856
944	48240	40512
960	38528	31136
976	40432	30352
992	39296	30560
1008	29744	23952
1024	51696	42304
1056	58816	43680
1088	80640	61392
1120	74896	60832
1152	75920	45248
1184	71360	46752
1216	57728	42016
1248	39968	28544
1280	45360	30880
1312	49888	39456
1344	81152	69600
1376	71920	54816
1408	61824	41936
1440	68528	43200
1472	60544	46112
1504	82880	66448
1536	116960	84304
1568	78432	48544
1600	56576	36672
1632	85552	67808
1664	126512	87120
1696	84912	66752
1728	89488	76224
1760	95040	72912
1792	114976	85136
1824	76400	46960
1856	72720	47840
1888	91648	69216
1920	77328	54736
1952	56928	35712
1984	58400	43152
2016	78912	61744
2048	215456	173760
2112	97312	73936
2176	112976	95360
2240	109136	78432
2304	111232	71808
2368	115008	78256
2432	116992	86800
2496	111104	82176
2560	102432	76000
2624	146656	106528
2688	201568	161904
2752	156288	101712
2816	112096	78288
2880	112592	86832
2944	92416	73648
3008	115264	64416
3072	106192	76016
3136	123504	91408
3200	150560	103440
3264	216560	150080
3328	96064	60992
3392	88608	58832
3456	98400	69104
3520	80096	54576
3584	106496	73376
3648	175040	130752
3712	293136	223184
3776	214016	152960
3840	92560	68096
3904	98800	73728
3968	166928	125584
4032	281376	208080
4096	482400	350672
4224	231984	155888
4352	89616	70144
4480	84512	66336
4608	58224	46608
4736	46368	34176
4864	44592	33168
4992	36640	27680
5120	38768	30368
5248	30272	23072
5376	30224	21216
5504	31040	22528
5632	25904	19152
5760	24560	16896
5888	28864	21504
6016	26624	18976
6144	24784	17872
6272	22880	17152
6400	24704	17456
6528	21392	14608
6656	20832	14192
6784	24160	17040
6912	21056	13584
7040	20640	12464
7168	21312	12880
7296	22288	14080
7424	21744	12192
7552	21328	12128
7680	22272	12720
7808	22304	12544
7936	21744	12272
8064	23072	13600
8192	51536	32768
8448	50608	31984
8704	57200	38096
8960	61920	42912
9216	60240	39728
9472	111472	88272
9728	179840	158624
9984	82800	61008
10240	77504	54208
10496	74784	51872
10752	70336	48992
11008	67744	48784
11264	62912	46112
11520	60000	43120
11776	65088	49216
12032	51888	36528
12288	48368	34192
12544	47072	32128
12800	44960	30176
13056	44000	29856
13312	44448	29792
13568	43504	28912
13824	44000	29424
14080	50416	34480
14336	52800	36048
14592	58096	40416
14848	61472	44112
15104	64656	46672
15360	56464	41168
15616	56368	40544
15872	47248	34368
16128	46256	33952
16384	83136	60496
16896	66848	48816
17408	53552	38688
17920	41952	30592
18432	34112	24880
18944	29984	22080
19456	26608	19888
19968	23088	16976
20480	20624	15616
20992	15456	11584
21504	11440	8608
22016	9856	7456
22528	8080	6144
23040	7504	5600
23552	5952	4416
24064	5280	3904
24576	3760	2656
25088	3328	2496
25600	2432	1776
26112	3024	2400
26624	2192	1616
27136	2368	1920
27648	2592	2240
28160	2352	1712
28672	2544	2032
29184	2688	2288
29696	2816	2160
30208	2256	1840
30720	2624	2160
31232	2672	2256
31744	2192	1728
32256	2256	1744
32768	4592	3552
33792	4576	3504
34816	4512	3728
35840	3808	3072
36864	3408	2704
37888	3152	2512
38912	2816	2272
39936	2784	2192
40960	2464	2016
41984	2400	2000
43008	2224	1808
44032	1968	1472
45056	1968	1584
46080	1568	1248
47104	1760	1392
48128	1840	1568
49152	2032	1648
50176	1968	1664
51200	2048	1744
52224	2000	1552
53248	1792	1328
54272	1536	1232
55296	1632	1312
56320	1824	1552
57344	1536	1264
58368	1360	1264
59392	1552	1296
60416	1504	1104
61440	1456	1200
62464	1104	1040
63488	1472	1200
64512	1232	1008
65536	2576	1936
67584	2672	2208
69632	2928	2352
71680	3728	3296
73728	2672	2192
75776	2176	1984
77824	2176	1888
79872	2544	2208
81920	3024	2656
83968	2320	1808
86016	2400	2032
88064	2240	1856
90112	2160	2000
92160	2048	1808
94208	1968	1776
96256	1632	1440
98304	1728	1440
100352	2016	1568
102400	1632	1344
104448	1504	1328
106496	1376	1120
108544	1616	1344
110592	1744	1456
112640	1760	1552
114688	1312	1168
116736	1264	1088
118784	1504	1232
120832	1664	1520
122880	1536	1376
124928	1072	880
126976	1584	1360
129024	1248	1088
131072	3312	2976
135168	2448	2192
139264	3776	3616
143360	15744	15456
147456	19632	19360
151552	23632	23248
155648	16384	15952
159744	21264	20768
163840	12256	11568
167936	9856	9440
172032	5136	4784
176128	5584	5136
180224	15872	15152
184320	6208	5248
188416	6272	5216
192512	7680	6288
196608	7328	6112
200704	6144	5584
204800	13152	12528
208896	11712	11056
212992	15856	15184
217088	18704	18048
221184	14192	13328
225280	9984	9008
229376	8960	8144
233472	8320	7488
237568	3696	3120
241664	3184	2352
245760	2752	2080
249856	2032	1552
253952	2352	1936
258048	2720	2272
262144	6672	5760
270336	6176	5296
278528	5264	4512
286720	4368	4080
294912	4544	4144
303104	3904	3520
311296	3216	2864
319488	3760	3328
327680	3824	3472
335872	4560	4016
344064	4800	4400
352256	3344	3040
360448	4800	3888
368640	4784	4032
376832	3792	3344
385024	2864	2560
393216	3056	2448
401408	3456	3008
409600	3184	2784
417792	2928	2544
425984	3360	2896
434176	3808	3264
442368	3776	3312
450560	3392	2784
458752	3312	2928
466944	4096	3536
475136	4352	3696
483328	3744	3360
491520	3840	3472
499712	4064	3616
507904	3808	3488
516096	3776	3504
524288	9408	8512
540672	8272	7552
557056	8592	7968
573440	9280	8432
589824	9440	8976
606208	10032	9488
622592	11712	10864
638976	10896	10432
655360	12288	11728
671744	10576	10128
688128	10224	9824
704512	10000	9440
720896	11168	10688
737280	9728	8928
753664	8624	8208
770048	8336	8016
786432	8816	8352
802816	9136	8784
819200	8400	8128
835584	7872	7632
851968	7600	7376
868352	7568	7344
884736	6400	6304
901120	6128	5872
917504	6688	6352
933888	6336	6192
950272	6048	5968
966656	5888	5696
983040	5136	4944
999424	6016	5712
1015808	4608	4512
1032192	4224	4160
1048576	8976	8800
1081344	8512	8432
1114112	7680	7648
1146880	6704	6592
1179648	5376	5264
1212416	4304	4304
1245184	4016	3968
1277952	4736	4672
1310720	4752	4672
1343488	4176	4064
1376256	4576	4480
1409024	4272	4176
1441792	4432	4304
1474560	3984	3920
1507328	4320	4240
1540096	4160	4032
1572864	4064	3904
1605632	4192	4016
1638400	3952	3872
1671168	4320	4256
1703936	4144	4128
1736704	992	944
1769472	592	496
1802240	592	480
1835008	592	528
1867776	3120	3040
1900544	4384	4320
1933312	4336	4256
1966080	4784	4704
1998848	4256	4176
2031616	4192	4048
2064384	4192	4144
2097152	8448	8320
2162688	6880	6688
2228224	1328	1120
2293760	1088	864
2359296	704	576
2424832	608	336
2490368	816	576
2555904	800	544
2621440	608	480
2686976	624	448
2752512	752	480
2818048	864	608
2883584	816	560
2949120	576	336
3014656	384	256
3080192	992	496
3145728	464	288
3211264	464	368
3276800	592	320
3342336	496	352
3407872	544	368
3473408	608	352
3538944	544	352
3604480	352	240
3670016	544	352
3735552	416	176
3801088	272	192
3866624	240	192
3932160	288	192
3997696	272	64
4063232	336	176
4128768	304	160
4194304	544	160
4325376	736	432
4456448	464	256
4587520	528	208
4718592	528	240
4849664	640	336
4980736	496	208
5111808	448	224
5242880	432	176
5373952	464	192
5505024	448	128
5636096	400	144
5767168	464	144
5898240	384	48
6029312	416	128
6160384	304	80
6291456	464	80
6422528	656	160
6553600	352	96
6684672	416	64
6815744	368	208
6946816	224	48
7077888	480	192
7208960	480	64
7340032	384	48
7471104	464	128
7602176	128	16
7733248	512	48
7864320	576	80
7995392	240	32
8126464	352	32
8257536	240	32
8388608	736	80
8650752	864	48
8912896	480	96
9175040	1184	80
9437184	896	480
9699328	1472	832
9961472	1520	800
10223616	1040	576
10485760	1472	752
10747904	1440	816
11010048	1328	896
11272192	1392	736
11534336	944	640
11796480	1520	768
12058624	1344	688
12320768	1888	1328
12582912	4864	4208
12845056	10384	9856
13107200	1504	928
13369344	1344	880
13631488	1664	1040
13893632	1152	688
14155776	1088	768
14417920	1376	528
14680064	912	592
14942208	800	384
15204352	1168	496
15466496	768	400
15728640	784	336
15990784	704	112
16252928	512	80
16515072	416	32
16777216	1232	144
17301504	2608	1744
17825792	2816	1872
18350080	3248	2400
18874368	3952	2944
19398656	2736	1824
19922944	2480	1536
20447232	1712	832
20971520	1232	176
21495808	896	64
22020096	1040	64
22544384	1072	48
23068672	1152	80
23592960	992	160
24117248	1264	96
24641536	1216	48
25165824	1296	288
25690112	1104	80
26214400	1296	48
26738688	1424	48
27262976	1312	112
27787264	1952	416
28311552	1680	1040
28835840	2080	1584
29360128	3152	2368
29884416	6464	5216
30408704	47568	41808
30932992	9616	8736
31457280	5408	4752
31981568	6720	6048
32505856	8416	7648
33030144	46496	43040
33554432	20112	18416
34603008	21536	19776
35651584	18240	16752
36700160	17632	16576
37748736	52624	48672
38797312	11168	10608
39845888	12000	11520
40894464	12992	12432
41943040	9136	8976
42991616	5344	5136
44040192	4704	4640
45088768	2592	2592
46137344	944	944
47185920	368	368
48234496	368	368
49283072	288	288
50331648	352	352
51380224	256	256
52428800	256	256
53477376	240	240
54525952	368	368
55574528	288	288
56623104	272	272
57671680	208	192
58720256	16	16
59768832	16	16
60817408	0	0
61865984	48	48
62914560	0	0
63963136	160	160
65011712	1440	1280
66060288	880	848
67108864	1968	1936
69206016	2944	2896
71303168	3040	3024
73400320	2688	2640
75497472	1264	1248
77594624	544	544
79691776	752	720
81788928	416	416
83886080	80	80
85983232	80	80
88080384	256	256
90177536	96	96
92274688	2384	96
94371840	5872	16
96468992	6512	16
98566144	3872	0
100663296	3344	16
102760448	5136	0
104857600	39984	37456
106954752	16	16
109051904	0	0
111149056	32	32
113246208	0	0
115343360	0	0
117440512	0	0
119537664	64	64
121634816	224	224
123731968	896	896
125829120	608	608
127926272	1200	1200
130023424	6400	6400
132120576	20336	20336
134217728	10000	8928
138412032	128	80
142606336	32	32
146800640	64	64
150994944	32	32
155189248	64	0
159383552	64	0
163577856	1296	0
167772160	3424	32
171966464	4464	3952
176160768	6960	4880
180355072	2176	0
184549376	2224	0
188743680	1696	0
192937984	560	0
197132288	0	0
201326592	992	144
205520896	2032	112
209715200	64	64
213909504	32	32
218103808	0	0
222298112	0	0
226492416	0	0
230686720	0	0
234881024	0	0
239075328	0	0
243269632	0	0
247463936	0	0
251658240	0	0
255852544	0	0
260046848	0	0
264241152	0	0
268435456	0	0
276824064	0	0
285212672	0	0
293601280	0	0
301989888	0	0
310378496	0	0
318767104	0	0
327155712	0	0
335544320	0	0
343932928	0	0
352321536	0	0
360710144	0	0
369098752	0	0
377487360	0	0
385875968	0	0
394264576	0	0
402653184	0	0
411041792	0	0
419430400	0	0
427819008	0	0
436207616	0	0
444596224	0	0
452984832	0	0
461373440	0	0
469762048	0	0
478150656	0	0
486539264	0	0
494927872	0	0
503316480	0	0
511705088	0	0
520093696	0	0
528482304	0	0
536870912	0	0
553648128	0	0
570425344	0	0
587202560	0	0
603979776	0	0
620756992	0	0
637534208	0	0
654311424	0	0
671088640	0	0
687865856	0	0
704643072	0	0
721420288	0	0
738197504	0	0
754974720	0	0
771751936	0	0
788529152	0	0
805306368	0	0
822083584	0	0
838860800	0	0
855638016	0	0
872415232	0	0
889192448	0	0
905969664	0	0
922746880	0	0
939524096	0	0
956301312	0	0
973078528	0	0
989855744	0	0
1006632960	0	0
1023410176	0	0
1040187392	0	0
1056964608	0	0
1073741824	0	0
1107296256	0	0
1140850688	0	0
1174405120	0	0
1207959552	0	0
1241513984	0	0
1275068416	0	0
1308622848	0	0
1342177280	0	0
1375731712	0	0
1409286144	0	0
1442840576	0	0
1476395008	0	0
1509949440	0	0
1543503872	0	0
1577058304	0	0
1610612736	0	0
1644167168	0	0
1677721600	0	0
1711276032	0	0
1744830464	0	0
1778384896	0	0
1811939328	0	0
1845493760	0	0
1879048192	0	0
1912602624	0	0
1946157056	0	0
1979711488	0	0
2013265920	0	0
2046820352	0	0
2080374784	0	0
2113929216	0	0
2147483648	0	0
2214592512	0	0
2281701376	0	0
2348810240	0	0
2415919104	0	0
2483027968	0	0
2550136832	0	0
2617245696	0	0
2684354560	0	0
2751463424	0	0
2818572288	0	0
2885681152	0	0
2952790016	0	0
3019898880	0	0
3087007744	0	0
3154116608	0	0
3221225472	0	0
3288334336	0	0
3355443200	0	0
3422552064	0	0
3489660928	0	0
3556769792	0	0
3623878656	0	0
3690987520	0	0
3758096384	0	0
3825205248	0	0
3892314112	0	0
3959422976	0	0
4026531840	0	0
4093640704	0	0
4160749568	0	0
4227858432	0	0
~~~~~~~~~~Reuse Distance Profiler output end~~~~~~~~~~

Sampler size:45180

DRAM Statistics
 CHANNEL 0
 RQ ROW_BUFFER_HIT:     126593  ROW_BUFFER_MISS:    1127254
 DBUS AVG_CONGESTED_CYCLE:    3.95349
 WQ ROW_BUFFER_HIT:      79332  ROW_BUFFER_MISS:     534693  FULL:          0


CPU 0 Branch Prediction Accuracy: 86.2373% MPKI: 5.69618 Average ROB Occupancy at Mispredict: 87.6855
Branch type MPKI
BRANCH_DIRECT_JUMP: 0.000114
BRANCH_INDIRECT: 0.00154467
BRANCH_CONDITIONAL: 5.59207
BRANCH_DIRECT_CALL: 0.000199333
BRANCH_INDIRECT_CALL: 0.0317653
BRANCH_RETURN: 0.070492

