
*** ChampSim Multicore Out-of-Order Simulator ***

Warmup Instructions: 50000000
Simulation Instructions: 1500000000
Number of CPUs: 1
Off-chip DRAM Size: 4 GiB Channels: 1 Width: 64-bit Data Rate: 3200 MT/s

VirtualMemory physical capacity: 8588881920 num_ppages: 2096895
VirtualMemory page size: 4096 log2_page_size: 12

CPU 0 runs /s/traces/champsim_traces/641.leela_s-862B.champsimtrace.xz
CPU 0 Bimodal branch predictor
Basic BTB sets: 1024 ways: 8 indirect buffer size: 4096 RAS size: 64
Initializing LRU.
Initializing LRU.
Initializing LRU.
Initializing LRU.
Initializing rdLRU.
Initializing LRU.
Initializing LRU.
Heartbeat CPU 0 instructions: 2000001 cycles: 501498 heartbeat IPC: 3.98805 cumulative IPC: 3.98805 (Simulation time: 0 hr 1 min 1 sec) 
Heartbeat CPU 0 instructions: 4000002 cycles: 1002832 heartbeat IPC: 3.98936 cumulative IPC: 3.98871 (Simulation time: 0 hr 2 min 3 sec) 
Heartbeat CPU 0 instructions: 6000000 cycles: 1504833 heartbeat IPC: 3.98405 cumulative IPC: 3.98715 (Simulation time: 0 hr 3 min 6 sec) 
Heartbeat CPU 0 instructions: 8000000 cycles: 2006834 heartbeat IPC: 3.98406 cumulative IPC: 3.98638 (Simulation time: 0 hr 4 min 4 sec) 
Heartbeat CPU 0 instructions: 10000001 cycles: 2508168 heartbeat IPC: 3.98936 cumulative IPC: 3.98697 (Simulation time: 0 hr 5 min 2 sec) 
Heartbeat CPU 0 instructions: 12000001 cycles: 3010169 heartbeat IPC: 3.98406 cumulative IPC: 3.98649 (Simulation time: 0 hr 6 min 8 sec) 
Heartbeat CPU 0 instructions: 14000000 cycles: 3511503 heartbeat IPC: 3.98935 cumulative IPC: 3.9869 (Simulation time: 0 hr 7 min 17 sec) 
Heartbeat CPU 0 instructions: 16000000 cycles: 4013515 heartbeat IPC: 3.98397 cumulative IPC: 3.98653 (Simulation time: 0 hr 8 min 21 sec) 
Heartbeat CPU 0 instructions: 18000002 cycles: 4514849 heartbeat IPC: 3.98936 cumulative IPC: 3.98684 (Simulation time: 0 hr 9 min 23 sec) 
Heartbeat CPU 0 instructions: 20000002 cycles: 5016856 heartbeat IPC: 3.98401 cumulative IPC: 3.98656 (Simulation time: 0 hr 10 min 29 sec) 
Heartbeat CPU 0 instructions: 22000000 cycles: 5518227 heartbeat IPC: 3.98906 cumulative IPC: 3.98679 (Simulation time: 0 hr 11 min 32 sec) 
Heartbeat CPU 0 instructions: 24000000 cycles: 6020231 heartbeat IPC: 3.98403 cumulative IPC: 3.98656 (Simulation time: 0 hr 12 min 35 sec) 
Heartbeat CPU 0 instructions: 26000003 cycles: 6521567 heartbeat IPC: 3.98935 cumulative IPC: 3.98677 (Simulation time: 0 hr 13 min 40 sec) 
Heartbeat CPU 0 instructions: 28000000 cycles: 7023579 heartbeat IPC: 3.98396 cumulative IPC: 3.98657 (Simulation time: 0 hr 14 min 44 sec) 
Heartbeat CPU 0 instructions: 30000002 cycles: 7525582 heartbeat IPC: 3.98404 cumulative IPC: 3.9864 (Simulation time: 0 hr 15 min 51 sec) 
Heartbeat CPU 0 instructions: 32000000 cycles: 8026917 heartbeat IPC: 3.98934 cumulative IPC: 3.98659 (Simulation time: 0 hr 16 min 55 sec) 
Heartbeat CPU 0 instructions: 34000001 cycles: 8528920 heartbeat IPC: 3.98404 cumulative IPC: 3.98644 (Simulation time: 0 hr 18 min 0 sec) 
Heartbeat CPU 0 instructions: 36000000 cycles: 9030256 heartbeat IPC: 3.98934 cumulative IPC: 3.9866 (Simulation time: 0 hr 19 min 3 sec) 
Heartbeat CPU 0 instructions: 38000001 cycles: 9531592 heartbeat IPC: 3.98934 cumulative IPC: 3.98674 (Simulation time: 0 hr 20 min 5 sec) 
Heartbeat CPU 0 instructions: 40000000 cycles: 10033596 heartbeat IPC: 3.98403 cumulative IPC: 3.98661 (Simulation time: 0 hr 21 min 12 sec) 
Heartbeat CPU 0 instructions: 42000001 cycles: 10534950 heartbeat IPC: 3.9892 cumulative IPC: 3.98673 (Simulation time: 0 hr 22 min 20 sec) 
Heartbeat CPU 0 instructions: 44000003 cycles: 11036954 heartbeat IPC: 3.98404 cumulative IPC: 3.98661 (Simulation time: 0 hr 23 min 26 sec) 
Heartbeat CPU 0 instructions: 46000002 cycles: 11538958 heartbeat IPC: 3.98403 cumulative IPC: 3.9865 (Simulation time: 0 hr 24 min 34 sec) 
Heartbeat CPU 0 instructions: 48000002 cycles: 12040294 heartbeat IPC: 3.98934 cumulative IPC: 3.98661 (Simulation time: 0 hr 25 min 41 sec) 
Heartbeat CPU 0 instructions: 50000000 cycles: 12541629 heartbeat IPC: 3.98934 cumulative IPC: 3.98672 (Simulation time: 0 hr 26 min 45 sec) 

Warmup complete CPU 0 instructions: 50000004 cycles: 12541630 (Simulation time: 0 hr 26 min 45 sec) 

Heartbeat CPU 0 instructions: 52000003 cycles: 14559638 heartbeat IPC: 0.991077 cumulative IPC: 0.991076 (Simulation time: 0 hr 27 min 50 sec) 

Region of Interest Statistics
cpu0_DTLB TOTAL     ACCESS:     383785  HIT:     382861  MISS:        924
cpu0_DTLB LOAD      ACCESS:     267655  HIT:     266769  MISS:        886
cpu0_DTLB RFO       ACCESS:     116130  HIT:     116092  MISS:         38
cpu0_DTLB PREFETCH  ACCESS:          0  HIT:          0  MISS:          0
cpu0_DTLB WRITEBACK ACCESS:          0  HIT:          0  MISS:          0
cpu0_ITLB TOTAL     ACCESS:     225803  HIT:     225803  MISS:          0
cpu0_ITLB LOAD      ACCESS:     225803  HIT:     225803  MISS:          0
cpu0_ITLB RFO       ACCESS:          0  HIT:          0  MISS:          0
cpu0_ITLB PREFETCH  ACCESS:          0  HIT:          0  MISS:          0
cpu0_ITLB WRITEBACK ACCESS:          0  HIT:          0  MISS:          0
cpu0_L1I TOTAL     ACCESS:     117337  HIT:     117240  MISS:         97
cpu0_L1I LOAD      ACCESS:     117337  HIT:     117240  MISS:         97
cpu0_L1I RFO       ACCESS:          0  HIT:          0  MISS:          0
cpu0_L1I PREFETCH  ACCESS:          0  HIT:          0  MISS:          0
cpu0_L1I WRITEBACK ACCESS:          0  HIT:          0  MISS:          0
cpu0_STLB TOTAL     ACCESS:        924  HIT:        923  MISS:          1
cpu0_STLB LOAD      ACCESS:        886  HIT:        885  MISS:          1
cpu0_STLB RFO       ACCESS:         38  HIT:         38  MISS:          0
cpu0_STLB PREFETCH  ACCESS:          0  HIT:          0  MISS:          0
cpu0_STLB WRITEBACK ACCESS:          0  HIT:          0  MISS:          0
cpu0_L1D TOTAL     ACCESS:     546074  HIT:     542561  MISS:       3513
cpu0_L1D LOAD      ACCESS:     316300  HIT:     313115  MISS:       3185
cpu0_L1D RFO       ACCESS:     229773  HIT:     229446  MISS:        327
cpu0_L1D PREFETCH  ACCESS:          0  HIT:          0  MISS:          0
cpu0_L1D WRITEBACK ACCESS:          0  HIT:          0  MISS:          0
cpu0_L2C TOTAL     ACCESS:       4180  HIT:       1354  MISS:       2826
cpu0_L2C LOAD      ACCESS:       3282  HIT:        877  MISS:       2405
cpu0_L2C RFO       ACCESS:        327  HIT:        170  MISS:        157
cpu0_L2C PREFETCH  ACCESS:          0  HIT:          0  MISS:          0
cpu0_L2C WRITEBACK ACCESS:        570  HIT:        307  MISS:        263
LLC TOTAL     ACCESS:       3020  HIT:       2993  MISS:         27
LLC LOAD      ACCESS:       2405  HIT:       2378  MISS:         27
LLC RFO       ACCESS:        157  HIT:        157  MISS:          0
LLC PREFETCH  ACCESS:          0  HIT:          0  MISS:          0
LLC WRITEBACK ACCESS:        457  HIT:        457  MISS:          0
Heartbeat CPU 0 instructions: 54000000 cycles: 16545821 heartbeat IPC: 1.00696 cumulative IPC: 0.998952 (Simulation time: 0 hr 28 min 53 sec) 

Region of Interest Statistics
cpu0_DTLB TOTAL     ACCESS:     764291  HIT:     762497  MISS:       1794
cpu0_DTLB LOAD      ACCESS:     531356  HIT:     529640  MISS:       1716
cpu0_DTLB RFO       ACCESS:     232935  HIT:     232857  MISS:         78
cpu0_DTLB PREFETCH  ACCESS:          0  HIT:          0  MISS:          0
cpu0_DTLB WRITEBACK ACCESS:          0  HIT:          0  MISS:          0
cpu0_ITLB TOTAL     ACCESS:     449557  HIT:     449557  MISS:          0
cpu0_ITLB LOAD      ACCESS:     449557  HIT:     449557  MISS:          0
cpu0_ITLB RFO       ACCESS:          0  HIT:          0  MISS:          0
cpu0_ITLB PREFETCH  ACCESS:          0  HIT:          0  MISS:          0
cpu0_ITLB WRITEBACK ACCESS:          0  HIT:          0  MISS:          0
cpu0_L1I TOTAL     ACCESS:     237162  HIT:     236972  MISS:        190
cpu0_L1I LOAD      ACCESS:     237162  HIT:     236972  MISS:        190
cpu0_L1I RFO       ACCESS:          0  HIT:          0  MISS:          0
cpu0_L1I PREFETCH  ACCESS:          0  HIT:          0  MISS:          0
cpu0_L1I WRITEBACK ACCESS:          0  HIT:          0  MISS:          0
cpu0_STLB TOTAL     ACCESS:       1794  HIT:       1792  MISS:          2
cpu0_STLB LOAD      ACCESS:       1716  HIT:       1714  MISS:          2
cpu0_STLB RFO       ACCESS:         78  HIT:         78  MISS:          0
cpu0_STLB PREFETCH  ACCESS:          0  HIT:          0  MISS:          0
cpu0_STLB WRITEBACK ACCESS:          0  HIT:          0  MISS:          0
cpu0_L1D TOTAL     ACCESS:    1092819  HIT:    1086176  MISS:       6643
cpu0_L1D LOAD      ACCESS:     630627  HIT:     624581  MISS:       6046
cpu0_L1D RFO       ACCESS:     462190  HIT:     461594  MISS:        596
cpu0_L1D PREFETCH  ACCESS:          0  HIT:          0  MISS:          0
cpu0_L1D WRITEBACK ACCESS:          0  HIT:          0  MISS:          0
cpu0_L2C TOTAL     ACCESS:       7903  HIT:       2684  MISS:       5219
cpu0_L2C LOAD      ACCESS:       6236  HIT:       1780  MISS:       4456
cpu0_L2C RFO       ACCESS:        596  HIT:        307  MISS:        289
cpu0_L2C PREFETCH  ACCESS:          0  HIT:          0  MISS:          0
cpu0_L2C WRITEBACK ACCESS:       1070  HIT:        597  MISS:        473
LLC TOTAL     ACCESS:       5593  HIT:       5549  MISS:         44
LLC LOAD      ACCESS:       4456  HIT:       4412  MISS:         44
LLC RFO       ACCESS:        289  HIT:        289  MISS:          0
LLC PREFETCH  ACCESS:          0  HIT:          0  MISS:          0
LLC WRITEBACK ACCESS:        847  HIT:        847  MISS:          0
Heartbeat CPU 0 instructions: 56000000 cycles: 18554265 heartbeat IPC: 0.995796 cumulative IPC: 0.997898 (Simulation time: 0 hr 29 min 57 sec) 

Region of Interest Statistics
cpu0_DTLB TOTAL     ACCESS:    1148192  HIT:    1145617  MISS:       2575
cpu0_DTLB LOAD      ACCESS:     800527  HIT:     798051  MISS:       2476
cpu0_DTLB RFO       ACCESS:     347665  HIT:     347566  MISS:         99
cpu0_DTLB PREFETCH  ACCESS:          0  HIT:          0  MISS:          0
cpu0_DTLB WRITEBACK ACCESS:          0  HIT:          0  MISS:          0
cpu0_ITLB TOTAL     ACCESS:     675010  HIT:     675010  MISS:          0
cpu0_ITLB LOAD      ACCESS:     675010  HIT:     675010  MISS:          0
cpu0_ITLB RFO       ACCESS:          0  HIT:          0  MISS:          0
cpu0_ITLB PREFETCH  ACCESS:          0  HIT:          0  MISS:          0
cpu0_ITLB WRITEBACK ACCESS:          0  HIT:          0  MISS:          0
cpu0_L1I TOTAL     ACCESS:     362645  HIT:     362392  MISS:        253
cpu0_L1I LOAD      ACCESS:     362645  HIT:     362392  MISS:        253
cpu0_L1I RFO       ACCESS:          0  HIT:          0  MISS:          0
cpu0_L1I PREFETCH  ACCESS:          0  HIT:          0  MISS:          0
cpu0_L1I WRITEBACK ACCESS:          0  HIT:          0  MISS:          0
cpu0_STLB TOTAL     ACCESS:       2575  HIT:       2572  MISS:          3
cpu0_STLB LOAD      ACCESS:       2476  HIT:       2473  MISS:          3
cpu0_STLB RFO       ACCESS:         99  HIT:         99  MISS:          0
cpu0_STLB PREFETCH  ACCESS:          0  HIT:          0  MISS:          0
cpu0_STLB WRITEBACK ACCESS:          0  HIT:          0  MISS:          0
cpu0_L1D TOTAL     ACCESS:    1644589  HIT:    1635592  MISS:       8997
cpu0_L1D LOAD      ACCESS:     952681  HIT:     944473  MISS:       8208
cpu0_L1D RFO       ACCESS:     691905  HIT:     691118  MISS:        787
cpu0_L1D PREFETCH  ACCESS:          0  HIT:          0  MISS:          0
cpu0_L1D WRITEBACK ACCESS:          0  HIT:          0  MISS:          0
cpu0_L2C TOTAL     ACCESS:      10674  HIT:       3648  MISS:       7026
cpu0_L2C LOAD      ACCESS:       8461  HIT:       2451  MISS:       6010
cpu0_L2C RFO       ACCESS:        787  HIT:        411  MISS:        376
cpu0_L2C PREFETCH  ACCESS:          0  HIT:          0  MISS:          0
cpu0_L2C WRITEBACK ACCESS:       1424  HIT:        785  MISS:        639
LLC TOTAL     ACCESS:       7508  HIT:       7442  MISS:         66
LLC LOAD      ACCESS:       6010  HIT:       5944  MISS:         66
LLC RFO       ACCESS:        376  HIT:        376  MISS:          0
LLC PREFETCH  ACCESS:          0  HIT:          0  MISS:          0
LLC WRITEBACK ACCESS:       1121  HIT:       1121  MISS:          0
Heartbeat CPU 0 instructions: 58000000 cycles: 20563628 heartbeat IPC: 0.99534 cumulative IPC: 0.997257 (Simulation time: 0 hr 30 min 59 sec) 

Region of Interest Statistics
cpu0_DTLB TOTAL     ACCESS:    1531079  HIT:    1527623  MISS:       3456
cpu0_DTLB LOAD      ACCESS:    1067113  HIT:    1063788  MISS:       3325
cpu0_DTLB RFO       ACCESS:     463966  HIT:     463835  MISS:        131
cpu0_DTLB PREFETCH  ACCESS:          0  HIT:          0  MISS:          0
cpu0_DTLB WRITEBACK ACCESS:          0  HIT:          0  MISS:          0
cpu0_ITLB TOTAL     ACCESS:     900310  HIT:     900310  MISS:          0
cpu0_ITLB LOAD      ACCESS:     900310  HIT:     900310  MISS:          0
cpu0_ITLB RFO       ACCESS:          0  HIT:          0  MISS:          0
cpu0_ITLB PREFETCH  ACCESS:          0  HIT:          0  MISS:          0
cpu0_ITLB WRITEBACK ACCESS:          0  HIT:          0  MISS:          0
cpu0_L1I TOTAL     ACCESS:     483458  HIT:     483113  MISS:        345
cpu0_L1I LOAD      ACCESS:     483458  HIT:     483113  MISS:        345
cpu0_L1I RFO       ACCESS:          0  HIT:          0  MISS:          0
cpu0_L1I PREFETCH  ACCESS:          0  HIT:          0  MISS:          0
cpu0_L1I WRITEBACK ACCESS:          0  HIT:          0  MISS:          0
cpu0_STLB TOTAL     ACCESS:       3456  HIT:       3452  MISS:          4
cpu0_STLB LOAD      ACCESS:       3325  HIT:       3321  MISS:          4
cpu0_STLB RFO       ACCESS:        131  HIT:        131  MISS:          0
cpu0_STLB PREFETCH  ACCESS:          0  HIT:          0  MISS:          0
cpu0_STLB WRITEBACK ACCESS:          0  HIT:          0  MISS:          0
cpu0_L1D TOTAL     ACCESS:    2191071  HIT:    2178967  MISS:      12104
cpu0_L1D LOAD      ACCESS:    1268935  HIT:    1257910  MISS:      11025
cpu0_L1D RFO       ACCESS:     922132  HIT:     921056  MISS:       1076
cpu0_L1D PREFETCH  ACCESS:          0  HIT:          0  MISS:          0
cpu0_L1D WRITEBACK ACCESS:          0  HIT:          0  MISS:          0
cpu0_L2C TOTAL     ACCESS:      14346  HIT:       4970  MISS:       9376
cpu0_L2C LOAD      ACCESS:      11370  HIT:       3343  MISS:       8027
cpu0_L2C RFO       ACCESS:       1076  HIT:        564  MISS:        512
cpu0_L2C PREFETCH  ACCESS:          0  HIT:          0  MISS:          0
cpu0_L2C WRITEBACK ACCESS:       1897  HIT:       1061  MISS:        836
LLC TOTAL     ACCESS:      10009  HIT:       9929  MISS:         80
LLC LOAD      ACCESS:       8027  HIT:       7947  MISS:         80
LLC RFO       ACCESS:        512  HIT:        512  MISS:          0
LLC PREFETCH  ACCESS:          0  HIT:          0  MISS:          0
LLC WRITEBACK ACCESS:       1469  HIT:       1469  MISS:          0
Heartbeat CPU 0 instructions: 60000002 cycles: 22559107 heartbeat IPC: 1.00227 cumulative IPC: 0.998255 (Simulation time: 0 hr 31 min 59 sec) 

Region of Interest Statistics
cpu0_DTLB TOTAL     ACCESS:    1911441  HIT:    1907149  MISS:       4292
cpu0_DTLB LOAD      ACCESS:    1331412  HIT:    1327287  MISS:       4125
cpu0_DTLB RFO       ACCESS:     580029  HIT:     579862  MISS:        167
cpu0_DTLB PREFETCH  ACCESS:          0  HIT:          0  MISS:          0
cpu0_DTLB WRITEBACK ACCESS:          0  HIT:          0  MISS:          0
cpu0_ITLB TOTAL     ACCESS:    1124678  HIT:    1124678  MISS:          0
cpu0_ITLB LOAD      ACCESS:    1124678  HIT:    1124678  MISS:          0
cpu0_ITLB RFO       ACCESS:          0  HIT:          0  MISS:          0
cpu0_ITLB PREFETCH  ACCESS:          0  HIT:          0  MISS:          0
cpu0_ITLB WRITEBACK ACCESS:          0  HIT:          0  MISS:          0
cpu0_L1I TOTAL     ACCESS:     601572  HIT:     601144  MISS:        428
cpu0_L1I LOAD      ACCESS:     601572  HIT:     601144  MISS:        428
cpu0_L1I RFO       ACCESS:          0  HIT:          0  MISS:          0
cpu0_L1I PREFETCH  ACCESS:          0  HIT:          0  MISS:          0
cpu0_L1I WRITEBACK ACCESS:          0  HIT:          0  MISS:          0
cpu0_STLB TOTAL     ACCESS:       4292  HIT:       4288  MISS:          4
cpu0_STLB LOAD      ACCESS:       4125  HIT:       4121  MISS:          4
cpu0_STLB RFO       ACCESS:        167  HIT:        167  MISS:          0
cpu0_STLB PREFETCH  ACCESS:          0  HIT:          0  MISS:          0
cpu0_STLB WRITEBACK ACCESS:          0  HIT:          0  MISS:          0
cpu0_L1D TOTAL     ACCESS:    2735832  HIT:    2720495  MISS:      15337
cpu0_L1D LOAD      ACCESS:    1582226  HIT:    1568235  MISS:      13991
cpu0_L1D RFO       ACCESS:    1153602  HIT:    1152259  MISS:       1343
cpu0_L1D PREFETCH  ACCESS:          0  HIT:          0  MISS:          0
cpu0_L1D WRITEBACK ACCESS:          0  HIT:          0  MISS:          0
cpu0_L2C TOTAL     ACCESS:      18176  HIT:       6325  MISS:      11851
cpu0_L2C LOAD      ACCESS:      14419  HIT:       4262  MISS:      10157
cpu0_L2C RFO       ACCESS:       1343  HIT:        704  MISS:        639
cpu0_L2C PREFETCH  ACCESS:          0  HIT:          0  MISS:          0
cpu0_L2C WRITEBACK ACCESS:       2411  HIT:       1357  MISS:       1054
LLC TOTAL     ACCESS:      12668  HIT:      12573  MISS:         95
LLC LOAD      ACCESS:      10157  HIT:      10062  MISS:         95
LLC RFO       ACCESS:        639  HIT:        639  MISS:          0
LLC PREFETCH  ACCESS:          0  HIT:          0  MISS:          0
LLC WRITEBACK ACCESS:       1871  HIT:       1871  MISS:          0
Heartbeat CPU 0 instructions: 62000000 cycles: 24574729 heartbeat IPC: 0.992249 cumulative IPC: 0.997249 (Simulation time: 0 hr 33 min 4 sec) 

Region of Interest Statistics
cpu0_DTLB TOTAL     ACCESS:    2294245  HIT:    2289103  MISS:       5142
cpu0_DTLB LOAD      ACCESS:    1598789  HIT:    1593858  MISS:       4931
cpu0_DTLB RFO       ACCESS:     695456  HIT:     695245  MISS:        211
cpu0_DTLB PREFETCH  ACCESS:          0  HIT:          0  MISS:          0
cpu0_DTLB WRITEBACK ACCESS:          0  HIT:          0  MISS:          0
cpu0_ITLB TOTAL     ACCESS:    1349026  HIT:    1349026  MISS:          0
cpu0_ITLB LOAD      ACCESS:    1349026  HIT:    1349026  MISS:          0
cpu0_ITLB RFO       ACCESS:          0  HIT:          0  MISS:          0
cpu0_ITLB PREFETCH  ACCESS:          0  HIT:          0  MISS:          0
cpu0_ITLB WRITEBACK ACCESS:          0  HIT:          0  MISS:          0
cpu0_L1I TOTAL     ACCESS:     726449  HIT:     725958  MISS:        491
cpu0_L1I LOAD      ACCESS:     726449  HIT:     725958  MISS:        491
cpu0_L1I RFO       ACCESS:          0  HIT:          0  MISS:          0
cpu0_L1I PREFETCH  ACCESS:          0  HIT:          0  MISS:          0
cpu0_L1I WRITEBACK ACCESS:          0  HIT:          0  MISS:          0
cpu0_STLB TOTAL     ACCESS:       5142  HIT:       5137  MISS:          5
cpu0_STLB LOAD      ACCESS:       4931  HIT:       4926  MISS:          5
cpu0_STLB RFO       ACCESS:        211  HIT:        211  MISS:          0
cpu0_STLB PREFETCH  ACCESS:          0  HIT:          0  MISS:          0
cpu0_STLB WRITEBACK ACCESS:          0  HIT:          0  MISS:          0
cpu0_L1D TOTAL     ACCESS:    3287313  HIT:    3269535  MISS:      17778
cpu0_L1D LOAD      ACCESS:    1901224  HIT:    1884978  MISS:      16246
cpu0_L1D RFO       ACCESS:    1386084  HIT:    1384556  MISS:       1528
cpu0_L1D PREFETCH  ACCESS:          0  HIT:          0  MISS:          0
cpu0_L1D WRITEBACK ACCESS:          0  HIT:          0  MISS:          0
cpu0_L2C TOTAL     ACCESS:      21049  HIT:       7272  MISS:      13777
cpu0_L2C LOAD      ACCESS:      16737  HIT:       4906  MISS:      11831
cpu0_L2C RFO       ACCESS:       1528  HIT:        801  MISS:        727
cpu0_L2C PREFETCH  ACCESS:          0  HIT:          0  MISS:          0
cpu0_L2C WRITEBACK ACCESS:       2780  HIT:       1562  MISS:       1218
LLC TOTAL     ACCESS:      14724  HIT:      14609  MISS:        115
LLC LOAD      ACCESS:      11831  HIT:      11716  MISS:        115
LLC RFO       ACCESS:        727  HIT:        727  MISS:          0
LLC PREFETCH  ACCESS:          0  HIT:          0  MISS:          0
LLC WRITEBACK ACCESS:       2165  HIT:       2165  MISS:          0
Heartbeat CPU 0 instructions: 64000000 cycles: 26582075 heartbeat IPC: 0.99634 cumulative IPC: 0.997119 (Simulation time: 0 hr 34 min 8 sec) 

Region of Interest Statistics
cpu0_DTLB TOTAL     ACCESS:    2676281  HIT:    2670264  MISS:       6017
cpu0_DTLB LOAD      ACCESS:    1865096  HIT:    1859324  MISS:       5772
cpu0_DTLB RFO       ACCESS:     811185  HIT:     810940  MISS:        245
cpu0_DTLB PREFETCH  ACCESS:          0  HIT:          0  MISS:          0
cpu0_DTLB WRITEBACK ACCESS:          0  HIT:          0  MISS:          0
cpu0_ITLB TOTAL     ACCESS:    1573707  HIT:    1573707  MISS:          0
cpu0_ITLB LOAD      ACCESS:    1573707  HIT:    1573707  MISS:          0
cpu0_ITLB RFO       ACCESS:          0  HIT:          0  MISS:          0
cpu0_ITLB PREFETCH  ACCESS:          0  HIT:          0  MISS:          0
cpu0_ITLB WRITEBACK ACCESS:          0  HIT:          0  MISS:          0
cpu0_L1I TOTAL     ACCESS:     845934  HIT:     845351  MISS:        583
cpu0_L1I LOAD      ACCESS:     845934  HIT:     845351  MISS:        583
cpu0_L1I RFO       ACCESS:          0  HIT:          0  MISS:          0
cpu0_L1I PREFETCH  ACCESS:          0  HIT:          0  MISS:          0
cpu0_L1I WRITEBACK ACCESS:          0  HIT:          0  MISS:          0
cpu0_STLB TOTAL     ACCESS:       6017  HIT:       6012  MISS:          5
cpu0_STLB LOAD      ACCESS:       5772  HIT:       5767  MISS:          5
cpu0_STLB RFO       ACCESS:        245  HIT:        245  MISS:          0
cpu0_STLB PREFETCH  ACCESS:          0  HIT:          0  MISS:          0
cpu0_STLB WRITEBACK ACCESS:          0  HIT:          0  MISS:          0
cpu0_L1D TOTAL     ACCESS:    3833635  HIT:    3812642  MISS:      20993
cpu0_L1D LOAD      ACCESS:    2217086  HIT:    2197911  MISS:      19175
cpu0_L1D RFO       ACCESS:    1616544  HIT:    1614730  MISS:       1814
cpu0_L1D PREFETCH  ACCESS:          0  HIT:          0  MISS:          0
cpu0_L1D WRITEBACK ACCESS:          0  HIT:          0  MISS:          0
cpu0_L2C TOTAL     ACCESS:      24864  HIT:       8621  MISS:      16243
cpu0_L2C LOAD      ACCESS:      19758  HIT:       5816  MISS:      13942
cpu0_L2C RFO       ACCESS:       1814  HIT:        948  MISS:        866
cpu0_L2C PREFETCH  ACCESS:          0  HIT:          0  MISS:          0
cpu0_L2C WRITEBACK ACCESS:       3288  HIT:       1854  MISS:       1434
LLC TOTAL     ACCESS:      17364  HIT:      17237  MISS:        127
LLC LOAD      ACCESS:      13942  HIT:      13815  MISS:        127
LLC RFO       ACCESS:        866  HIT:        866  MISS:          0
LLC PREFETCH  ACCESS:          0  HIT:          0  MISS:          0
LLC WRITEBACK ACCESS:       2555  HIT:       2555  MISS:          0
Heartbeat CPU 0 instructions: 66000002 cycles: 28553689 heartbeat IPC: 1.0144 cumulative IPC: 0.999247 (Simulation time: 0 hr 35 min 14 sec) 

Region of Interest Statistics
cpu0_DTLB TOTAL     ACCESS:    3057693  HIT:    3050789  MISS:       6904
cpu0_DTLB LOAD      ACCESS:    2127810  HIT:    2121183  MISS:       6627
cpu0_DTLB RFO       ACCESS:     929883  HIT:     929606  MISS:        277
cpu0_DTLB PREFETCH  ACCESS:          0  HIT:          0  MISS:          0
cpu0_DTLB WRITEBACK ACCESS:          0  HIT:          0  MISS:          0
cpu0_ITLB TOTAL     ACCESS:    1791587  HIT:    1791587  MISS:          0
cpu0_ITLB LOAD      ACCESS:    1791587  HIT:    1791587  MISS:          0
cpu0_ITLB RFO       ACCESS:          0  HIT:          0  MISS:          0
cpu0_ITLB PREFETCH  ACCESS:          0  HIT:          0  MISS:          0
cpu0_ITLB WRITEBACK ACCESS:          0  HIT:          0  MISS:          0
cpu0_L1I TOTAL     ACCESS:     969338  HIT:     968674  MISS:        664
cpu0_L1I LOAD      ACCESS:     969338  HIT:     968674  MISS:        664
cpu0_L1I RFO       ACCESS:          0  HIT:          0  MISS:          0
cpu0_L1I PREFETCH  ACCESS:          0  HIT:          0  MISS:          0
cpu0_L1I WRITEBACK ACCESS:          0  HIT:          0  MISS:          0
cpu0_STLB TOTAL     ACCESS:       6904  HIT:       6891  MISS:         13
cpu0_STLB LOAD      ACCESS:       6627  HIT:       6618  MISS:          9
cpu0_STLB RFO       ACCESS:        277  HIT:        273  MISS:          4
cpu0_STLB PREFETCH  ACCESS:          0  HIT:          0  MISS:          0
cpu0_STLB WRITEBACK ACCESS:          0  HIT:          0  MISS:          0
cpu0_L1D TOTAL     ACCESS:    4370577  HIT:    4345162  MISS:      25415
cpu0_L1D LOAD      ACCESS:    2523787  HIT:    2500852  MISS:      22935
cpu0_L1D RFO       ACCESS:    1846777  HIT:    1844303  MISS:       2474
cpu0_L1D PREFETCH  ACCESS:          0  HIT:          0  MISS:          0
cpu0_L1D WRITEBACK ACCESS:          0  HIT:          0  MISS:          0
cpu0_L2C TOTAL     ACCESS:      30376  HIT:      10589  MISS:      19787
cpu0_L2C LOAD      ACCESS:      23599  HIT:       6920  MISS:      16679
cpu0_L2C RFO       ACCESS:       2474  HIT:       1189  MISS:       1285
cpu0_L2C PREFETCH  ACCESS:          0  HIT:          0  MISS:          0
cpu0_L2C WRITEBACK ACCESS:       4297  HIT:       2477  MISS:       1820
LLC TOTAL     ACCESS:      21243  HIT:      20851  MISS:        392
LLC LOAD      ACCESS:      16679  HIT:      16530  MISS:        149
LLC RFO       ACCESS:       1284  HIT:       1041  MISS:        243
LLC PREFETCH  ACCESS:          0  HIT:          0  MISS:          0
LLC WRITEBACK ACCESS:       3277  HIT:       3277  MISS:          0
Heartbeat CPU 0 instructions: 68000004 cycles: 30575874 heartbeat IPC: 0.98903 cumulative IPC: 0.998101 (Simulation time: 0 hr 36 min 16 sec) 

Region of Interest Statistics
cpu0_DTLB TOTAL     ACCESS:    3443780  HIT:    3435976  MISS:       7804
cpu0_DTLB LOAD      ACCESS:    2396360  HIT:    2388859  MISS:       7501
cpu0_DTLB RFO       ACCESS:    1047420  HIT:    1047117  MISS:        303
cpu0_DTLB PREFETCH  ACCESS:          0  HIT:          0  MISS:          0
cpu0_DTLB WRITEBACK ACCESS:          0  HIT:          0  MISS:          0
cpu0_ITLB TOTAL     ACCESS:    2013404  HIT:    2013404  MISS:          0
cpu0_ITLB LOAD      ACCESS:    2013404  HIT:    2013404  MISS:          0
cpu0_ITLB RFO       ACCESS:          0  HIT:          0  MISS:          0
cpu0_ITLB PREFETCH  ACCESS:          0  HIT:          0  MISS:          0
cpu0_ITLB WRITEBACK ACCESS:          0  HIT:          0  MISS:          0
cpu0_L1I TOTAL     ACCESS:    1090208  HIT:    1089455  MISS:        753
cpu0_L1I LOAD      ACCESS:    1090208  HIT:    1089455  MISS:        753
cpu0_L1I RFO       ACCESS:          0  HIT:          0  MISS:          0
cpu0_L1I PREFETCH  ACCESS:          0  HIT:          0  MISS:          0
cpu0_L1I WRITEBACK ACCESS:          0  HIT:          0  MISS:          0
cpu0_STLB TOTAL     ACCESS:       7804  HIT:       7787  MISS:         17
cpu0_STLB LOAD      ACCESS:       7501  HIT:       7488  MISS:         13
cpu0_STLB RFO       ACCESS:        303  HIT:        299  MISS:          4
cpu0_STLB PREFETCH  ACCESS:          0  HIT:          0  MISS:          0
cpu0_STLB WRITEBACK ACCESS:          0  HIT:          0  MISS:          0
cpu0_L1D TOTAL     ACCESS:    4909172  HIT:    4879148  MISS:      30024
cpu0_L1D LOAD      ACCESS:    2836039  HIT:    2808970  MISS:      27069
cpu0_L1D RFO       ACCESS:    2073116  HIT:    2070168  MISS:       2948
cpu0_L1D PREFETCH  ACCESS:          0  HIT:          0  MISS:          0
cpu0_L1D WRITEBACK ACCESS:          0  HIT:          0  MISS:          0
cpu0_L2C TOTAL     ACCESS:      35950  HIT:      12575  MISS:      23375
cpu0_L2C LOAD      ACCESS:      27822  HIT:       8094  MISS:      19728
cpu0_L2C RFO       ACCESS:       2948  HIT:       1463  MISS:       1485
cpu0_L2C PREFETCH  ACCESS:          0  HIT:          0  MISS:          0
cpu0_L2C WRITEBACK ACCESS:       5173  HIT:       3014  MISS:       2159
LLC TOTAL     ACCESS:      25125  HIT:      24713  MISS:        412
LLC LOAD      ACCESS:      19728  HIT:      19559  MISS:        169
LLC RFO       ACCESS:       1484  HIT:       1241  MISS:        243
LLC PREFETCH  ACCESS:          0  HIT:          0  MISS:          0
LLC WRITEBACK ACCESS:       3910  HIT:       3910  MISS:          0
Heartbeat CPU 0 instructions: 70000001 cycles: 32599048 heartbeat IPC: 0.988544 cumulative IPC: 0.997137 (Simulation time: 0 hr 37 min 18 sec) 

Region of Interest Statistics
cpu0_DTLB TOTAL     ACCESS:    3828310  HIT:    3819703  MISS:       8607
cpu0_DTLB LOAD      ACCESS:    2664406  HIT:    2656124  MISS:       8282
cpu0_DTLB RFO       ACCESS:    1163904  HIT:    1163579  MISS:        325
cpu0_DTLB PREFETCH  ACCESS:          0  HIT:          0  MISS:          0
cpu0_DTLB WRITEBACK ACCESS:          0  HIT:          0  MISS:          0
cpu0_ITLB TOTAL     ACCESS:    2237866  HIT:    2237866  MISS:          0
cpu0_ITLB LOAD      ACCESS:    2237866  HIT:    2237866  MISS:          0
cpu0_ITLB RFO       ACCESS:          0  HIT:          0  MISS:          0
cpu0_ITLB PREFETCH  ACCESS:          0  HIT:          0  MISS:          0
cpu0_ITLB WRITEBACK ACCESS:          0  HIT:          0  MISS:          0
cpu0_L1I TOTAL     ACCESS:    1212546  HIT:    1211728  MISS:        818
cpu0_L1I LOAD      ACCESS:    1212546  HIT:    1211728  MISS:        818
cpu0_L1I RFO       ACCESS:          0  HIT:          0  MISS:          0
cpu0_L1I PREFETCH  ACCESS:          0  HIT:          0  MISS:          0
cpu0_L1I WRITEBACK ACCESS:          0  HIT:          0  MISS:          0
cpu0_STLB TOTAL     ACCESS:       8607  HIT:       8589  MISS:         18
cpu0_STLB LOAD      ACCESS:       8282  HIT:       8268  MISS:         14
cpu0_STLB RFO       ACCESS:        325  HIT:        321  MISS:          4
cpu0_STLB PREFETCH  ACCESS:          0  HIT:          0  MISS:          0
cpu0_STLB WRITEBACK ACCESS:          0  HIT:          0  MISS:          0
cpu0_L1D TOTAL     ACCESS:    5457965  HIT:    5424968  MISS:      32997
cpu0_L1D LOAD      ACCESS:    3152050  HIT:    3122257  MISS:      29793
cpu0_L1D RFO       ACCESS:    2305897  HIT:    2302700  MISS:       3197
cpu0_L1D PREFETCH  ACCESS:          0  HIT:          0  MISS:          0
cpu0_L1D WRITEBACK ACCESS:          0  HIT:          0  MISS:          0
cpu0_L2C TOTAL     ACCESS:      39499  HIT:      13674  MISS:      25825
cpu0_L2C LOAD      ACCESS:      30611  HIT:       8747  MISS:      21864
cpu0_L2C RFO       ACCESS:       3197  HIT:       1604  MISS:       1593
cpu0_L2C PREFETCH  ACCESS:          0  HIT:          0  MISS:          0
cpu0_L2C WRITEBACK ACCESS:       5684  HIT:       3319  MISS:       2365
LLC TOTAL     ACCESS:      27799  HIT:      27368  MISS:        431
LLC LOAD      ACCESS:      21864  HIT:      21676  MISS:        188
LLC RFO       ACCESS:       1592  HIT:       1349  MISS:        243
LLC PREFETCH  ACCESS:          0  HIT:          0  MISS:          0
LLC WRITEBACK ACCESS:       4340  HIT:       4340  MISS:          0
Heartbeat CPU 0 instructions: 72000000 cycles: 34609227 heartbeat IPC: 0.994936 cumulative IPC: 0.996937 (Simulation time: 0 hr 38 min 22 sec) 

Region of Interest Statistics
cpu0_DTLB TOTAL     ACCESS:    4213177  HIT:    4203722  MISS:       9455
cpu0_DTLB LOAD      ACCESS:    2931880  HIT:    2922773  MISS:       9107
cpu0_DTLB RFO       ACCESS:    1281297  HIT:    1280949  MISS:        348
cpu0_DTLB PREFETCH  ACCESS:          0  HIT:          0  MISS:          0
cpu0_DTLB WRITEBACK ACCESS:          0  HIT:          0  MISS:          0
cpu0_ITLB TOTAL     ACCESS:    2462790  HIT:    2462790  MISS:          0
cpu0_ITLB LOAD      ACCESS:    2462790  HIT:    2462790  MISS:          0
cpu0_ITLB RFO       ACCESS:          0  HIT:          0  MISS:          0
cpu0_ITLB PREFETCH  ACCESS:          0  HIT:          0  MISS:          0
cpu0_ITLB WRITEBACK ACCESS:          0  HIT:          0  MISS:          0
cpu0_L1I TOTAL     ACCESS:    1328673  HIT:    1327762  MISS:        911
cpu0_L1I LOAD      ACCESS:    1328673  HIT:    1327762  MISS:        911
cpu0_L1I RFO       ACCESS:          0  HIT:          0  MISS:          0
cpu0_L1I PREFETCH  ACCESS:          0  HIT:          0  MISS:          0
cpu0_L1I WRITEBACK ACCESS:          0  HIT:          0  MISS:          0
cpu0_STLB TOTAL     ACCESS:       9455  HIT:       9436  MISS:         19
cpu0_STLB LOAD      ACCESS:       9107  HIT:       9092  MISS:         15
cpu0_STLB RFO       ACCESS:        348  HIT:        344  MISS:          4
cpu0_STLB PREFETCH  ACCESS:          0  HIT:          0  MISS:          0
cpu0_STLB WRITEBACK ACCESS:          0  HIT:          0  MISS:          0
cpu0_L1D TOTAL     ACCESS:    6001650  HIT:    5964819  MISS:      36831
cpu0_L1D LOAD      ACCESS:    3466430  HIT:    3433156  MISS:      33274
cpu0_L1D RFO       ACCESS:    2535201  HIT:    2531652  MISS:       3549
cpu0_L1D PREFETCH  ACCESS:          0  HIT:          0  MISS:          0
cpu0_L1D WRITEBACK ACCESS:          0  HIT:          0  MISS:          0
cpu0_L2C TOTAL     ACCESS:      44096  HIT:      15209  MISS:      28887
cpu0_L2C LOAD      ACCESS:      34185  HIT:       9722  MISS:      24463
cpu0_L2C RFO       ACCESS:       3549  HIT:       1796  MISS:       1753
cpu0_L2C PREFETCH  ACCESS:          0  HIT:          0  MISS:          0
cpu0_L2C WRITEBACK ACCESS:       6354  HIT:       3687  MISS:       2667
LLC TOTAL     ACCESS:      31041  HIT:      30596  MISS:        445
LLC LOAD      ACCESS:      24463  HIT:      24261  MISS:        202
LLC RFO       ACCESS:       1752  HIT:       1509  MISS:        243
LLC PREFETCH  ACCESS:          0  HIT:          0  MISS:          0
LLC WRITEBACK ACCESS:       4822  HIT:       4822  MISS:          0
Heartbeat CPU 0 instructions: 74000000 cycles: 36680234 heartbeat IPC: 0.965714 cumulative IPC: 0.994258 (Simulation time: 0 hr 39 min 27 sec) 

Region of Interest Statistics
cpu0_DTLB TOTAL     ACCESS:    4600124  HIT:    4589895  MISS:      10229
cpu0_DTLB LOAD      ACCESS:    3204339  HIT:    3194478  MISS:       9861
cpu0_DTLB RFO       ACCESS:    1395785  HIT:    1395417  MISS:        368
cpu0_DTLB PREFETCH  ACCESS:          0  HIT:          0  MISS:          0
cpu0_DTLB WRITEBACK ACCESS:          0  HIT:          0  MISS:          0
cpu0_ITLB TOTAL     ACCESS:    2688891  HIT:    2688891  MISS:          0
cpu0_ITLB LOAD      ACCESS:    2688891  HIT:    2688891  MISS:          0
cpu0_ITLB RFO       ACCESS:          0  HIT:          0  MISS:          0
cpu0_ITLB PREFETCH  ACCESS:          0  HIT:          0  MISS:          0
cpu0_ITLB WRITEBACK ACCESS:          0  HIT:          0  MISS:          0
cpu0_L1I TOTAL     ACCESS:    1452677  HIT:    1451702  MISS:        975
cpu0_L1I LOAD      ACCESS:    1452677  HIT:    1451702  MISS:        975
cpu0_L1I RFO       ACCESS:          0  HIT:          0  MISS:          0
cpu0_L1I PREFETCH  ACCESS:          0  HIT:          0  MISS:          0
cpu0_L1I WRITEBACK ACCESS:          0  HIT:          0  MISS:          0
cpu0_STLB TOTAL     ACCESS:      10229  HIT:      10203  MISS:         26
cpu0_STLB LOAD      ACCESS:       9861  HIT:       9839  MISS:         22
cpu0_STLB RFO       ACCESS:        368  HIT:        364  MISS:          4
cpu0_STLB PREFETCH  ACCESS:          0  HIT:          0  MISS:          0
cpu0_STLB WRITEBACK ACCESS:          0  HIT:          0  MISS:          0
cpu0_L1D TOTAL     ACCESS:    6551734  HIT:    6512154  MISS:      39580
cpu0_L1D LOAD      ACCESS:    3789448  HIT:    3753632  MISS:      35816
cpu0_L1D RFO       ACCESS:    2762260  HIT:    2758507  MISS:       3753
cpu0_L1D PREFETCH  ACCESS:          0  HIT:          0  MISS:          0
cpu0_L1D WRITEBACK ACCESS:          0  HIT:          0  MISS:          0
cpu0_L2C TOTAL     ACCESS:      47344  HIT:      16190  MISS:      31154
cpu0_L2C LOAD      ACCESS:      36791  HIT:      10371  MISS:      26420
cpu0_L2C RFO       ACCESS:       3753  HIT:       1905  MISS:       1848
cpu0_L2C PREFETCH  ACCESS:          0  HIT:          0  MISS:          0
cpu0_L2C WRITEBACK ACCESS:       6789  HIT:       3910  MISS:       2879
LLC TOTAL     ACCESS:      33478  HIT:      32772  MISS:        706
LLC LOAD      ACCESS:      26420  HIT:      25957  MISS:        463
LLC RFO       ACCESS:       1847  HIT:       1604  MISS:        243
LLC PREFETCH  ACCESS:          0  HIT:          0  MISS:          0
LLC WRITEBACK ACCESS:       5204  HIT:       5204  MISS:          0
Heartbeat CPU 0 instructions: 76000000 cycles: 38675480 heartbeat IPC: 1.00238 cumulative IPC: 0.994878 (Simulation time: 0 hr 40 min 31 sec) 

Region of Interest Statistics
cpu0_DTLB TOTAL     ACCESS:    4984223  HIT:    4972975  MISS:      11248
cpu0_DTLB LOAD      ACCESS:    3470188  HIT:    3459343  MISS:      10845
cpu0_DTLB RFO       ACCESS:    1514035  HIT:    1513632  MISS:        403
cpu0_DTLB PREFETCH  ACCESS:          0  HIT:          0  MISS:          0
cpu0_DTLB WRITEBACK ACCESS:          0  HIT:          0  MISS:          0
cpu0_ITLB TOTAL     ACCESS:    2908859  HIT:    2908859  MISS:          0
cpu0_ITLB LOAD      ACCESS:    2908859  HIT:    2908859  MISS:          0
cpu0_ITLB RFO       ACCESS:          0  HIT:          0  MISS:          0
cpu0_ITLB PREFETCH  ACCESS:          0  HIT:          0  MISS:          0
cpu0_ITLB WRITEBACK ACCESS:          0  HIT:          0  MISS:          0
cpu0_L1I TOTAL     ACCESS:    1575536  HIT:    1574473  MISS:       1063
cpu0_L1I LOAD      ACCESS:    1575536  HIT:    1574473  MISS:       1063
cpu0_L1I RFO       ACCESS:          0  HIT:          0  MISS:          0
cpu0_L1I PREFETCH  ACCESS:          0  HIT:          0  MISS:          0
cpu0_L1I WRITEBACK ACCESS:          0  HIT:          0  MISS:          0
cpu0_STLB TOTAL     ACCESS:      11248  HIT:      11221  MISS:         27
cpu0_STLB LOAD      ACCESS:      10845  HIT:      10822  MISS:         23
cpu0_STLB RFO       ACCESS:        403  HIT:        399  MISS:          4
cpu0_STLB PREFETCH  ACCESS:          0  HIT:          0  MISS:          0
cpu0_STLB WRITEBACK ACCESS:          0  HIT:          0  MISS:          0
cpu0_L1D TOTAL     ACCESS:    7087774  HIT:    7043466  MISS:      44308
cpu0_L1D LOAD      ACCESS:    4097426  HIT:    4057371  MISS:      40055
cpu0_L1D RFO       ACCESS:    2990321  HIT:    2986080  MISS:       4241
cpu0_L1D PREFETCH  ACCESS:          0  HIT:          0  MISS:          0
cpu0_L1D WRITEBACK ACCESS:          0  HIT:          0  MISS:          0
cpu0_L2C TOTAL     ACCESS:      53061  HIT:      18179  MISS:      34882
cpu0_L2C LOAD      ACCESS:      41118  HIT:      11594  MISS:      29524
cpu0_L2C RFO       ACCESS:       4241  HIT:       2189  MISS:       2052
cpu0_L2C PREFETCH  ACCESS:          0  HIT:          0  MISS:          0
cpu0_L2C WRITEBACK ACCESS:       7690  HIT:       4391  MISS:       3299
LLC TOTAL     ACCESS:      37411  HIT:      36694  MISS:        717
LLC LOAD      ACCESS:      29524  HIT:      29050  MISS:        474
LLC RFO       ACCESS:       2051  HIT:       1808  MISS:        243
LLC PREFETCH  ACCESS:          0  HIT:          0  MISS:          0
LLC WRITEBACK ACCESS:       5829  HIT:       5829  MISS:          0
Heartbeat CPU 0 instructions: 78000000 cycles: 40695686 heartbeat IPC: 0.989998 cumulative IPC: 0.994528 (Simulation time: 0 hr 41 min 30 sec) 

Region of Interest Statistics
cpu0_DTLB TOTAL     ACCESS:    5376406  HIT:    5364320  MISS:      12086
cpu0_DTLB LOAD      ACCESS:    3745265  HIT:    3733595  MISS:      11670
cpu0_DTLB RFO       ACCESS:    1631141  HIT:    1630725  MISS:        416
cpu0_DTLB PREFETCH  ACCESS:          0  HIT:          0  MISS:          0
cpu0_DTLB WRITEBACK ACCESS:          0  HIT:          0  MISS:          0
cpu0_ITLB TOTAL     ACCESS:    3135365  HIT:    3135365  MISS:          0
cpu0_ITLB LOAD      ACCESS:    3135365  HIT:    3135365  MISS:          0
cpu0_ITLB RFO       ACCESS:          0  HIT:          0  MISS:          0
cpu0_ITLB PREFETCH  ACCESS:          0  HIT:          0  MISS:          0
cpu0_ITLB WRITEBACK ACCESS:          0  HIT:          0  MISS:          0
cpu0_L1I TOTAL     ACCESS:    1693759  HIT:    1692632  MISS:       1127
cpu0_L1I LOAD      ACCESS:    1693759  HIT:    1692632  MISS:       1127
cpu0_L1I RFO       ACCESS:          0  HIT:          0  MISS:          0
cpu0_L1I PREFETCH  ACCESS:          0  HIT:          0  MISS:          0
cpu0_L1I WRITEBACK ACCESS:          0  HIT:          0  MISS:          0
cpu0_STLB TOTAL     ACCESS:      12086  HIT:      12058  MISS:         28
cpu0_STLB LOAD      ACCESS:      11670  HIT:      11646  MISS:         24
cpu0_STLB RFO       ACCESS:        416  HIT:        412  MISS:          4
cpu0_STLB PREFETCH  ACCESS:          0  HIT:          0  MISS:          0
cpu0_STLB WRITEBACK ACCESS:          0  HIT:          0  MISS:          0
cpu0_L1D TOTAL     ACCESS:    7636687  HIT:    7589037  MISS:      47650
cpu0_L1D LOAD      ACCESS:    4417859  HIT:    4374764  MISS:      43095
cpu0_L1D RFO       ACCESS:    3218800  HIT:    3214258  MISS:       4542
cpu0_L1D PREFETCH  ACCESS:          0  HIT:          0  MISS:          0
cpu0_L1D WRITEBACK ACCESS:          0  HIT:          0  MISS:          0
cpu0_L2C TOTAL     ACCESS:      57063  HIT:      19437  MISS:      37626
cpu0_L2C LOAD      ACCESS:      44222  HIT:      12353  MISS:      31869
cpu0_L2C RFO       ACCESS:       4542  HIT:       2361  MISS:       2181
cpu0_L2C PREFETCH  ACCESS:          0  HIT:          0  MISS:          0
cpu0_L2C WRITEBACK ACCESS:       8286  HIT:       4717  MISS:       3569
LLC TOTAL     ACCESS:      40336  HIT:      39597  MISS:        739
LLC LOAD      ACCESS:      31869  HIT:      31373  MISS:        496
LLC RFO       ACCESS:       2180  HIT:       1937  MISS:        243
LLC PREFETCH  ACCESS:          0  HIT:          0  MISS:          0
LLC WRITEBACK ACCESS:       6280  HIT:       6280  MISS:          0
Heartbeat CPU 0 instructions: 80000002 cycles: 42712211 heartbeat IPC: 0.991806 cumulative IPC: 0.994346 (Simulation time: 0 hr 42 min 33 sec) 

Region of Interest Statistics
cpu0_DTLB TOTAL     ACCESS:    5762852  HIT:    5749900  MISS:      12952
cpu0_DTLB LOAD      ACCESS:    4015679  HIT:    4003170  MISS:      12509
cpu0_DTLB RFO       ACCESS:    1747173  HIT:    1746730  MISS:        443
cpu0_DTLB PREFETCH  ACCESS:          0  HIT:          0  MISS:          0
cpu0_DTLB WRITEBACK ACCESS:          0  HIT:          0  MISS:          0
cpu0_ITLB TOTAL     ACCESS:    3362436  HIT:    3362436  MISS:          0
cpu0_ITLB LOAD      ACCESS:    3362436  HIT:    3362436  MISS:          0
cpu0_ITLB RFO       ACCESS:          0  HIT:          0  MISS:          0
cpu0_ITLB PREFETCH  ACCESS:          0  HIT:          0  MISS:          0
cpu0_ITLB WRITEBACK ACCESS:          0  HIT:          0  MISS:          0
cpu0_L1I TOTAL     ACCESS:    1812191  HIT:    1810974  MISS:       1217
cpu0_L1I LOAD      ACCESS:    1812191  HIT:    1810974  MISS:       1217
cpu0_L1I RFO       ACCESS:          0  HIT:          0  MISS:          0
cpu0_L1I PREFETCH  ACCESS:          0  HIT:          0  MISS:          0
cpu0_L1I WRITEBACK ACCESS:          0  HIT:          0  MISS:          0
cpu0_STLB TOTAL     ACCESS:      12952  HIT:      12924  MISS:         28
cpu0_STLB LOAD      ACCESS:      12509  HIT:      12485  MISS:         24
cpu0_STLB RFO       ACCESS:        443  HIT:        439  MISS:          4
cpu0_STLB PREFETCH  ACCESS:          0  HIT:          0  MISS:          0
cpu0_STLB WRITEBACK ACCESS:          0  HIT:          0  MISS:          0
cpu0_L1D TOTAL     ACCESS:    8186117  HIT:    8135385  MISS:      50732
cpu0_L1D LOAD      ACCESS:    4738996  HIT:    4693099  MISS:      45897
cpu0_L1D RFO       ACCESS:    3447093  HIT:    3442271  MISS:       4822
cpu0_L1D PREFETCH  ACCESS:          0  HIT:          0  MISS:          0
cpu0_L1D WRITEBACK ACCESS:          0  HIT:          0  MISS:          0
cpu0_L2C TOTAL     ACCESS:      60709  HIT:      20724  MISS:      39985
cpu0_L2C LOAD      ACCESS:      47114  HIT:      13211  MISS:      33903
cpu0_L2C RFO       ACCESS:       4822  HIT:       2507  MISS:       2315
cpu0_L2C PREFETCH  ACCESS:          0  HIT:          0  MISS:          0
cpu0_L2C WRITEBACK ACCESS:       8760  HIT:       5000  MISS:       3760
LLC TOTAL     ACCESS:      42883  HIT:      42135  MISS:        748
LLC LOAD      ACCESS:      33903  HIT:      33398  MISS:        505
LLC RFO       ACCESS:       2314  HIT:       2071  MISS:        243
LLC PREFETCH  ACCESS:          0  HIT:          0  MISS:          0
LLC WRITEBACK ACCESS:       6659  HIT:       6659  MISS:          0
Heartbeat CPU 0 instructions: 82000000 cycles: 44709055 heartbeat IPC: 1.00158 cumulative IPC: 0.994795 (Simulation time: 0 hr 43 min 34 sec) 

Region of Interest Statistics
cpu0_DTLB TOTAL     ACCESS:    6146143  HIT:    6132392  MISS:      13751
cpu0_DTLB LOAD      ACCESS:    4283025  HIT:    4269742  MISS:      13283
cpu0_DTLB RFO       ACCESS:    1863118  HIT:    1862650  MISS:        468
cpu0_DTLB PREFETCH  ACCESS:          0  HIT:          0  MISS:          0
cpu0_DTLB WRITEBACK ACCESS:          0  HIT:          0  MISS:          0
cpu0_ITLB TOTAL     ACCESS:    3587164  HIT:    3587164  MISS:          0
cpu0_ITLB LOAD      ACCESS:    3587164  HIT:    3587164  MISS:          0
cpu0_ITLB RFO       ACCESS:          0  HIT:          0  MISS:          0
cpu0_ITLB PREFETCH  ACCESS:          0  HIT:          0  MISS:          0
cpu0_ITLB WRITEBACK ACCESS:          0  HIT:          0  MISS:          0
cpu0_L1I TOTAL     ACCESS:    1932065  HIT:    1930783  MISS:       1282
cpu0_L1I LOAD      ACCESS:    1932065  HIT:    1930783  MISS:       1282
cpu0_L1I RFO       ACCESS:          0  HIT:          0  MISS:          0
cpu0_L1I PREFETCH  ACCESS:          0  HIT:          0  MISS:          0
cpu0_L1I WRITEBACK ACCESS:          0  HIT:          0  MISS:          0
cpu0_STLB TOTAL     ACCESS:      13751  HIT:      13723  MISS:         28
cpu0_STLB LOAD      ACCESS:      13283  HIT:      13259  MISS:         24
cpu0_STLB RFO       ACCESS:        468  HIT:        464  MISS:          4
cpu0_STLB PREFETCH  ACCESS:          0  HIT:          0  MISS:          0
cpu0_STLB WRITEBACK ACCESS:          0  HIT:          0  MISS:          0
cpu0_L1D TOTAL     ACCESS:    8737743  HIT:    8684368  MISS:      53375
cpu0_L1D LOAD      ACCESS:    5057398  HIT:    5009060  MISS:      48338
cpu0_L1D RFO       ACCESS:    3680317  HIT:    3675293  MISS:       5024
cpu0_L1D PREFETCH  ACCESS:          0  HIT:          0  MISS:          0
cpu0_L1D WRITEBACK ACCESS:          0  HIT:          0  MISS:          0
cpu0_L2C TOTAL     ACCESS:      63819  HIT:      21759  MISS:      42060
cpu0_L2C LOAD      ACCESS:      49620  HIT:      13903  MISS:      35717
cpu0_L2C RFO       ACCESS:       5024  HIT:       2619  MISS:       2405
cpu0_L2C PREFETCH  ACCESS:          0  HIT:          0  MISS:          0
cpu0_L2C WRITEBACK ACCESS:       9162  HIT:       5231  MISS:       3931
LLC TOTAL     ACCESS:      45118  HIT:      44364  MISS:        754
LLC LOAD      ACCESS:      35717  HIT:      35206  MISS:        511
LLC RFO       ACCESS:       2404  HIT:       2161  MISS:        243
LLC PREFETCH  ACCESS:          0  HIT:          0  MISS:          0
LLC WRITEBACK ACCESS:       6990  HIT:       6990  MISS:          0
Heartbeat CPU 0 instructions: 84000001 cycles: 46675989 heartbeat IPC: 1.01681 cumulative IPC: 0.996064 (Simulation time: 0 hr 44 min 37 sec) 

Region of Interest Statistics
cpu0_DTLB TOTAL     ACCESS:    6525286  HIT:    6510694  MISS:      14592
cpu0_DTLB LOAD      ACCESS:    4545683  HIT:    4531586  MISS:      14097
cpu0_DTLB RFO       ACCESS:    1979603  HIT:    1979108  MISS:        495
cpu0_DTLB PREFETCH  ACCESS:          0  HIT:          0  MISS:          0
cpu0_DTLB WRITEBACK ACCESS:          0  HIT:          0  MISS:          0
cpu0_ITLB TOTAL     ACCESS:    3809760  HIT:    3809760  MISS:          0
cpu0_ITLB LOAD      ACCESS:    3809760  HIT:    3809760  MISS:          0
cpu0_ITLB RFO       ACCESS:          0  HIT:          0  MISS:          0
cpu0_ITLB PREFETCH  ACCESS:          0  HIT:          0  MISS:          0
cpu0_ITLB WRITEBACK ACCESS:          0  HIT:          0  MISS:          0
cpu0_L1I TOTAL     ACCESS:    2053773  HIT:    2052394  MISS:       1379
cpu0_L1I LOAD      ACCESS:    2053773  HIT:    2052394  MISS:       1379
cpu0_L1I RFO       ACCESS:          0  HIT:          0  MISS:          0
cpu0_L1I PREFETCH  ACCESS:          0  HIT:          0  MISS:          0
cpu0_L1I WRITEBACK ACCESS:          0  HIT:          0  MISS:          0
cpu0_STLB TOTAL     ACCESS:      14592  HIT:      14563  MISS:         29
cpu0_STLB LOAD      ACCESS:      14097  HIT:      14072  MISS:         25
cpu0_STLB RFO       ACCESS:        495  HIT:        491  MISS:          4
cpu0_STLB PREFETCH  ACCESS:          0  HIT:          0  MISS:          0
cpu0_STLB WRITEBACK ACCESS:          0  HIT:          0  MISS:          0
cpu0_L1D TOTAL     ACCESS:    9282573  HIT:    9226032  MISS:      56541
cpu0_L1D LOAD      ACCESS:    5369372  HIT:    5318151  MISS:      51221
cpu0_L1D RFO       ACCESS:    3913172  HIT:    3907866  MISS:       5306
cpu0_L1D PREFETCH  ACCESS:          0  HIT:          0  MISS:          0
cpu0_L1D WRITEBACK ACCESS:          0  HIT:          0  MISS:          0
cpu0_L2C TOTAL     ACCESS:      67570  HIT:      23084  MISS:      44486
cpu0_L2C LOAD      ACCESS:      52600  HIT:      14799  MISS:      37801
cpu0_L2C RFO       ACCESS:       5306  HIT:       2771  MISS:       2535
cpu0_L2C PREFETCH  ACCESS:          0  HIT:          0  MISS:          0
cpu0_L2C WRITEBACK ACCESS:       9650  HIT:       5508  MISS:       4142
LLC TOTAL     ACCESS:      47699  HIT:      46936  MISS:        763
LLC LOAD      ACCESS:      37801  HIT:      37281  MISS:        520
LLC RFO       ACCESS:       2534  HIT:       2291  MISS:        243
LLC PREFETCH  ACCESS:          0  HIT:          0  MISS:          0
LLC WRITEBACK ACCESS:       7356  HIT:       7356  MISS:          0
Heartbeat CPU 0 instructions: 86000001 cycles: 48646522 heartbeat IPC: 1.01495 cumulative IPC: 0.997095 (Simulation time: 0 hr 45 min 39 sec) 

Region of Interest Statistics
cpu0_DTLB TOTAL     ACCESS:    6904476  HIT:    6888988  MISS:      15488
cpu0_DTLB LOAD      ACCESS:    4805600  HIT:    4790637  MISS:      14963
cpu0_DTLB RFO       ACCESS:    2098876  HIT:    2098351  MISS:        525
cpu0_DTLB PREFETCH  ACCESS:          0  HIT:          0  MISS:          0
cpu0_DTLB WRITEBACK ACCESS:          0  HIT:          0  MISS:          0
cpu0_ITLB TOTAL     ACCESS:    4027347  HIT:    4027347  MISS:          0
cpu0_ITLB LOAD      ACCESS:    4027347  HIT:    4027347  MISS:          0
cpu0_ITLB RFO       ACCESS:          0  HIT:          0  MISS:          0
cpu0_ITLB PREFETCH  ACCESS:          0  HIT:          0  MISS:          0
cpu0_ITLB WRITEBACK ACCESS:          0  HIT:          0  MISS:          0
cpu0_L1I TOTAL     ACCESS:    2182522  HIT:    2181055  MISS:       1467
cpu0_L1I LOAD      ACCESS:    2182522  HIT:    2181055  MISS:       1467
cpu0_L1I RFO       ACCESS:          0  HIT:          0  MISS:          0
cpu0_L1I PREFETCH  ACCESS:          0  HIT:          0  MISS:          0
cpu0_L1I WRITEBACK ACCESS:          0  HIT:          0  MISS:          0
cpu0_STLB TOTAL     ACCESS:      15488  HIT:      15451  MISS:         37
cpu0_STLB LOAD      ACCESS:      14963  HIT:      14935  MISS:         28
cpu0_STLB RFO       ACCESS:        525  HIT:        516  MISS:          9
cpu0_STLB PREFETCH  ACCESS:          0  HIT:          0  MISS:          0
cpu0_STLB WRITEBACK ACCESS:          0  HIT:          0  MISS:          0
cpu0_L1D TOTAL     ACCESS:    9825684  HIT:    9765365  MISS:      60319
cpu0_L1D LOAD      ACCESS:    5676459  HIT:    5622032  MISS:      54427
cpu0_L1D RFO       ACCESS:    4149188  HIT:    4143312  MISS:       5876
cpu0_L1D PREFETCH  ACCESS:          0  HIT:          0  MISS:          0
cpu0_L1D WRITEBACK ACCESS:          0  HIT:          0  MISS:          0
cpu0_L2C TOTAL     ACCESS:      72256  HIT:      24819  MISS:      47437
cpu0_L2C LOAD      ACCESS:      55894  HIT:      15888  MISS:      40006
cpu0_L2C RFO       ACCESS:       5876  HIT:       2952  MISS:       2924
cpu0_L2C PREFETCH  ACCESS:          0  HIT:          0  MISS:          0
cpu0_L2C WRITEBACK ACCESS:      10470  HIT:       5973  MISS:       4497
LLC TOTAL     ACCESS:      50861  HIT:      49826  MISS:       1035
LLC LOAD      ACCESS:      40006  HIT:      39470  MISS:        536
LLC RFO       ACCESS:       2923  HIT:       2424  MISS:        499
LLC PREFETCH  ACCESS:          0  HIT:          0  MISS:          0
LLC WRITEBACK ACCESS:       7922  HIT:       7922  MISS:          0
Heartbeat CPU 0 instructions: 88000003 cycles: 50645441 heartbeat IPC: 1.00054 cumulative IPC: 0.997276 (Simulation time: 0 hr 46 min 39 sec) 

Region of Interest Statistics
cpu0_DTLB TOTAL     ACCESS:    7293692  HIT:    7277404  MISS:      16288
cpu0_DTLB LOAD      ACCESS:    5076544  HIT:    5060799  MISS:      15745
cpu0_DTLB RFO       ACCESS:    2217148  HIT:    2216605  MISS:        543
cpu0_DTLB PREFETCH  ACCESS:          0  HIT:          0  MISS:          0
cpu0_DTLB WRITEBACK ACCESS:          0  HIT:          0  MISS:          0
cpu0_ITLB TOTAL     ACCESS:    4250965  HIT:    4250965  MISS:          0
cpu0_ITLB LOAD      ACCESS:    4250965  HIT:    4250965  MISS:          0
cpu0_ITLB RFO       ACCESS:          0  HIT:          0  MISS:          0
cpu0_ITLB PREFETCH  ACCESS:          0  HIT:          0  MISS:          0
cpu0_ITLB WRITEBACK ACCESS:          0  HIT:          0  MISS:          0
cpu0_L1I TOTAL     ACCESS:    2301059  HIT:    2299535  MISS:       1524
cpu0_L1I LOAD      ACCESS:    2301059  HIT:    2299535  MISS:       1524
cpu0_L1I RFO       ACCESS:          0  HIT:          0  MISS:          0
cpu0_L1I PREFETCH  ACCESS:          0  HIT:          0  MISS:          0
cpu0_L1I WRITEBACK ACCESS:          0  HIT:          0  MISS:          0
cpu0_STLB TOTAL     ACCESS:      16288  HIT:      16249  MISS:         39
cpu0_STLB LOAD      ACCESS:      15745  HIT:      15715  MISS:         30
cpu0_STLB RFO       ACCESS:        543  HIT:        534  MISS:          9
cpu0_STLB PREFETCH  ACCESS:          0  HIT:          0  MISS:          0
cpu0_STLB WRITEBACK ACCESS:          0  HIT:          0  MISS:          0
cpu0_L1D TOTAL     ACCESS:   10370882  HIT:   10306927  MISS:      63955
cpu0_L1D LOAD      ACCESS:    5991604  HIT:    5933873  MISS:      57731
cpu0_L1D RFO       ACCESS:    4379239  HIT:    4373033  MISS:       6206
cpu0_L1D PREFETCH  ACCESS:          0  HIT:          0  MISS:          0
cpu0_L1D WRITEBACK ACCESS:          0  HIT:          0  MISS:          0
cpu0_L2C TOTAL     ACCESS:      76593  HIT:      26206  MISS:      50387
cpu0_L2C LOAD      ACCESS:      59255  HIT:      16760  MISS:      42495
cpu0_L2C RFO       ACCESS:       6206  HIT:       3134  MISS:       3072
cpu0_L2C PREFETCH  ACCESS:          0  HIT:          0  MISS:          0
cpu0_L2C WRITEBACK ACCESS:      11114  HIT:       6304  MISS:       4810
LLC TOTAL     ACCESS:      54032  HIT:      52980  MISS:       1052
LLC LOAD      ACCESS:      42495  HIT:      41942  MISS:        553
LLC RFO       ACCESS:       3071  HIT:       2572  MISS:        499
LLC PREFETCH  ACCESS:          0  HIT:          0  MISS:          0
LLC WRITEBACK ACCESS:       8456  HIT:       8456  MISS:          0
Heartbeat CPU 0 instructions: 90000003 cycles: 52655340 heartbeat IPC: 0.995075 cumulative IPC: 0.997165 (Simulation time: 0 hr 47 min 39 sec) 

Region of Interest Statistics
cpu0_DTLB TOTAL     ACCESS:    7688154  HIT:    7671025  MISS:      17129
cpu0_DTLB LOAD      ACCESS:    5354458  HIT:    5337894  MISS:      16564
cpu0_DTLB RFO       ACCESS:    2333696  HIT:    2333131  MISS:        565
cpu0_DTLB PREFETCH  ACCESS:          0  HIT:          0  MISS:          0
cpu0_DTLB WRITEBACK ACCESS:          0  HIT:          0  MISS:          0
cpu0_ITLB TOTAL     ACCESS:    4477155  HIT:    4477155  MISS:          0
cpu0_ITLB LOAD      ACCESS:    4477155  HIT:    4477155  MISS:          0
cpu0_ITLB RFO       ACCESS:          0  HIT:          0  MISS:          0
cpu0_ITLB PREFETCH  ACCESS:          0  HIT:          0  MISS:          0
cpu0_ITLB WRITEBACK ACCESS:          0  HIT:          0  MISS:          0
cpu0_L1I TOTAL     ACCESS:    2419811  HIT:    2418233  MISS:       1578
cpu0_L1I LOAD      ACCESS:    2419811  HIT:    2418233  MISS:       1578
cpu0_L1I RFO       ACCESS:          0  HIT:          0  MISS:          0
cpu0_L1I PREFETCH  ACCESS:          0  HIT:          0  MISS:          0
cpu0_L1I WRITEBACK ACCESS:          0  HIT:          0  MISS:          0
cpu0_STLB TOTAL     ACCESS:      17129  HIT:      17088  MISS:         41
cpu0_STLB LOAD      ACCESS:      16564  HIT:      16532  MISS:         32
cpu0_STLB RFO       ACCESS:        565  HIT:        556  MISS:          9
cpu0_STLB PREFETCH  ACCESS:          0  HIT:          0  MISS:          0
cpu0_STLB WRITEBACK ACCESS:          0  HIT:          0  MISS:          0
cpu0_L1D TOTAL     ACCESS:   10917323  HIT:   10849995  MISS:      67328
cpu0_L1D LOAD      ACCESS:    6313529  HIT:    6252738  MISS:      60791
cpu0_L1D RFO       ACCESS:    4603753  HIT:    4597236  MISS:       6517
cpu0_L1D PREFETCH  ACCESS:          0  HIT:          0  MISS:          0
cpu0_L1D WRITEBACK ACCESS:          0  HIT:          0  MISS:          0
cpu0_L2C TOTAL     ACCESS:      80611  HIT:      27538  MISS:      53073
cpu0_L2C LOAD      ACCESS:      62369  HIT:      17604  MISS:      44765
cpu0_L2C RFO       ACCESS:       6517  HIT:       3319  MISS:       3198
cpu0_L2C PREFETCH  ACCESS:          0  HIT:          0  MISS:          0
cpu0_L2C WRITEBACK ACCESS:      11705  HIT:       6605  MISS:       5100
LLC TOTAL     ACCESS:      56863  HIT:      55799  MISS:       1064
LLC LOAD      ACCESS:      44765  HIT:      44200  MISS:        565
LLC RFO       ACCESS:       3197  HIT:       2698  MISS:        499
LLC PREFETCH  ACCESS:          0  HIT:          0  MISS:          0
LLC WRITEBACK ACCESS:       8891  HIT:       8891  MISS:          0
Heartbeat CPU 0 instructions: 92000000 cycles: 54679362 heartbeat IPC: 0.98813 cumulative IPC: 0.996731 (Simulation time: 0 hr 48 min 42 sec) 

Region of Interest Statistics
cpu0_DTLB TOTAL     ACCESS:    8075464  HIT:    8057395  MISS:      18069
cpu0_DTLB LOAD      ACCESS:    5624468  HIT:    5606986  MISS:      17482
cpu0_DTLB RFO       ACCESS:    2450996  HIT:    2450409  MISS:        587
cpu0_DTLB PREFETCH  ACCESS:          0  HIT:          0  MISS:          0
cpu0_DTLB WRITEBACK ACCESS:          0  HIT:          0  MISS:          0
cpu0_ITLB TOTAL     ACCESS:    4700574  HIT:    4700574  MISS:          0
cpu0_ITLB LOAD      ACCESS:    4700574  HIT:    4700574  MISS:          0
cpu0_ITLB RFO       ACCESS:          0  HIT:          0  MISS:          0
cpu0_ITLB PREFETCH  ACCESS:          0  HIT:          0  MISS:          0
cpu0_ITLB WRITEBACK ACCESS:          0  HIT:          0  MISS:          0
cpu0_L1I TOTAL     ACCESS:    2539057  HIT:    2537401  MISS:       1656
cpu0_L1I LOAD      ACCESS:    2539057  HIT:    2537401  MISS:       1656
cpu0_L1I RFO       ACCESS:          0  HIT:          0  MISS:          0
cpu0_L1I PREFETCH  ACCESS:          0  HIT:          0  MISS:          0
cpu0_L1I WRITEBACK ACCESS:          0  HIT:          0  MISS:          0
cpu0_STLB TOTAL     ACCESS:      18069  HIT:      18025  MISS:         44
cpu0_STLB LOAD      ACCESS:      17482  HIT:      17447  MISS:         35
cpu0_STLB RFO       ACCESS:        587  HIT:        578  MISS:          9
cpu0_STLB PREFETCH  ACCESS:          0  HIT:          0  MISS:          0
cpu0_STLB WRITEBACK ACCESS:          0  HIT:          0  MISS:          0
cpu0_L1D TOTAL     ACCESS:   11454556  HIT:   11382671  MISS:      71885
cpu0_L1D LOAD      ACCESS:    6626450  HIT:    6561565  MISS:      64885
cpu0_L1D RFO       ACCESS:    4828062  HIT:    4821085  MISS:       6977
cpu0_L1D PREFETCH  ACCESS:          0  HIT:          0  MISS:          0
cpu0_L1D WRITEBACK ACCESS:          0  HIT:          0  MISS:          0
cpu0_L2C TOTAL     ACCESS:      86078  HIT:      29424  MISS:      56654
cpu0_L2C LOAD      ACCESS:      66541  HIT:      18795  MISS:      47746
cpu0_L2C RFO       ACCESS:       6977  HIT:       3573  MISS:       3404
cpu0_L2C PREFETCH  ACCESS:          0  HIT:          0  MISS:          0
cpu0_L2C WRITEBACK ACCESS:      12537  HIT:       7045  MISS:       5492
LLC TOTAL     ACCESS:      60646  HIT:      59570  MISS:       1076
LLC LOAD      ACCESS:      47746  HIT:      47169  MISS:        577
LLC RFO       ACCESS:       3403  HIT:       2904  MISS:        499
LLC PREFETCH  ACCESS:          0  HIT:          0  MISS:          0
LLC WRITEBACK ACCESS:       9485  HIT:       9485  MISS:          0
Heartbeat CPU 0 instructions: 94000000 cycles: 56683076 heartbeat IPC: 0.998146 cumulative IPC: 0.996796 (Simulation time: 0 hr 49 min 44 sec) 

Region of Interest Statistics
cpu0_DTLB TOTAL     ACCESS:    8463158  HIT:    8444210  MISS:      18948
cpu0_DTLB LOAD      ACCESS:    5894815  HIT:    5876489  MISS:      18326
cpu0_DTLB RFO       ACCESS:    2568343  HIT:    2567721  MISS:        622
cpu0_DTLB PREFETCH  ACCESS:          0  HIT:          0  MISS:          0
cpu0_DTLB WRITEBACK ACCESS:          0  HIT:          0  MISS:          0
cpu0_ITLB TOTAL     ACCESS:    4922830  HIT:    4922830  MISS:          0
cpu0_ITLB LOAD      ACCESS:    4922830  HIT:    4922830  MISS:          0
cpu0_ITLB RFO       ACCESS:          0  HIT:          0  MISS:          0
cpu0_ITLB PREFETCH  ACCESS:          0  HIT:          0  MISS:          0
cpu0_ITLB WRITEBACK ACCESS:          0  HIT:          0  MISS:          0
cpu0_L1I TOTAL     ACCESS:    2663459  HIT:    2661751  MISS:       1708
cpu0_L1I LOAD      ACCESS:    2663459  HIT:    2661751  MISS:       1708
cpu0_L1I RFO       ACCESS:          0  HIT:          0  MISS:          0
cpu0_L1I PREFETCH  ACCESS:          0  HIT:          0  MISS:          0
cpu0_L1I WRITEBACK ACCESS:          0  HIT:          0  MISS:          0
cpu0_STLB TOTAL     ACCESS:      18948  HIT:      18902  MISS:         46
cpu0_STLB LOAD      ACCESS:      18326  HIT:      18289  MISS:         37
cpu0_STLB RFO       ACCESS:        622  HIT:        613  MISS:          9
cpu0_STLB PREFETCH  ACCESS:          0  HIT:          0  MISS:          0
cpu0_STLB WRITEBACK ACCESS:          0  HIT:          0  MISS:          0
cpu0_L1D TOTAL     ACCESS:   11999125  HIT:   11923766  MISS:      75359
cpu0_L1D LOAD      ACCESS:    6941022  HIT:    6872973  MISS:      68049
cpu0_L1D RFO       ACCESS:    5058057  HIT:    5050772  MISS:       7285
cpu0_L1D PREFETCH  ACCESS:          0  HIT:          0  MISS:          0
cpu0_L1D WRITEBACK ACCESS:          0  HIT:          0  MISS:          0
cpu0_L2C TOTAL     ACCESS:      90228  HIT:      30683  MISS:      59545
cpu0_L2C LOAD      ACCESS:      69757  HIT:      19572  MISS:      50185
cpu0_L2C RFO       ACCESS:       7285  HIT:       3747  MISS:       3538
cpu0_L2C PREFETCH  ACCESS:          0  HIT:          0  MISS:          0
cpu0_L2C WRITEBACK ACCESS:      13161  HIT:       7352  MISS:       5809
LLC TOTAL     ACCESS:      63714  HIT:      62629  MISS:       1085
LLC LOAD      ACCESS:      50185  HIT:      49599  MISS:        586
LLC RFO       ACCESS:       3537  HIT:       3038  MISS:        499
LLC PREFETCH  ACCESS:          0  HIT:          0  MISS:          0
LLC WRITEBACK ACCESS:       9979  HIT:       9979  MISS:          0
Heartbeat CPU 0 instructions: 96000001 cycles: 58744156 heartbeat IPC: 0.970366 cumulative IPC: 0.995616 (Simulation time: 0 hr 50 min 46 sec) 

Region of Interest Statistics
cpu0_DTLB TOTAL     ACCESS:    8852727  HIT:    8832831  MISS:      19896
cpu0_DTLB LOAD      ACCESS:    6168268  HIT:    6149017  MISS:      19251
cpu0_DTLB RFO       ACCESS:    2684459  HIT:    2683814  MISS:        645
cpu0_DTLB PREFETCH  ACCESS:          0  HIT:          0  MISS:          0
cpu0_DTLB WRITEBACK ACCESS:          0  HIT:          0  MISS:          0
cpu0_ITLB TOTAL     ACCESS:    5146724  HIT:    5146724  MISS:          0
cpu0_ITLB LOAD      ACCESS:    5146724  HIT:    5146724  MISS:          0
cpu0_ITLB RFO       ACCESS:          0  HIT:          0  MISS:          0
cpu0_ITLB PREFETCH  ACCESS:          0  HIT:          0  MISS:          0
cpu0_ITLB WRITEBACK ACCESS:          0  HIT:          0  MISS:          0
cpu0_L1I TOTAL     ACCESS:    2785373  HIT:    2783585  MISS:       1788
cpu0_L1I LOAD      ACCESS:    2785373  HIT:    2783585  MISS:       1788
cpu0_L1I RFO       ACCESS:          0  HIT:          0  MISS:          0
cpu0_L1I PREFETCH  ACCESS:          0  HIT:          0  MISS:          0
cpu0_L1I WRITEBACK ACCESS:          0  HIT:          0  MISS:          0
cpu0_STLB TOTAL     ACCESS:      19896  HIT:      19847  MISS:         49
cpu0_STLB LOAD      ACCESS:      19251  HIT:      19211  MISS:         40
cpu0_STLB RFO       ACCESS:        645  HIT:        636  MISS:          9
cpu0_STLB PREFETCH  ACCESS:          0  HIT:          0  MISS:          0
cpu0_STLB WRITEBACK ACCESS:          0  HIT:          0  MISS:          0
cpu0_L1D TOTAL     ACCESS:   12539578  HIT:   12459867  MISS:      79711
cpu0_L1D LOAD      ACCESS:    7257959  HIT:    7186003  MISS:      71956
cpu0_L1D RFO       ACCESS:    5281570  HIT:    5273843  MISS:       7727
cpu0_L1D PREFETCH  ACCESS:          0  HIT:          0  MISS:          0
cpu0_L1D WRITEBACK ACCESS:          0  HIT:          0  MISS:          0
cpu0_L2C TOTAL     ACCESS:      95431  HIT:      32497  MISS:      62934
cpu0_L2C LOAD      ACCESS:      73744  HIT:      20728  MISS:      53016
cpu0_L2C RFO       ACCESS:       7727  HIT:       3984  MISS:       3743
cpu0_L2C PREFETCH  ACCESS:          0  HIT:          0  MISS:          0
cpu0_L2C WRITEBACK ACCESS:      13932  HIT:       7770  MISS:       6162
LLC TOTAL     ACCESS:      67296  HIT:      66198  MISS:       1098
LLC LOAD      ACCESS:      53016  HIT:      52417  MISS:        599
LLC RFO       ACCESS:       3742  HIT:       3243  MISS:        499
LLC PREFETCH  ACCESS:          0  HIT:          0  MISS:          0
LLC WRITEBACK ACCESS:      10525  HIT:      10525  MISS:          0
Heartbeat CPU 0 instructions: 98000004 cycles: 60718115 heartbeat IPC: 1.01319 cumulative IPC: 0.996337 (Simulation time: 0 hr 51 min 45 sec) 

Region of Interest Statistics
cpu0_DTLB TOTAL     ACCESS:    9240135  HIT:    9219444  MISS:      20691
cpu0_DTLB LOAD      ACCESS:    6438653  HIT:    6418621  MISS:      20032
cpu0_DTLB RFO       ACCESS:    2801482  HIT:    2800823  MISS:        659
cpu0_DTLB PREFETCH  ACCESS:          0  HIT:          0  MISS:          0
cpu0_DTLB WRITEBACK ACCESS:          0  HIT:          0  MISS:          0
cpu0_ITLB TOTAL     ACCESS:    5370257  HIT:    5370257  MISS:          0
cpu0_ITLB LOAD      ACCESS:    5370257  HIT:    5370257  MISS:          0
cpu0_ITLB RFO       ACCESS:          0  HIT:          0  MISS:          0
cpu0_ITLB PREFETCH  ACCESS:          0  HIT:          0  MISS:          0
cpu0_ITLB WRITEBACK ACCESS:          0  HIT:          0  MISS:          0
cpu0_L1I TOTAL     ACCESS:    2904455  HIT:    2902611  MISS:       1844
cpu0_L1I LOAD      ACCESS:    2904455  HIT:    2902611  MISS:       1844
cpu0_L1I RFO       ACCESS:          0  HIT:          0  MISS:          0
cpu0_L1I PREFETCH  ACCESS:          0  HIT:          0  MISS:          0
cpu0_L1I WRITEBACK ACCESS:          0  HIT:          0  MISS:          0
cpu0_STLB TOTAL     ACCESS:      20691  HIT:      20640  MISS:         51
cpu0_STLB LOAD      ACCESS:      20032  HIT:      19990  MISS:         42
cpu0_STLB RFO       ACCESS:        659  HIT:        650  MISS:          9
cpu0_STLB PREFETCH  ACCESS:          0  HIT:          0  MISS:          0
cpu0_STLB WRITEBACK ACCESS:          0  HIT:          0  MISS:          0
cpu0_L1D TOTAL     ACCESS:   13082435  HIT:   12999080  MISS:      83355
cpu0_L1D LOAD      ACCESS:    7571982  HIT:    7496711  MISS:      75271
cpu0_L1D RFO       ACCESS:    5510402  HIT:    5502348  MISS:       8054
cpu0_L1D PREFETCH  ACCESS:          0  HIT:          0  MISS:          0
cpu0_L1D WRITEBACK ACCESS:          0  HIT:          0  MISS:          0
cpu0_L2C TOTAL     ACCESS:      99774  HIT:      33920  MISS:      65854
cpu0_L2C LOAD      ACCESS:      77115  HIT:      21627  MISS:      55488
cpu0_L2C RFO       ACCESS:       8054  HIT:       4173  MISS:       3881
cpu0_L2C PREFETCH  ACCESS:          0  HIT:          0  MISS:          0
cpu0_L2C WRITEBACK ACCESS:      14575  HIT:       8103  MISS:       6472
LLC TOTAL     ACCESS:      70365  HIT:      69255  MISS:       1110
LLC LOAD      ACCESS:      55488  HIT:      54877  MISS:        611
LLC RFO       ACCESS:       3880  HIT:       3381  MISS:        499
LLC PREFETCH  ACCESS:          0  HIT:          0  MISS:          0
LLC WRITEBACK ACCESS:      10984  HIT:      10984  MISS:          0
Heartbeat CPU 0 instructions: 100000002 cycles: 62737080 heartbeat IPC: 0.990606 cumulative IPC: 0.996106 (Simulation time: 0 hr 52 min 47 sec) 

Region of Interest Statistics
cpu0_DTLB TOTAL     ACCESS:    9629893  HIT:    9608397  MISS:      21496
cpu0_DTLB LOAD      ACCESS:    6710315  HIT:    6689494  MISS:      20821
cpu0_DTLB RFO       ACCESS:    2919578  HIT:    2918903  MISS:        675
cpu0_DTLB PREFETCH  ACCESS:          0  HIT:          0  MISS:          0
cpu0_DTLB WRITEBACK ACCESS:          0  HIT:          0  MISS:          0
cpu0_ITLB TOTAL     ACCESS:    5593881  HIT:    5593881  MISS:          0
cpu0_ITLB LOAD      ACCESS:    5593881  HIT:    5593881  MISS:          0
cpu0_ITLB RFO       ACCESS:          0  HIT:          0  MISS:          0
cpu0_ITLB PREFETCH  ACCESS:          0  HIT:          0  MISS:          0
cpu0_ITLB WRITEBACK ACCESS:          0  HIT:          0  MISS:          0
cpu0_L1I TOTAL     ACCESS:    3029156  HIT:    3027254  MISS:       1902
cpu0_L1I LOAD      ACCESS:    3029156  HIT:    3027254  MISS:       1902
cpu0_L1I RFO       ACCESS:          0  HIT:          0  MISS:          0
cpu0_L1I PREFETCH  ACCESS:          0  HIT:          0  MISS:          0
cpu0_L1I WRITEBACK ACCESS:          0  HIT:          0  MISS:          0
cpu0_STLB TOTAL     ACCESS:      21496  HIT:      21443  MISS:         53
cpu0_STLB LOAD      ACCESS:      20821  HIT:      20777  MISS:         44
cpu0_STLB RFO       ACCESS:        675  HIT:        666  MISS:          9
cpu0_STLB PREFETCH  ACCESS:          0  HIT:          0  MISS:          0
cpu0_STLB WRITEBACK ACCESS:          0  HIT:          0  MISS:          0
cpu0_L1D TOTAL     ACCESS:   13628339  HIT:   13541582  MISS:      86757
cpu0_L1D LOAD      ACCESS:    7888063  HIT:    7809697  MISS:      78366
cpu0_L1D RFO       ACCESS:    5740223  HIT:    5731864  MISS:       8359
cpu0_L1D PREFETCH  ACCESS:          0  HIT:          0  MISS:          0
cpu0_L1D WRITEBACK ACCESS:          0  HIT:          0  MISS:          0
cpu0_L2C TOTAL     ACCESS:     103827  HIT:      35207  MISS:      68620
cpu0_L2C LOAD      ACCESS:      80268  HIT:      22438  MISS:      57830
cpu0_L2C RFO       ACCESS:       8359  HIT:       4336  MISS:       4023
cpu0_L2C PREFETCH  ACCESS:          0  HIT:          0  MISS:          0
cpu0_L2C WRITEBACK ACCESS:      15168  HIT:       8415  MISS:       6753
LLC TOTAL     ACCESS:      73299  HIT:      72179  MISS:       1120
LLC LOAD      ACCESS:      57830  HIT:      57209  MISS:        621
LLC RFO       ACCESS:       4022  HIT:       3523  MISS:        499
LLC PREFETCH  ACCESS:          0  HIT:          0  MISS:          0
LLC WRITEBACK ACCESS:      11433  HIT:      11433  MISS:          0
Heartbeat CPU 0 instructions: 102000002 cycles: 64742280 heartbeat IPC: 0.997407 cumulative IPC: 0.996156 (Simulation time: 0 hr 53 min 26 sec) 

Region of Interest Statistics
cpu0_DTLB TOTAL     ACCESS:   10017687  HIT:    9995226  MISS:      22461
cpu0_DTLB LOAD      ACCESS:    6981466  HIT:    6959718  MISS:      21748
cpu0_DTLB RFO       ACCESS:    3036221  HIT:    3035508  MISS:        713
cpu0_DTLB PREFETCH  ACCESS:          0  HIT:          0  MISS:          0
cpu0_DTLB WRITEBACK ACCESS:          0  HIT:          0  MISS:          0
cpu0_ITLB TOTAL     ACCESS:    5818372  HIT:    5818372  MISS:          0
cpu0_ITLB LOAD      ACCESS:    5818372  HIT:    5818372  MISS:          0
cpu0_ITLB RFO       ACCESS:          0  HIT:          0  MISS:          0
cpu0_ITLB PREFETCH  ACCESS:          0  HIT:          0  MISS:          0
cpu0_ITLB WRITEBACK ACCESS:          0  HIT:          0  MISS:          0
cpu0_L1I TOTAL     ACCESS:    3147437  HIT:    3145454  MISS:       1983
cpu0_L1I LOAD      ACCESS:    3147437  HIT:    3145454  MISS:       1983
cpu0_L1I RFO       ACCESS:          0  HIT:          0  MISS:          0
cpu0_L1I PREFETCH  ACCESS:          0  HIT:          0  MISS:          0
cpu0_L1I WRITEBACK ACCESS:          0  HIT:          0  MISS:          0
cpu0_STLB TOTAL     ACCESS:      22461  HIT:      22405  MISS:         56
cpu0_STLB LOAD      ACCESS:      21748  HIT:      21701  MISS:         47
cpu0_STLB RFO       ACCESS:        713  HIT:        704  MISS:          9
cpu0_STLB PREFETCH  ACCESS:          0  HIT:          0  MISS:          0
cpu0_STLB WRITEBACK ACCESS:          0  HIT:          0  MISS:          0
cpu0_L1D TOTAL     ACCESS:   14166245  HIT:   14074910  MISS:      91335
cpu0_L1D LOAD      ACCESS:    8202513  HIT:    8120025  MISS:      82488
cpu0_L1D RFO       ACCESS:    5963676  HIT:    5954864  MISS:       8812
cpu0_L1D PREFETCH  ACCESS:          0  HIT:          0  MISS:          0
cpu0_L1D WRITEBACK ACCESS:          0  HIT:          0  MISS:          0
cpu0_L2C TOTAL     ACCESS:     109306  HIT:      37060  MISS:      72246
cpu0_L2C LOAD      ACCESS:      84471  HIT:      23617  MISS:      60854
cpu0_L2C RFO       ACCESS:       8812  HIT:       4582  MISS:       4230
cpu0_L2C PREFETCH  ACCESS:          0  HIT:          0  MISS:          0
cpu0_L2C WRITEBACK ACCESS:      15988  HIT:       8841  MISS:       7147
LLC TOTAL     ACCESS:      77099  HIT:      75964  MISS:       1135
LLC LOAD      ACCESS:      60854  HIT:      60218  MISS:        636
LLC RFO       ACCESS:       4229  HIT:       3730  MISS:        499
LLC PREFETCH  ACCESS:          0  HIT:          0  MISS:          0
LLC WRITEBACK ACCESS:      12001  HIT:      12001  MISS:          0
Heartbeat CPU 0 instructions: 104000001 cycles: 66735621 heartbeat IPC: 1.00334 cumulative IPC: 0.99642 (Simulation time: 0 hr 54 min 48 sec) 

Region of Interest Statistics
cpu0_DTLB TOTAL     ACCESS:   10405835  HIT:   10382555  MISS:      23280
cpu0_DTLB LOAD      ACCESS:    7251358  HIT:    7228808  MISS:      22550
cpu0_DTLB RFO       ACCESS:    3154477  HIT:    3153747  MISS:        730
cpu0_DTLB PREFETCH  ACCESS:          0  HIT:          0  MISS:          0
cpu0_DTLB WRITEBACK ACCESS:          0  HIT:          0  MISS:          0
cpu0_ITLB TOTAL     ACCESS:    6042041  HIT:    6042041  MISS:          0
cpu0_ITLB LOAD      ACCESS:    6042041  HIT:    6042041  MISS:          0
cpu0_ITLB RFO       ACCESS:          0  HIT:          0  MISS:          0
cpu0_ITLB PREFETCH  ACCESS:          0  HIT:          0  MISS:          0
cpu0_ITLB WRITEBACK ACCESS:          0  HIT:          0  MISS:          0
cpu0_L1I TOTAL     ACCESS:    3266307  HIT:    3264267  MISS:       2040
cpu0_L1I LOAD      ACCESS:    3266307  HIT:    3264267  MISS:       2040
cpu0_L1I RFO       ACCESS:          0  HIT:          0  MISS:          0
cpu0_L1I PREFETCH  ACCESS:          0  HIT:          0  MISS:          0
cpu0_L1I WRITEBACK ACCESS:          0  HIT:          0  MISS:          0
cpu0_STLB TOTAL     ACCESS:      23280  HIT:      23222  MISS:         58
cpu0_STLB LOAD      ACCESS:      22550  HIT:      22501  MISS:         49
cpu0_STLB RFO       ACCESS:        730  HIT:        721  MISS:          9
cpu0_STLB PREFETCH  ACCESS:          0  HIT:          0  MISS:          0
cpu0_STLB WRITEBACK ACCESS:          0  HIT:          0  MISS:          0
cpu0_L1D TOTAL     ACCESS:   14710780  HIT:   14615916  MISS:      94864
cpu0_L1D LOAD      ACCESS:    8516677  HIT:    8430975  MISS:      85702
cpu0_L1D RFO       ACCESS:    6194045  HIT:    6184920  MISS:       9125
cpu0_L1D PREFETCH  ACCESS:          0  HIT:          0  MISS:          0
cpu0_L1D WRITEBACK ACCESS:          0  HIT:          0  MISS:          0
cpu0_L2C TOTAL     ACCESS:     113510  HIT:      38382  MISS:      75128
cpu0_L2C LOAD      ACCESS:      87742  HIT:      24467  MISS:      63275
cpu0_L2C RFO       ACCESS:       9125  HIT:       4752  MISS:       4373
cpu0_L2C PREFETCH  ACCESS:          0  HIT:          0  MISS:          0
cpu0_L2C WRITEBACK ACCESS:      16606  HIT:       9141  MISS:       7465
LLC TOTAL     ACCESS:      80138  HIT:      78993  MISS:       1145
LLC LOAD      ACCESS:      63275  HIT:      62629  MISS:        646
LLC RFO       ACCESS:       4372  HIT:       3873  MISS:        499
LLC PREFETCH  ACCESS:          0  HIT:          0  MISS:          0
LLC WRITEBACK ACCESS:      12476  HIT:      12476  MISS:          0
Heartbeat CPU 0 instructions: 106000000 cycles: 68736732 heartbeat IPC: 0.999444 cumulative IPC: 0.996528 (Simulation time: 0 hr 55 min 52 sec) 

Region of Interest Statistics
cpu0_DTLB TOTAL     ACCESS:   10792735  HIT:   10768523  MISS:      24212
cpu0_DTLB LOAD      ACCESS:    7519916  HIT:    7496455  MISS:      23461
cpu0_DTLB RFO       ACCESS:    3272819  HIT:    3272068  MISS:        751
cpu0_DTLB PREFETCH  ACCESS:          0  HIT:          0  MISS:          0
cpu0_DTLB WRITEBACK ACCESS:          0  HIT:          0  MISS:          0
cpu0_ITLB TOTAL     ACCESS:    6266426  HIT:    6266426  MISS:          0
cpu0_ITLB LOAD      ACCESS:    6266426  HIT:    6266426  MISS:          0
cpu0_ITLB RFO       ACCESS:          0  HIT:          0  MISS:          0
cpu0_ITLB PREFETCH  ACCESS:          0  HIT:          0  MISS:          0
cpu0_ITLB WRITEBACK ACCESS:          0  HIT:          0  MISS:          0
cpu0_L1I TOTAL     ACCESS:    3379599  HIT:    3377476  MISS:       2123
cpu0_L1I LOAD      ACCESS:    3379599  HIT:    3377476  MISS:       2123
cpu0_L1I RFO       ACCESS:          0  HIT:          0  MISS:          0
cpu0_L1I PREFETCH  ACCESS:          0  HIT:          0  MISS:          0
cpu0_L1I WRITEBACK ACCESS:          0  HIT:          0  MISS:          0
cpu0_STLB TOTAL     ACCESS:      24212  HIT:      24153  MISS:         59
cpu0_STLB LOAD      ACCESS:      23461  HIT:      23411  MISS:         50
cpu0_STLB RFO       ACCESS:        751  HIT:        742  MISS:          9
cpu0_STLB PREFETCH  ACCESS:          0  HIT:          0  MISS:          0
cpu0_STLB WRITEBACK ACCESS:          0  HIT:          0  MISS:          0
cpu0_L1D TOTAL     ACCESS:   15248497  HIT:   15148964  MISS:      99533
cpu0_L1D LOAD      ACCESS:    8828115  HIT:    8738206  MISS:      89909
cpu0_L1D RFO       ACCESS:    6420323  HIT:    6410737  MISS:       9586
cpu0_L1D PREFETCH  ACCESS:          0  HIT:          0  MISS:          0
cpu0_L1D WRITEBACK ACCESS:          0  HIT:          0  MISS:          0
cpu0_L2C TOTAL     ACCESS:     119087  HIT:      40260  MISS:      78827
cpu0_L2C LOAD      ACCESS:      92032  HIT:      25649  MISS:      66383
cpu0_L2C RFO       ACCESS:       9586  HIT:       5009  MISS:       4577
cpu0_L2C PREFETCH  ACCESS:          0  HIT:          0  MISS:          0
[...]
cpu0_DTLB TOTAL     ACCESS:  290767870  HIT:  290087322  MISS:     680548
cpu0_DTLB LOAD      ACCESS:  202316081  HIT:  201658902  MISS:     657179
cpu0_DTLB RFO       ACCESS:   88451789  HIT:   88428420  MISS:      23369
cpu0_DTLB PREFETCH  ACCESS:          0  HIT:          0  MISS:          0
cpu0_DTLB WRITEBACK ACCESS:          0  HIT:          0  MISS:          0
cpu0_DTLB TRANSLATION ACCESS:          0  HIT:          0  MISS:          0
cpu0_DTLB PREFETCH  REQUESTED:          0  ISSUED:          0  USEFUL:          0  USELESS:          0
cpu0_DTLB AVERAGE MISS LATENCY: 9.58424 cycles
cpu0_ITLB TOTAL     ACCESS:  167867887  HIT:  167867817  MISS:         70
cpu0_ITLB LOAD      ACCESS:  167867887  HIT:  167867817  MISS:         70
cpu0_ITLB RFO       ACCESS:          0  HIT:          0  MISS:          0
cpu0_ITLB PREFETCH  ACCESS:          0  HIT:          0  MISS:          0
cpu0_ITLB WRITEBACK ACCESS:          0  HIT:          0  MISS:          0
cpu0_ITLB TRANSLATION ACCESS:          0  HIT:          0  MISS:          0
cpu0_ITLB PREFETCH  REQUESTED:          0  ISSUED:          0  USEFUL:          0  USELESS:          0
cpu0_ITLB AVERAGE MISS LATENCY: 137.571 cycles
cpu0_L1I TOTAL     ACCESS:   89924233  HIT:   89864486  MISS:      59747
cpu0_L1I LOAD      ACCESS:   89924233  HIT:   89864486  MISS:      59747
cpu0_L1I RFO       ACCESS:          0  HIT:          0  MISS:          0
cpu0_L1I PREFETCH  ACCESS:          0  HIT:          0  MISS:          0
cpu0_L1I WRITEBACK ACCESS:          0  HIT:          0  MISS:          0
cpu0_L1I TRANSLATION ACCESS:          0  HIT:          0  MISS:          0
cpu0_L1I PREFETCH  REQUESTED:          0  ISSUED:          0  USEFUL:          0  USELESS:          0
cpu0_L1I AVERAGE MISS LATENCY: 30.9446 cycles
cpu0_STLB TOTAL     ACCESS:     680618  HIT:     678130  MISS:       2488
cpu0_STLB LOAD      ACCESS:     657249  HIT:     655774  MISS:       1475
cpu0_STLB RFO       ACCESS:      23369  HIT:      22356  MISS:       1013
cpu0_STLB PREFETCH  ACCESS:          0  HIT:          0  MISS:          0
cpu0_STLB WRITEBACK ACCESS:          0  HIT:          0  MISS:          0
cpu0_STLB TRANSLATION ACCESS:          0  HIT:          0  MISS:          0
cpu0_STLB PREFETCH  REQUESTED:          0  ISSUED:          0  USEFUL:          0  USELESS:          0
cpu0_STLB AVERAGE MISS LATENCY: 162.842 cycles
cpu0_L1D TOTAL     ACCESS:  406671844  HIT:  403524010  MISS:    3147834
cpu0_L1D LOAD      ACCESS:  235592364  HIT:  232817675  MISS:    2774689
cpu0_L1D RFO       ACCESS:  171077000  HIT:  170704687  MISS:     372313
cpu0_L1D PREFETCH  ACCESS:          0  HIT:          0  MISS:          0
cpu0_L1D WRITEBACK ACCESS:          0  HIT:          0  MISS:          0
cpu0_L1D TRANSLATION ACCESS:       2480  HIT:       1648  MISS:        832
cpu0_L1D PREFETCH  REQUESTED:          0  ISSUED:          0  USEFUL:          0  USELESS:          0
cpu0_L1D AVERAGE MISS LATENCY: 31.2519 cycles
cpu0_L2C TOTAL     ACCESS:    3841781  HIT:    1299995  MISS:    2541786
cpu0_L2C LOAD      ACCESS:    2834434  HIT:     736895  MISS:    2097539
cpu0_L2C RFO       ACCESS:     372291  HIT:     174660  MISS:     197631
cpu0_L2C PREFETCH  ACCESS:          0  HIT:          0  MISS:          0
cpu0_L2C WRITEBACK ACCESS:     634224  HIT:     388185  MISS:     246039
cpu0_L2C TRANSLATION ACCESS:        832  HIT:        255  MISS:        577
cpu0_L2C PREFETCH  REQUESTED:          0  ISSUED:          0  USEFUL:          0  USELESS:          0
cpu0_L2C AVERAGE MISS LATENCY: 25.5357 cycles
LLC TOTAL     ACCESS:    2758039  HIT:    2659093  MISS:      98946
LLC LOAD      ACCESS:    2097534  HIT:    2058705  MISS:      38829
LLC RFO       ACCESS:     197619  HIT:     137510  MISS:      60109
LLC PREFETCH  ACCESS:          0  HIT:          0  MISS:          0
LLC WRITEBACK ACCESS:     462309  HIT:     462304  MISS:          5
LLC TRANSLATION ACCESS:        577  HIT:        574  MISS:          3
LLC PREFETCH  REQUESTED:          0  ISSUED:          0  USEFUL:          0  USELESS:          0
LLC AVERAGE MISS LATENCY: 168.735 cycles
~~~~~~~~~~Reuse Distance Profiler output~~~~~~~~~~
0	98071696	11382832
1	32047120	13438336
2	21819408	10198912
3	15700368	9233328
4	15198672	8218672
5	11978016	8510800
6	12399536	8231024
7	9778224	6470096
8	9565760	7124464
9	7819888	5592528
10	6025072	4325968
11	6084592	4257120
12	6655968	5420048
13	5852816	4545472
14	5604992	4172864
15	4470976	3590592
16	4672192	3698672
17	5568384	3923264
18	4428896	3412544
19	3994000	3129840
20	3308400	2760496
21	2959808	2422208
22	2967104	2434944
23	2760736	2182064
24	2664496	2187520
25	2901152	2105024
26	2518688	2019168
27	2130096	1701760
28	1771504	1498416
29	1732784	1454944
30	1891056	1589792
31	1827712	1606000
32	2122064	1535472
33	1639200	1419824
34	1434032	1252160
35	1379632	1194368
36	1319232	1131792
37	1174544	1039536
38	1110960	947248
39	1069808	975392
40	1313104	887152
41	1014832	943760
42	1017488	965760
43	961008	899104
44	900256	823904
45	774800	727296
46	719088	681504
47	801104	764032
48	724272	683696
49	764272	724464
50	705888	662272
51	716912	673296
52	740656	690944
53	721824	661728
54	743872	672432
55	764800	687360
56	801856	711280
57	807744	717296
58	877632	784288
59	820896	725280
60	803040	704096
61	868448	765568
62	848064	744480
63	904720	797456
64	1857792	1632560
66	1849648	1634416
68	1575328	1384944
70	1348560	1182864
72	1273856	1108608
74	1247600	1069936
76	1181296	1021776
78	1157904	1015504
80	1052864	930560
82	975456	881088
84	935936	846736
86	874480	783808
88	818160	726080
90	756096	666160
92	732688	628880
94	709232	616176
96	668848	577312
98	609472	530896
100	572784	506352
102	543696	491024
104	510768	462560
106	501744	455680
108	484480	443712
110	478768	441824
112	476240	439744
114	458000	422112
116	436816	402704
118	402976	369984
120	395216	364240
122	372128	340448
124	364256	330272
126	351904	318432
128	677552	611680
132	665440	601952
136	629488	571392
140	604096	547328
144	574272	524224
148	548784	503616
152	528336	479872
156	489008	441904
160	458112	411968
164	428496	381984
168	405536	360384
172	389360	343792
176	366896	319616
180	361728	315104
184	350640	303216
188	337536	289440
192	327120	281040
196	315600	274416
200	304768	265344
204	299536	264800
208	289744	258720
212	277984	248224
216	264368	236848
220	258656	233696
224	251872	226896
228	248096	222784
232	241984	216704
236	239008	212512
240	234848	207792
244	234496	206112
248	230880	200208
252	226848	194944
256	437440	378016
264	417040	362400
272	412048	364336
280	390208	345312
288	395168	348176
296	388624	341776
304	375632	327728
312	375600	323152
320	365328	313584
328	352272	301216
336	344016	296720
344	338688	289824
352	328288	281536
360	319488	272144
368	304528	258096
376	298160	249376
384	278336	234784
392	263104	222288
400	258016	219024
408	255280	216224
416	246400	207568
424	244640	202560
432	238800	196608
440	235072	194928
448	226704	188560
456	222064	184048
464	214672	178240
472	208032	172320
480	208480	172016
488	208864	172320
496	209376	171328
504	205680	169312
512	399600	331840
528	397248	328848
544	388144	322080
560	378304	317424
576	375392	316592
592	375584	317328
608	361472	305920
624	347648	294528
640	337136	287568
656	317376	273008
672	301328	258528
688	287664	248176
704	267936	232656
720	256912	223248
736	241184	211328
752	230208	202352
768	216400	190800
784	209440	185968
800	195584	174016
816	192864	172960
832	183760	164192
848	177664	159824
864	173360	156752
880	169024	152752
896	163664	148336
912	151568	137664
928	146384	132640
944	141568	128576
960	138256	125664
976	136224	123808
992	129600	116816
1008	127040	113568
1024	242720	219072
1056	236112	212048
1088	227568	201488
1120	216272	192960
1152	208416	185344
1184	205792	182768
1216	202784	180496
1248	195424	172624
1280	185472	164144
1312	176720	157632
1344	170832	153616
1376	166096	149824
1408	159760	143136
1440	152512	137648
1472	146416	132960
1504	144928	131280
1536	134640	122176
1568	129120	117360
1600	122368	111328
1632	119296	107840
1664	113952	103104
1696	110240	99872
1728	108384	97232
1760	102464	92640
1792	101296	91808
1824	101280	90672
1856	96240	86128
1888	93952	84528
1920	89776	81488
1952	91792	82080
1984	93664	82096
2016	91504	81136
2048	181664	158960
2112	176384	152880
2176	156768	139552
2240	152272	135296
2304	145920	129712
2368	139168	123408
2432	141520	123952
2496	135776	121136
2560	132304	117744
2624	128624	114560
2688	129760	115424
2752	126528	113152
2816	121040	107600
2880	163344	150368
2944	157904	145904
3008	151024	139600
3072	146656	135504
3136	138112	126960
3200	134688	119664
3264	135504	118928
3328	132368	116000
3392	127680	110928
3456	92032	74560
3520	78832	62992
3584	74704	60752
3648	75424	61888
3712	72272	58976
3776	70304	58512
3840	67888	56144
3904	65296	53296
3968	63424	53088
4032	64000	52160
4096	115696	97200
4224	106160	89600
4352	98976	83408
4480	99856	80368
4608	97520	76528
4736	96960	76480
4864	141232	119856
4992	167680	149808
5120	172896	156352
5248	155808	140752
5376	91584	77440
5504	72624	59008
5632	63360	49568
5760	59968	46832
5888	60160	45344
6016	60624	44944
6144	58784	42128
6272	56880	40272
6400	56400	40896
6528	54592	40272
6656	49744	36032
6784	48224	34976
6912	47728	33056
7040	42384	30480
7168	41136	29696
7296	41056	30448
7424	38352	27984
7552	38128	27376
7680	35920	26112
7808	35168	25856
7936	34784	25248
8064	32080	23280
8192	62512	45856
8448	61024	43392
8704	58016	39280
8960	55024	38144
9216	51856	36720
9472	49488	35472
9728	43824	31152
9984	42320	29920
10240	40208	28400
10496	38256	27088
10752	35840	25568
11008	33744	23808
11264	33568	23568
11520	32464	22512
11776	30624	21072
12032	29136	20544
12288	29664	20320
12544	28624	19520
12800	26400	18064
13056	25760	17760
13312	25488	18368
13568	23616	16528
13824	22848	15424
14080	21984	14912
14336	21664	15136
14592	20800	14496
14848	20016	14368
15104	19456	14096
15360	18704	13488
15616	18208	12880
15872	17248	12336
16128	17024	12784
16384	31248	23184
16896	29600	21600
17408	26784	19488
17920	25840	19152
18432	25232	18368
18944	24048	18048
19456	22336	16864
19968	20960	15664
20480	20512	15984
20992	19808	15648
21504	18256	14368
22016	18016	14336
22528	16832	13152
23040	16672	12800
23552	15664	12192
24064	14288	11104
24576	14368	11408
25088	14080	11552
25600	14064	11264
26112	13632	11312
26624	12224	10096
27136	12096	10224
27648	12080	9776
28160	11808	9952
28672	11312	9488
29184	10720	8880
29696	10272	8624
30208	10224	8576
30720	9968	8640
31232	9744	8176
31744	8704	7424
32256	9584	8048
32768	17184	14896
33792	16080	13744
34816	15920	14032
35840	14480	12736
36864	13296	11696
37888	13696	12096
38912	12224	10784
39936	12784	11216
40960	11360	10320
41984	11760	10640
43008	10240	9168
44032	9840	9024
45056	9936	8848
46080	9472	8800
47104	8672	8064
48128	8736	8128
49152	8176	7632
50176	7776	7152
51200	8064	7408
52224	7936	7472
53248	7760	7248
54272	6816	6400
55296	6832	6256
56320	6880	6560
57344	6320	5856
58368	6192	5904
59392	6160	5744
60416	6000	5648
61440	6336	6016
62464	5408	4976
63488	5376	5024
64512	5936	5664
65536	9920	9568
67584	10640	10176
69632	9088	8768
71680	8688	8336
73728	9424	9120
75776	8272	7952
77824	8656	8384
79872	7952	7760
81920	8528	8240
83968	7984	7600
86016	7968	7568
88064	8320	8000
90112	8016	7760
92160	7744	7456
94208	7056	6768
96256	7424	7152
98304	7520	7232
100352	8224	7952
102400	6800	6464
104448	6992	6752
106496	7424	7232
108544	7296	7104
110592	7632	7360
112640	8240	7904
114688	8080	7776
116736	8352	8224
118784	8224	7824
120832	7488	7168
122880	7504	7328
124928	8080	7840
126976	8784	8432
129024	8368	8144
131072	17856	17136
135168	17824	17104
139264	17920	17248
143360	20864	20016
147456	20512	19360
151552	22944	21648
155648	24880	23424
159744	28848	27424
163840	34544	32112
167936	43712	40880
172032	53856	49472
176128	60256	55472
180224	70336	64688
184320	76304	69792
188416	93520	85616
192512	103152	93520
196608	111536	100832
200704	117408	105840
204800	116016	104368
208896	112720	102576
212992	110960	100448
217088	110464	99984
221184	102512	92880
225280	89776	80848
229376	77712	70464
233472	67856	61328
237568	53632	48800
241664	45360	41872
245760	38112	34416
249856	33904	31008
253952	25168	22496
258048	20384	19264
262144	35056	32160
270336	22224	21184
278528	14496	13408
286720	9184	8928
294912	7808	7712
303104	7408	7344
311296	6032	6032
319488	6304	6304
327680	6480	6480
335872	6256	6256
344064	6976	6976
352256	6784	6784
360448	7600	7600
368640	7744	7744
376832	8464	8448
385024	7776	7776
393216	8208	8208
401408	8176	8160
409600	7296	7280
417792	7600	7584
425984	6496	6496
434176	6144	6144
442368	6032	6032
450560	5776	5776
458752	5136	5136
466944	4512	4496
475136	4512	4496
483328	4336	4208
491520	3792	3728
499712	3504	3488
507904	3120	3088
516096	3024	3008
524288	5952	5936
540672	5696	5696
557056	6544	6544
573440	6656	6640
589824	7072	7056
606208	6896	6896
622592	7536	7536
638976	6768	6752
655360	4848	4848
671744	5392	5392
688128	4160	4128
704512	3792	3792
720896	3664	3664
737280	3536	3504
753664	3504	3504
770048	3216	3216
786432	3520	3520
802816	3424	3424
819200	4112	4112
835584	3408	3392
851968	3296	3296
868352	3408	3408
884736	2944	2944
901120	2224	2224
917504	3008	3008
933888	2096	2096
950272	2688	2688
966656	2464	2464
983040	2128	2128
999424	2128	2128
1015808	2048	2048
1032192	2192	2192
1048576	5488	5472
1081344	4000	4000
1114112	3840	3840
1146880	2544	2544
1179648	2960	2960
1212416	3264	3248
1245184	2944	2944
1277952	2896	2896
1310720	2992	2976
1343488	2032	2000
1376256	2416	2416
1409024	2176	2176
1441792	1648	1648
1474560	2512	2512
1507328	2096	2080
1540096	2032	2016
1572864	1616	1616
1605632	1808	1808
1638400	1632	1632
1671168	3056	3056
1703936	1728	1712
1736704	1328	1328
1769472	1808	1776
1802240	1600	1600
1835008	1344	1344
1867776	1376	1376
1900544	1232	1232
1933312	928	928
1966080	1312	1312
1998848	1232	1232
2031616	1440	1440
2064384	1392	1360
2097152	2032	1920
2162688	2048	2048
2228224	2144	2016
2293760	1712	1712
2359296	2256	2256
2424832	2096	2064
2490368	2208	2208
2555904	2192	2176
2621440	2064	2064
2686976	2192	2176
2752512	1856	1856
2818048	2240	2240
2883584	2224	2224
2949120	1648	1616
3014656	1904	1888
3080192	1520	1520
3145728	1504	1488
3211264	1456	1456
3276800	880	864
3342336	1024	1024
3407872	1200	1200
3473408	992	992
3538944	864	864
3604480	992	992
3670016	816	816
3735552	880	880
3801088	864	864
3866624	928	912
3932160	720	720
3997696	688	672
4063232	752	752
4128768	688	688
4194304	1024	1008
4325376	1408	1392
4456448	1040	1040
4587520	1008	1008
4718592	1024	1024
4849664	1056	1056
4980736	1104	1104
5111808	896	896
5242880	944	944
5373952	672	672
5505024	1088	1088
5636096	752	736
5767168	752	752
5898240	960	960
6029312	688	688
6160384	592	592
6291456	912	912
6422528	384	384
6553600	784	656
6684672	624	512
6815744	480	480
6946816	1088	1072
7077888	656	624
7208960	1088	1088
7340032	704	704
7471104	400	384
7602176	528	528
7733248	432	432
7864320	560	560
7995392	464	448
8126464	352	336
8257536	336	336
8388608	1792	1584
8650752	1120	1056
8912896	752	736
9175040	1136	1136
9437184	656	656
9699328	496	496
9961472	640	624
10223616	1056	1040
10485760	656	656
10747904	1312	1296
11010048	336	336
11272192	1104	1104
11534336	1264	1264
11796480	624	624
12058624	624	624
12320768	640	640
12582912	544	544
12845056	336	336
13107200	256	256
13369344	368	368
13631488	560	560
13893632	352	352
14155776	272	272
14417920	208	208
14680064	592	592
14942208	464	464
15204352	656	656
15466496	432	432
15728640	816	816
15990784	192	176
16252928	208	208
16515072	224	224
16777216	560	544
17301504	960	784
17825792	816	816
18350080	640	640
18874368	432	432
19398656	1200	1200
19922944	240	240
20447232	208	208
20971520	944	768
21495808	96	96
22020096	496	496
22544384	288	288
23068672	160	160
23592960	256	256
24117248	128	128
24641536	208	208
25165824	192	176
25690112	128	128
26214400	176	176
26738688	160	160
27262976	160	160
27787264	432	432
28311552	464	464
28835840	288	288
29360128	48	48
29884416	64	64
30408704	160	160
30932992	384	384
31457280	336	336
31981568	96	96
32505856	48	48
33030144	96	96
33554432	160	160
34603008	512	512
35651584	256	256
36700160	160	160
37748736	160	160
38797312	704	704
39845888	128	128
40894464	240	240
41943040	80	80
42991616	144	144
44040192	368	368
45088768	128	128
46137344	80	80
47185920	32	32
48234496	784	784
49283072	96	96
50331648	192	192
51380224	320	320
52428800	528	528
53477376	304	304
54525952	608	608
55574528	272	272
56623104	336	336
57671680	80	80
58720256	256	256
59768832	48	48
60817408	112	112
61865984	48	48
62914560	64	64
63963136	304	304
65011712	288	288
66060288	368	368
67108864	32	32
69206016	400	400
71303168	336	336
73400320	448	448
75497472	592	592
77594624	208	208
79691776	32	32
81788928	256	16
83886080	64	64
85983232	0	0
88080384	64	64
90177536	176	176
92274688	496	32
94371840	32	32
96468992	240	240
98566144	16	16
100663296	16	16
102760448	16	16
104857600	512	512
106954752	0	0
109051904	256	256
111149056	160	160
113246208	32	32
115343360	0	0
117440512	0	0
119537664	464	464
121634816	32	32
123731968	16	16
125829120	576	304
127926272	48	48
130023424	16	16
132120576	16	16
134217728	0	0
138412032	0	0
142606336	464	224
146800640	224	224
150994944	16	16
155189248	48	48
159383552	48	48
163577856	32	32
167772160	240	240
171966464	272	272
176160768	272	272
180355072	16	16
184549376	32	32
188743680	32	32
192937984	0	0
197132288	0	0
201326592	0	0
205520896	0	0
209715200	38384	18736
213909504	272	272
218103808	0	0
222298112	0	0
226492416	16	0
230686720	16	16
234881024	0	0
239075328	0	0
243269632	0	0
247463936	0	0
251658240	0	0
255852544	0	0
260046848	336	336
264241152	16	16
268435456	0	0
276824064	16	16
285212672	0	0
293601280	0	0
301989888	0	0
310378496	0	0
318767104	32	32
327155712	0	0
335544320	0	0
343932928	0	0
352321536	0	0
360710144	0	0
369098752	0	0
377487360	0	0
385875968	0	0
394264576	0	0
402653184	0	0
411041792	0	0
419430400	0	0
427819008	0	0
436207616	0	0
444596224	0	0
452984832	0	0
461373440	0	0
469762048	0	0
478150656	0	0
486539264	0	0
494927872	0	0
503316480	0	0
511705088	0	0
520093696	0	0
528482304	0	0
536870912	0	0
553648128	0	0
570425344	0	0
587202560	0	0
603979776	0	0
620756992	0	0
637534208	0	0
654311424	0	0
671088640	0	0
687865856	0	0
704643072	0	0
721420288	0	0
738197504	0	0
754974720	0	0
771751936	0	0
788529152	0	0
805306368	0	0
822083584	0	0
838860800	0	0
855638016	0	0
872415232	0	0
889192448	0	0
905969664	0	0
922746880	0	0
939524096	0	0
956301312	0	0
973078528	0	0
989855744	0	0
1006632960	0	0
1023410176	0	0
1040187392	0	0
1056964608	0	0
1073741824	0	0
1107296256	0	0
1140850688	0	0
1174405120	0	0
1207959552	0	0
1241513984	0	0
1275068416	0	0
1308622848	0	0
1342177280	0	0
1375731712	0	0
1409286144	0	0
1442840576	0	0
1476395008	0	0
1509949440	0	0
1543503872	0	0
1577058304	0	0
1610612736	0	0
1644167168	0	0
1677721600	0	0
1711276032	0	0
1744830464	0	0
1778384896	0	0
1811939328	0	0
1845493760	0	0
1879048192	0	0
1912602624	0	0
1946157056	0	0
1979711488	0	0
2013265920	0	0
2046820352	0	0
2080374784	0	0
2113929216	0	0
2147483648	0	0
2214592512	0	0
2281701376	0	0
2348810240	0	0
2415919104	0	0
2483027968	0	0
2550136832	0	0
2617245696	0	0
2684354560	0	0
2751463424	0	0
2818572288	0	0
2885681152	0	0
2952790016	0	0
3019898880	0	0
3087007744	0	0
3154116608	0	0
3221225472	0	0
3288334336	0	0
3355443200	0	0
3422552064	0	0
3489660928	0	0
3556769792	0	0
3623878656	0	0
3690987520	0	0
3758096384	0	0
3825205248	0	0
3892314112	0	0
3959422976	0	0
4026531840	0	0
4093640704	0	0
4160749568	0	0
4227858432	0	0
~~~~~~~~~~Reuse Distance Profiler output end~~~~~~~~~~

Sampler size:5171

DRAM Statistics
 CHANNEL 0
 RQ ROW_BUFFER_HIT:      17832  ROW_BUFFER_MISS:      81054
 DBUS AVG_CONGESTED_CYCLE:    3.84202
 WQ ROW_BUFFER_HIT:       2758  ROW_BUFFER_MISS:      15779  FULL:          0


CPU 0 Branch Prediction Accuracy: 84.995% MPKI: 24.6754 Average ROB Occupancy at Mispredict: 19.8894
Branch type MPKI
BRANCH_DIRECT_JUMP: 7.46667e-05
BRANCH_INDIRECT: 0.000662
BRANCH_CONDITIONAL: 24.6745
BRANCH_DIRECT_CALL: 0.000103333
BRANCH_INDIRECT_CALL: 1.33333e-05
BRANCH_RETURN: 9.33333e-05

