
*** ChampSim Multicore Out-of-Order Simulator ***

Warmup Instructions: 50000000
Simulation Instructions: 1500000000
Number of CPUs: 1
Off-chip DRAM Size: 4 GiB Channels: 1 Width: 64-bit Data Rate: 3200 MT/s

VirtualMemory physical capacity: 8588881920 num_ppages: 2096895
VirtualMemory page size: 4096 log2_page_size: 12

CPU 0 runs /s/traces/champsim_traces/644.nab_s-12521B.champsimtrace.xz
CPU 0 Bimodal branch predictor
Basic BTB sets: 1024 ways: 8 indirect buffer size: 4096 RAS size: 64
Initializing LRU.
Initializing LRU.
Initializing LRU.
Initializing LRU.
Initializing rdLRU.
Initializing LRU.
Initializing LRU.
Heartbeat CPU 0 instructions: 2000000 cycles: 587022 heartbeat IPC: 3.40703 cumulative IPC: 3.40703 (Simulation time: 0 hr 1 min 22 sec) 
Heartbeat CPU 0 instructions: 4000002 cycles: 1173932 heartbeat IPC: 3.40768 cumulative IPC: 3.40735 (Simulation time: 0 hr 2 min 42 sec) 
Heartbeat CPU 0 instructions: 6000000 cycles: 1760793 heartbeat IPC: 3.40796 cumulative IPC: 3.40756 (Simulation time: 0 hr 4 min 9 sec) 
Heartbeat CPU 0 instructions: 8000003 cycles: 2347600 heartbeat IPC: 3.40828 cumulative IPC: 3.40774 (Simulation time: 0 hr 5 min 23 sec) 
Heartbeat CPU 0 instructions: 10000002 cycles: 2934345 heartbeat IPC: 3.40863 cumulative IPC: 3.40792 (Simulation time: 0 hr 6 min 42 sec) 
Heartbeat CPU 0 instructions: 12000002 cycles: 3521089 heartbeat IPC: 3.40864 cumulative IPC: 3.40804 (Simulation time: 0 hr 7 min 57 sec) 
Heartbeat CPU 0 instructions: 14000003 cycles: 4107861 heartbeat IPC: 3.40848 cumulative IPC: 3.4081 (Simulation time: 0 hr 9 min 20 sec) 
Heartbeat CPU 0 instructions: 16000004 cycles: 4694731 heartbeat IPC: 3.40791 cumulative IPC: 3.40808 (Simulation time: 0 hr 10 min 41 sec) 
Heartbeat CPU 0 instructions: 18000001 cycles: 5281586 heartbeat IPC: 3.40799 cumulative IPC: 3.40807 (Simulation time: 0 hr 12 min 3 sec) 
Heartbeat CPU 0 instructions: 20000000 cycles: 5868390 heartbeat IPC: 3.40829 cumulative IPC: 3.40809 (Simulation time: 0 hr 13 min 22 sec) 
Heartbeat CPU 0 instructions: 22000002 cycles: 6455170 heartbeat IPC: 3.40844 cumulative IPC: 3.40812 (Simulation time: 0 hr 14 min 41 sec) 
Heartbeat CPU 0 instructions: 24000004 cycles: 7042075 heartbeat IPC: 3.40771 cumulative IPC: 3.40809 (Simulation time: 0 hr 15 min 59 sec) 
Heartbeat CPU 0 instructions: 26000001 cycles: 7628998 heartbeat IPC: 3.4076 cumulative IPC: 3.40805 (Simulation time: 0 hr 17 min 23 sec) 
Heartbeat CPU 0 instructions: 28000000 cycles: 8215898 heartbeat IPC: 3.40773 cumulative IPC: 3.40803 (Simulation time: 0 hr 18 min 44 sec) 
Heartbeat CPU 0 instructions: 30000003 cycles: 8802636 heartbeat IPC: 3.40868 cumulative IPC: 3.40807 (Simulation time: 0 hr 20 min 1 sec) 
Heartbeat CPU 0 instructions: 32000004 cycles: 9389090 heartbeat IPC: 3.41033 cumulative IPC: 3.40821 (Simulation time: 0 hr 21 min 16 sec) 
Heartbeat CPU 0 instructions: 34000003 cycles: 9975588 heartbeat IPC: 3.41007 cumulative IPC: 3.40832 (Simulation time: 0 hr 22 min 35 sec) 
Heartbeat CPU 0 instructions: 36000003 cycles: 10562567 heartbeat IPC: 3.40728 cumulative IPC: 3.40826 (Simulation time: 0 hr 23 min 52 sec) 
Heartbeat CPU 0 instructions: 38000001 cycles: 11149520 heartbeat IPC: 3.40742 cumulative IPC: 3.40822 (Simulation time: 0 hr 25 min 14 sec) 
Heartbeat CPU 0 instructions: 40000002 cycles: 11736470 heartbeat IPC: 3.40745 cumulative IPC: 3.40818 (Simulation time: 0 hr 26 min 30 sec) 
Heartbeat CPU 0 instructions: 42000002 cycles: 12323360 heartbeat IPC: 3.40779 cumulative IPC: 3.40816 (Simulation time: 0 hr 27 min 44 sec) 
Heartbeat CPU 0 instructions: 44000000 cycles: 12910234 heartbeat IPC: 3.40788 cumulative IPC: 3.40815 (Simulation time: 0 hr 29 min 7 sec) 
Heartbeat CPU 0 instructions: 46000003 cycles: 13497142 heartbeat IPC: 3.40769 cumulative IPC: 3.40813 (Simulation time: 0 hr 30 min 24 sec) 
Heartbeat CPU 0 instructions: 48000003 cycles: 14084106 heartbeat IPC: 3.40736 cumulative IPC: 3.4081 (Simulation time: 0 hr 31 min 41 sec) 
Heartbeat CPU 0 instructions: 50000000 cycles: 14671057 heartbeat IPC: 3.40743 cumulative IPC: 3.40807 (Simulation time: 0 hr 32 min 56 sec) 

Warmup complete CPU 0 instructions: 50000005 cycles: 14671058 (Simulation time: 0 hr 32 min 56 sec) 

Heartbeat CPU 0 instructions: 52000003 cycles: 15714390 heartbeat IPC: 1.91694 cumulative IPC: 1.91693 (Simulation time: 0 hr 34 min 34 sec) 

Region of Interest Statistics
cpu0_DTLB TOTAL     ACCESS:     426097  HIT:     425953  MISS:        144
cpu0_DTLB LOAD      ACCESS:     407477  HIT:     407333  MISS:        144
cpu0_DTLB RFO       ACCESS:      18620  HIT:      18620  MISS:          0
cpu0_DTLB PREFETCH  ACCESS:          0  HIT:          0  MISS:          0
cpu0_DTLB WRITEBACK ACCESS:          0  HIT:          0  MISS:          0
cpu0_ITLB TOTAL     ACCESS:       1467  HIT:       1467  MISS:          0
cpu0_ITLB LOAD      ACCESS:       1467  HIT:       1467  MISS:          0
cpu0_ITLB RFO       ACCESS:          0  HIT:          0  MISS:          0
cpu0_ITLB PREFETCH  ACCESS:          0  HIT:          0  MISS:          0
cpu0_ITLB WRITEBACK ACCESS:          0  HIT:          0  MISS:          0
cpu0_STLB TOTAL     ACCESS:        144  HIT:        108  MISS:         36
cpu0_STLB LOAD      ACCESS:        144  HIT:        108  MISS:         36
cpu0_STLB RFO       ACCESS:          0  HIT:          0  MISS:          0
cpu0_STLB PREFETCH  ACCESS:          0  HIT:          0  MISS:          0
cpu0_STLB WRITEBACK ACCESS:          0  HIT:          0  MISS:          0
cpu0_L1D TOTAL     ACCESS:     526149  HIT:     507500  MISS:      18649
cpu0_L1D LOAD      ACCESS:     470818  HIT:     452219  MISS:      18599
cpu0_L1D RFO       ACCESS:      55295  HIT:      55263  MISS:         32
cpu0_L1D PREFETCH  ACCESS:          0  HIT:          0  MISS:          0
cpu0_L1D WRITEBACK ACCESS:          0  HIT:          0  MISS:          0
cpu0_L2C TOTAL     ACCESS:      24874  HIT:      14239  MISS:      10635
cpu0_L2C LOAD      ACCESS:      18599  HIT:       9362  MISS:       9237
cpu0_L2C RFO       ACCESS:         32  HIT:         18  MISS:         14
cpu0_L2C PREFETCH  ACCESS:          0  HIT:          0  MISS:          0
cpu0_L2C WRITEBACK ACCESS:       6225  HIT:       4854  MISS:       1371
LLC TOTAL     ACCESS:      11987  HIT:      10789  MISS:       1198
LLC LOAD      ACCESS:       9237  HIT:       8039  MISS:       1198
LLC RFO       ACCESS:         14  HIT:         14  MISS:          0
LLC PREFETCH  ACCESS:          0  HIT:          0  MISS:          0
LLC WRITEBACK ACCESS:       2723  HIT:       2723  MISS:          0
Heartbeat CPU 0 instructions: 54000002 cycles: 16782598 heartbeat IPC: 1.87229 cumulative IPC: 1.89435 (Simulation time: 0 hr 36 min 10 sec) 

Region of Interest Statistics
cpu0_DTLB TOTAL     ACCESS:     852062  HIT:     851619  MISS:        443
cpu0_DTLB LOAD      ACCESS:     814796  HIT:     814355  MISS:        441
cpu0_DTLB RFO       ACCESS:      37266  HIT:      37264  MISS:          2
cpu0_DTLB PREFETCH  ACCESS:          0  HIT:          0  MISS:          0
cpu0_DTLB WRITEBACK ACCESS:          0  HIT:          0  MISS:          0
cpu0_ITLB TOTAL     ACCESS:       5631  HIT:       5631  MISS:          0
cpu0_ITLB LOAD      ACCESS:       5631  HIT:       5631  MISS:          0
cpu0_ITLB RFO       ACCESS:          0  HIT:          0  MISS:          0
cpu0_ITLB PREFETCH  ACCESS:          0  HIT:          0  MISS:          0
cpu0_ITLB WRITEBACK ACCESS:          0  HIT:          0  MISS:          0
cpu0_STLB TOTAL     ACCESS:        443  HIT:        335  MISS:        108
cpu0_STLB LOAD      ACCESS:        441  HIT:        333  MISS:        108
cpu0_STLB RFO       ACCESS:          2  HIT:          2  MISS:          0
cpu0_STLB PREFETCH  ACCESS:          0  HIT:          0  MISS:          0
cpu0_STLB WRITEBACK ACCESS:          0  HIT:          0  MISS:          0
cpu0_L1D TOTAL     ACCESS:    1060716  HIT:    1038936  MISS:      21780
cpu0_L1D LOAD      ACCESS:     949587  HIT:     927883  MISS:      21704
cpu0_L1D RFO       ACCESS:     111021  HIT:     110964  MISS:         57
cpu0_L1D PREFETCH  ACCESS:          0  HIT:          0  MISS:          0
cpu0_L1D WRITEBACK ACCESS:          0  HIT:          0  MISS:          0
cpu0_L2C TOTAL     ACCESS:      28684  HIT:      16424  MISS:      12260
cpu0_L2C LOAD      ACCESS:      21703  HIT:      10927  MISS:      10776
cpu0_L2C RFO       ACCESS:         57  HIT:         41  MISS:         16
cpu0_L2C PREFETCH  ACCESS:          0  HIT:          0  MISS:          0
cpu0_L2C WRITEBACK ACCESS:       6905  HIT:       5451  MISS:       1454
LLC TOTAL     ACCESS:      13825  HIT:      11363  MISS:       2462
LLC LOAD      ACCESS:      10776  HIT:       8314  MISS:       2462
LLC RFO       ACCESS:         16  HIT:         16  MISS:          0
LLC PREFETCH  ACCESS:          0  HIT:          0  MISS:          0
LLC WRITEBACK ACCESS:       3019  HIT:       3019  MISS:          0
Heartbeat CPU 0 instructions: 56000001 cycles: 17861552 heartbeat IPC: 1.85365 cumulative IPC: 1.88059 (Simulation time: 0 hr 37 min 47 sec) 

Region of Interest Statistics
cpu0_DTLB TOTAL     ACCESS:    1280219  HIT:    1279540  MISS:        679
cpu0_DTLB LOAD      ACCESS:    1224201  HIT:    1223525  MISS:        676
cpu0_DTLB RFO       ACCESS:      56018  HIT:      56015  MISS:          3
cpu0_DTLB PREFETCH  ACCESS:          0  HIT:          0  MISS:          0
cpu0_DTLB WRITEBACK ACCESS:          0  HIT:          0  MISS:          0
cpu0_ITLB TOTAL     ACCESS:      10581  HIT:      10581  MISS:          0
cpu0_ITLB LOAD      ACCESS:      10581  HIT:      10581  MISS:          0
cpu0_ITLB RFO       ACCESS:          0  HIT:          0  MISS:          0
cpu0_ITLB PREFETCH  ACCESS:          0  HIT:          0  MISS:          0
cpu0_ITLB WRITEBACK ACCESS:          0  HIT:          0  MISS:          0
cpu0_STLB TOTAL     ACCESS:        679  HIT:        485  MISS:        194
cpu0_STLB LOAD      ACCESS:        676  HIT:        482  MISS:        194
cpu0_STLB RFO       ACCESS:          3  HIT:          3  MISS:          0
cpu0_STLB PREFETCH  ACCESS:          0  HIT:          0  MISS:          0
cpu0_STLB WRITEBACK ACCESS:          0  HIT:          0  MISS:          0
cpu0_L1D TOTAL     ACCESS:    1595325  HIT:    1571862  MISS:      23463
cpu0_L1D LOAD      ACCESS:    1428196  HIT:    1404813  MISS:      23383
cpu0_L1D RFO       ACCESS:     166935  HIT:     166875  MISS:         60
cpu0_L1D PREFETCH  ACCESS:          0  HIT:          0  MISS:          0
cpu0_L1D WRITEBACK ACCESS:          0  HIT:          0  MISS:          0
cpu0_L2C TOTAL     ACCESS:      30528  HIT:      16656  MISS:      13872
cpu0_L2C LOAD      ACCESS:      23382  HIT:      11081  MISS:      12301
cpu0_L2C RFO       ACCESS:         60  HIT:         44  MISS:         16
cpu0_L2C PREFETCH  ACCESS:          0  HIT:          0  MISS:          0
cpu0_L2C WRITEBACK ACCESS:       7066  HIT:       5526  MISS:       1540
LLC TOTAL     ACCESS:      15456  HIT:      11694  MISS:       3762
LLC LOAD      ACCESS:      12301  HIT:       8539  MISS:       3762
LLC RFO       ACCESS:         16  HIT:         16  MISS:          0
LLC PREFETCH  ACCESS:          0  HIT:          0  MISS:          0
LLC WRITEBACK ACCESS:       3124  HIT:       3124  MISS:          0
Heartbeat CPU 0 instructions: 58000000 cycles: 18933528 heartbeat IPC: 1.86571 cumulative IPC: 1.87684 (Simulation time: 0 hr 39 min 27 sec) 

Region of Interest Statistics
cpu0_DTLB TOTAL     ACCESS:    1705807  HIT:    1705021  MISS:        786
cpu0_DTLB LOAD      ACCESS:    1631090  HIT:    1630308  MISS:        782
cpu0_DTLB RFO       ACCESS:      74717  HIT:      74713  MISS:          4
cpu0_DTLB PREFETCH  ACCESS:          0  HIT:          0  MISS:          0
cpu0_DTLB WRITEBACK ACCESS:          0  HIT:          0  MISS:          0
cpu0_ITLB TOTAL     ACCESS:      15104  HIT:      15104  MISS:          0
cpu0_ITLB LOAD      ACCESS:      15104  HIT:      15104  MISS:          0
cpu0_ITLB RFO       ACCESS:          0  HIT:          0  MISS:          0
cpu0_ITLB PREFETCH  ACCESS:          0  HIT:          0  MISS:          0
cpu0_ITLB WRITEBACK ACCESS:          0  HIT:          0  MISS:          0
cpu0_STLB TOTAL     ACCESS:        786  HIT:        513  MISS:        273
cpu0_STLB LOAD      ACCESS:        782  HIT:        509  MISS:        273
cpu0_STLB RFO       ACCESS:          4  HIT:          4  MISS:          0
cpu0_STLB PREFETCH  ACCESS:          0  HIT:          0  MISS:          0
cpu0_STLB WRITEBACK ACCESS:          0  HIT:          0  MISS:          0
cpu0_L1D TOTAL     ACCESS:    2129822  HIT:    2104318  MISS:      25504
cpu0_L1D LOAD      ACCESS:    1906775  HIT:    1881356  MISS:      25419
cpu0_L1D RFO       ACCESS:     222774  HIT:     222712  MISS:         62
cpu0_L1D PREFETCH  ACCESS:          0  HIT:          0  MISS:          0
cpu0_L1D WRITEBACK ACCESS:          0  HIT:          0  MISS:          0
cpu0_L2C TOTAL     ACCESS:      32794  HIT:      17165  MISS:      15629
cpu0_L2C LOAD      ACCESS:      25418  HIT:      11439  MISS:      13979
cpu0_L2C RFO       ACCESS:         62  HIT:         46  MISS:         16
cpu0_L2C PREFETCH  ACCESS:          0  HIT:          0  MISS:          0
cpu0_L2C WRITEBACK ACCESS:       7291  HIT:       5675  MISS:       1616
LLC TOTAL     ACCESS:      17254  HIT:      12208  MISS:       5046
LLC LOAD      ACCESS:      13979  HIT:       8933  MISS:       5046
LLC RFO       ACCESS:         16  HIT:         16  MISS:          0
LLC PREFETCH  ACCESS:          0  HIT:          0  MISS:          0
LLC WRITEBACK ACCESS:       3241  HIT:       3241  MISS:          0
Heartbeat CPU 0 instructions: 60000000 cycles: 19994108 heartbeat IPC: 1.88576 cumulative IPC: 1.87862 (Simulation time: 0 hr 41 min 5 sec) 

Region of Interest Statistics
cpu0_DTLB TOTAL     ACCESS:    2132835  HIT:    2131947  MISS:        888
cpu0_DTLB LOAD      ACCESS:    2039490  HIT:    2038606  MISS:        884
cpu0_DTLB RFO       ACCESS:      93345  HIT:      93341  MISS:          4
cpu0_DTLB PREFETCH  ACCESS:          0  HIT:          0  MISS:          0
cpu0_DTLB WRITEBACK ACCESS:          0  HIT:          0  MISS:          0
cpu0_ITLB TOTAL     ACCESS:      18552  HIT:      18552  MISS:          0
cpu0_ITLB LOAD      ACCESS:      18552  HIT:      18552  MISS:          0
cpu0_ITLB RFO       ACCESS:          0  HIT:          0  MISS:          0
cpu0_ITLB PREFETCH  ACCESS:          0  HIT:          0  MISS:          0
cpu0_ITLB WRITEBACK ACCESS:          0  HIT:          0  MISS:          0
cpu0_STLB TOTAL     ACCESS:        888  HIT:        548  MISS:        340
cpu0_STLB LOAD      ACCESS:        884  HIT:        544  MISS:        340
cpu0_STLB RFO       ACCESS:          4  HIT:          4  MISS:          0
cpu0_STLB PREFETCH  ACCESS:          0  HIT:          0  MISS:          0
cpu0_STLB WRITEBACK ACCESS:          0  HIT:          0  MISS:          0
cpu0_L1D TOTAL     ACCESS:    2664076  HIT:    2635220  MISS:      28856
cpu0_L1D LOAD      ACCESS:    2385348  HIT:    2356581  MISS:      28767
cpu0_L1D RFO       ACCESS:     278388  HIT:     278323  MISS:         65
cpu0_L1D PREFETCH  ACCESS:          0  HIT:          0  MISS:          0
cpu0_L1D WRITEBACK ACCESS:          0  HIT:          0  MISS:          0
cpu0_L2C TOTAL     ACCESS:      36828  HIT:      19131  MISS:      17697
cpu0_L2C LOAD      ACCESS:      28766  HIT:      12895  MISS:      15871
cpu0_L2C RFO       ACCESS:         65  HIT:         49  MISS:         16
cpu0_L2C PREFETCH  ACCESS:          0  HIT:          0  MISS:          0
cpu0_L2C WRITEBACK ACCESS:       7973  HIT:       6182  MISS:       1791
LLC TOTAL     ACCESS:      19360  HIT:      13072  MISS:       6288
LLC LOAD      ACCESS:      15871  HIT:       9583  MISS:       6288
LLC RFO       ACCESS:         16  HIT:         16  MISS:          0
LLC PREFETCH  ACCESS:          0  HIT:          0  MISS:          0
LLC WRITEBACK ACCESS:       3454  HIT:       3454  MISS:          0
Heartbeat CPU 0 instructions: 62000000 cycles: 21044435 heartbeat IPC: 1.90417 cumulative IPC: 1.88283 (Simulation time: 0 hr 42 min 40 sec) 

Region of Interest Statistics
cpu0_DTLB TOTAL     ACCESS:    2557470  HIT:    2556503  MISS:        967
cpu0_DTLB LOAD      ACCESS:    2445543  HIT:    2444581  MISS:        962
cpu0_DTLB RFO       ACCESS:     111927  HIT:     111922  MISS:          5
cpu0_DTLB PREFETCH  ACCESS:          0  HIT:          0  MISS:          0
cpu0_DTLB WRITEBACK ACCESS:          0  HIT:          0  MISS:          0
cpu0_ITLB TOTAL     ACCESS:      21136  HIT:      21136  MISS:          0
cpu0_ITLB LOAD      ACCESS:      21136  HIT:      21136  MISS:          0
cpu0_ITLB RFO       ACCESS:          0  HIT:          0  MISS:          0
cpu0_ITLB PREFETCH  ACCESS:          0  HIT:          0  MISS:          0
cpu0_ITLB WRITEBACK ACCESS:          0  HIT:          0  MISS:          0
cpu0_STLB TOTAL     ACCESS:        967  HIT:        571  MISS:        396
cpu0_STLB LOAD      ACCESS:        962  HIT:        566  MISS:        396
cpu0_STLB RFO       ACCESS:          5  HIT:          5  MISS:          0
cpu0_STLB PREFETCH  ACCESS:          0  HIT:          0  MISS:          0
cpu0_STLB WRITEBACK ACCESS:          0  HIT:          0  MISS:          0
cpu0_L1D TOTAL     ACCESS:    3197724  HIT:    3164155  MISS:      33569
cpu0_L1D LOAD      ACCESS:    2863441  HIT:    2829963  MISS:      33478
cpu0_L1D RFO       ACCESS:     333887  HIT:     333820  MISS:         67
cpu0_L1D PREFETCH  ACCESS:          0  HIT:          0  MISS:          0
cpu0_L1D WRITEBACK ACCESS:          0  HIT:          0  MISS:          0
cpu0_L2C TOTAL     ACCESS:      42772  HIT:      22709  MISS:      20063
cpu0_L2C LOAD      ACCESS:      33477  HIT:      15494  MISS:      17983
cpu0_L2C RFO       ACCESS:         67  HIT:         51  MISS:         16
cpu0_L2C PREFETCH  ACCESS:          0  HIT:          0  MISS:          0
cpu0_L2C WRITEBACK ACCESS:       9204  HIT:       7159  MISS:       2045
LLC TOTAL     ACCESS:      21896  HIT:      14380  MISS:       7516
LLC LOAD      ACCESS:      17983  HIT:      10467  MISS:       7516
LLC RFO       ACCESS:         16  HIT:         16  MISS:          0
LLC PREFETCH  ACCESS:          0  HIT:          0  MISS:          0
LLC WRITEBACK ACCESS:       3878  HIT:       3878  MISS:          0
Heartbeat CPU 0 instructions: 64000000 cycles: 22103924 heartbeat IPC: 1.8877 cumulative IPC: 1.88353 (Simulation time: 0 hr 44 min 14 sec) 

Region of Interest Statistics
cpu0_DTLB TOTAL     ACCESS:    2983272  HIT:    2982164  MISS:       1108
cpu0_DTLB LOAD      ACCESS:    2852691  HIT:    2851588  MISS:       1103
cpu0_DTLB RFO       ACCESS:     130581  HIT:     130576  MISS:          5
cpu0_DTLB PREFETCH  ACCESS:          0  HIT:          0  MISS:          0
cpu0_DTLB WRITEBACK ACCESS:          0  HIT:          0  MISS:          0
cpu0_ITLB TOTAL     ACCESS:      24598  HIT:      24598  MISS:          0
cpu0_ITLB LOAD      ACCESS:      24598  HIT:      24598  MISS:          0
cpu0_ITLB RFO       ACCESS:          0  HIT:          0  MISS:          0
cpu0_ITLB PREFETCH  ACCESS:          0  HIT:          0  MISS:          0
cpu0_ITLB WRITEBACK ACCESS:          0  HIT:          0  MISS:          0
cpu0_STLB TOTAL     ACCESS:       1108  HIT:        646  MISS:        462
cpu0_STLB LOAD      ACCESS:       1103  HIT:        641  MISS:        462
cpu0_STLB RFO       ACCESS:          5  HIT:          5  MISS:          0
cpu0_STLB PREFETCH  ACCESS:          0  HIT:          0  MISS:          0
cpu0_STLB WRITEBACK ACCESS:          0  HIT:          0  MISS:          0
cpu0_L1D TOTAL     ACCESS:    3731265  HIT:    3693166  MISS:      38099
cpu0_L1D LOAD      ACCESS:    3341276  HIT:    3303280  MISS:      37996
cpu0_L1D RFO       ACCESS:     389527  HIT:     389451  MISS:         76
cpu0_L1D PREFETCH  ACCESS:          0  HIT:          0  MISS:          0
cpu0_L1D WRITEBACK ACCESS:          0  HIT:          0  MISS:          0
cpu0_L2C TOTAL     ACCESS:      48427  HIT:      25507  MISS:      22920
cpu0_L2C LOAD      ACCESS:      37996  HIT:      17608  MISS:      20388
cpu0_L2C RFO       ACCESS:         76  HIT:         60  MISS:         16
cpu0_L2C PREFETCH  ACCESS:          0  HIT:          0  MISS:          0
cpu0_L2C WRITEBACK ACCESS:      10328  HIT:       7834  MISS:       2494
LLC TOTAL     ACCESS:      24752  HIT:      15978  MISS:       8774
LLC LOAD      ACCESS:      20388  HIT:      11614  MISS:       8774
LLC RFO       ACCESS:         16  HIT:         16  MISS:          0
LLC PREFETCH  ACCESS:          0  HIT:          0  MISS:          0
LLC WRITEBACK ACCESS:       4326  HIT:       4326  MISS:          0
Heartbeat CPU 0 instructions: 66000002 cycles: 23151050 heartbeat IPC: 1.90999 cumulative IPC: 1.88679 (Simulation time: 0 hr 45 min 44 sec) 

Region of Interest Statistics
cpu0_DTLB TOTAL     ACCESS:    3406900  HIT:    3405688  MISS:       1212
cpu0_DTLB LOAD      ACCESS:    3257739  HIT:    3256532  MISS:       1207
cpu0_DTLB RFO       ACCESS:     149161  HIT:     149156  MISS:          5
cpu0_DTLB PREFETCH  ACCESS:          0  HIT:          0  MISS:          0
cpu0_DTLB WRITEBACK ACCESS:          0  HIT:          0  MISS:          0
cpu0_ITLB TOTAL     ACCESS:      26591  HIT:      26591  MISS:          0
cpu0_ITLB LOAD      ACCESS:      26591  HIT:      26591  MISS:          0
cpu0_ITLB RFO       ACCESS:          0  HIT:          0  MISS:          0
cpu0_ITLB PREFETCH  ACCESS:          0  HIT:          0  MISS:          0
cpu0_ITLB WRITEBACK ACCESS:          0  HIT:          0  MISS:          0
cpu0_STLB TOTAL     ACCESS:       1212  HIT:        703  MISS:        509
cpu0_STLB LOAD      ACCESS:       1207  HIT:        698  MISS:        509
cpu0_STLB RFO       ACCESS:          5  HIT:          5  MISS:          0
cpu0_STLB PREFETCH  ACCESS:          0  HIT:          0  MISS:          0
cpu0_STLB WRITEBACK ACCESS:          0  HIT:          0  MISS:          0
cpu0_L1D TOTAL     ACCESS:    4262900  HIT:    4210952  MISS:      51948
cpu0_L1D LOAD      ACCESS:    3817496  HIT:    3765677  MISS:      51819
cpu0_L1D RFO       ACCESS:     444895  HIT:     444800  MISS:         95
cpu0_L1D PREFETCH  ACCESS:          0  HIT:          0  MISS:          0
cpu0_L1D WRITEBACK ACCESS:          0  HIT:          0  MISS:          0
cpu0_L2C TOTAL     ACCESS:      66690  HIT:      38756  MISS:      27934
cpu0_L2C LOAD      ACCESS:      51818  HIT:      27473  MISS:      24345
cpu0_L2C RFO       ACCESS:         95  HIT:         72  MISS:         23
cpu0_L2C PREFETCH  ACCESS:          0  HIT:          0  MISS:          0
cpu0_L2C WRITEBACK ACCESS:      14743  HIT:      11206  MISS:       3537
LLC TOTAL     ACCESS:      30282  HIT:      20292  MISS:       9990
LLC LOAD      ACCESS:      24345  HIT:      14355  MISS:       9990
LLC RFO       ACCESS:         23  HIT:         23  MISS:          0
LLC PREFETCH  ACCESS:          0  HIT:          0  MISS:          0
LLC WRITEBACK ACCESS:       5885  HIT:       5885  MISS:          0
Heartbeat CPU 0 instructions: 68000003 cycles: 24196689 heartbeat IPC: 1.91271 cumulative IPC: 1.88964 (Simulation time: 0 hr 47 min 19 sec) 

Region of Interest Statistics
cpu0_DTLB TOTAL     ACCESS:    3830883  HIT:    3829570  MISS:       1313
cpu0_DTLB LOAD      ACCESS:    3663121  HIT:    3661814  MISS:       1307
cpu0_DTLB RFO       ACCESS:     167762  HIT:     167756  MISS:          6
cpu0_DTLB PREFETCH  ACCESS:          0  HIT:          0  MISS:          0
cpu0_DTLB WRITEBACK ACCESS:          0  HIT:          0  MISS:          0
cpu0_ITLB TOTAL     ACCESS:      28790  HIT:      28790  MISS:          0
cpu0_ITLB LOAD      ACCESS:      28790  HIT:      28790  MISS:          0
cpu0_ITLB RFO       ACCESS:          0  HIT:          0  MISS:          0
cpu0_ITLB PREFETCH  ACCESS:          0  HIT:          0  MISS:          0
cpu0_ITLB WRITEBACK ACCESS:          0  HIT:          0  MISS:          0
cpu0_STLB TOTAL     ACCESS:       1313  HIT:        754  MISS:        559
cpu0_STLB LOAD      ACCESS:       1307  HIT:        748  MISS:        559
cpu0_STLB RFO       ACCESS:          6  HIT:          6  MISS:          0
cpu0_STLB PREFETCH  ACCESS:          0  HIT:          0  MISS:          0
cpu0_STLB WRITEBACK ACCESS:          0  HIT:          0  MISS:          0
cpu0_L1D TOTAL     ACCESS:    4795677  HIT:    4731911  MISS:      63766
cpu0_L1D LOAD      ACCESS:    4294805  HIT:    4231192  MISS:      63613
cpu0_L1D RFO       ACCESS:     500313  HIT:     500207  MISS:        106
cpu0_L1D PREFETCH  ACCESS:          0  HIT:          0  MISS:          0
cpu0_L1D WRITEBACK ACCESS:          0  HIT:          0  MISS:          0
cpu0_L2C TOTAL     ACCESS:      81894  HIT:      50195  MISS:      31699
cpu0_L2C LOAD      ACCESS:      63612  HIT:      35794  MISS:      27818
cpu0_L2C RFO       ACCESS:        106  HIT:         82  MISS:         24
cpu0_L2C PREFETCH  ACCESS:          0  HIT:          0  MISS:          0
cpu0_L2C WRITEBACK ACCESS:      18129  HIT:      14306  MISS:       3823
LLC TOTAL     ACCESS:      34495  HIT:      23291  MISS:      11204
LLC LOAD      ACCESS:      27818  HIT:      16614  MISS:      11204
LLC RFO       ACCESS:         24  HIT:         24  MISS:          0
LLC PREFETCH  ACCESS:          0  HIT:          0  MISS:          0
LLC WRITEBACK ACCESS:       6619  HIT:       6619  MISS:          0
Heartbeat CPU 0 instructions: 70000004 cycles: 25239985 heartbeat IPC: 1.917 cumulative IPC: 1.89234 (Simulation time: 0 hr 48 min 58 sec) 

Region of Interest Statistics
cpu0_DTLB TOTAL     ACCESS:    4254221  HIT:    4252732  MISS:       1489
cpu0_DTLB LOAD      ACCESS:    4067851  HIT:    4066370  MISS:       1481
cpu0_DTLB RFO       ACCESS:     186370  HIT:     186362  MISS:          8
cpu0_DTLB PREFETCH  ACCESS:          0  HIT:          0  MISS:          0
cpu0_DTLB WRITEBACK ACCESS:          0  HIT:          0  MISS:          0
cpu0_ITLB TOTAL     ACCESS:      30608  HIT:      30608  MISS:          0
cpu0_ITLB LOAD      ACCESS:      30608  HIT:      30608  MISS:          0
cpu0_ITLB RFO       ACCESS:          0  HIT:          0  MISS:          0
cpu0_ITLB PREFETCH  ACCESS:          0  HIT:          0  MISS:          0
cpu0_ITLB WRITEBACK ACCESS:          0  HIT:          0  MISS:          0
cpu0_STLB TOTAL     ACCESS:       1489  HIT:        885  MISS:        604
cpu0_STLB LOAD      ACCESS:       1481  HIT:        877  MISS:        604
cpu0_STLB RFO       ACCESS:          8  HIT:          8  MISS:          0
cpu0_STLB PREFETCH  ACCESS:          0  HIT:          0  MISS:          0
cpu0_STLB WRITEBACK ACCESS:          0  HIT:          0  MISS:          0
cpu0_L1D TOTAL     ACCESS:    5326158  HIT:    5243098  MISS:      83060
cpu0_L1D LOAD      ACCESS:    4769919  HIT:    4687050  MISS:      82869
cpu0_L1D RFO       ACCESS:     555635  HIT:     555504  MISS:        131
cpu0_L1D PREFETCH  ACCESS:          0  HIT:          0  MISS:          0
cpu0_L1D WRITEBACK ACCESS:          0  HIT:          0  MISS:          0
cpu0_L2C TOTAL     ACCESS:     107642  HIT:      69156  MISS:      38486
cpu0_L2C LOAD      ACCESS:      82868  HIT:      49118  MISS:      33750
cpu0_L2C RFO       ACCESS:        131  HIT:        104  MISS:         27
cpu0_L2C PREFETCH  ACCESS:          0  HIT:          0  MISS:          0
cpu0_L2C WRITEBACK ACCESS:      24583  HIT:      19917  MISS:       4666
LLC TOTAL     ACCESS:      42478  HIT:      30066  MISS:      12412
LLC LOAD      ACCESS:      33750  HIT:      21338  MISS:      12412
LLC RFO       ACCESS:         27  HIT:         27  MISS:          0
LLC PREFETCH  ACCESS:          0  HIT:          0  MISS:          0
LLC WRITEBACK ACCESS:       8658  HIT:       8658  MISS:          0
Heartbeat CPU 0 instructions: 72000004 cycles: 26287279 heartbeat IPC: 1.90968 cumulative IPC: 1.8939 (Simulation time: 0 hr 50 min 37 sec) 

Region of Interest Statistics
cpu0_DTLB TOTAL     ACCESS:    4678991  HIT:    4677335  MISS:       1656
cpu0_DTLB LOAD      ACCESS:    4473933  HIT:    4472286  MISS:       1647
cpu0_DTLB RFO       ACCESS:     205058  HIT:     205049  MISS:          9
cpu0_DTLB PREFETCH  ACCESS:          0  HIT:          0  MISS:          0
cpu0_DTLB WRITEBACK ACCESS:          0  HIT:          0  MISS:          0
cpu0_ITLB TOTAL     ACCESS:      32151  HIT:      32151  MISS:          0
cpu0_ITLB LOAD      ACCESS:      32151  HIT:      32151  MISS:          0
cpu0_ITLB RFO       ACCESS:          0  HIT:          0  MISS:          0
cpu0_ITLB PREFETCH  ACCESS:          0  HIT:          0  MISS:          0
cpu0_ITLB WRITEBACK ACCESS:          0  HIT:          0  MISS:          0
cpu0_STLB TOTAL     ACCESS:       1656  HIT:       1006  MISS:        650
cpu0_STLB LOAD      ACCESS:       1647  HIT:        997  MISS:        650
cpu0_STLB RFO       ACCESS:          9  HIT:          9  MISS:          0
cpu0_STLB PREFETCH  ACCESS:          0  HIT:          0  MISS:          0
cpu0_STLB WRITEBACK ACCESS:          0  HIT:          0  MISS:          0
cpu0_L1D TOTAL     ACCESS:    5855644  HIT:    5753957  MISS:     101687
cpu0_L1D LOAD      ACCESS:    5244043  HIT:    5142583  MISS:     101460
cpu0_L1D RFO       ACCESS:     610951  HIT:     610796  MISS:        155
cpu0_L1D PREFETCH  ACCESS:          0  HIT:          0  MISS:          0
cpu0_L1D WRITEBACK ACCESS:          0  HIT:          0  MISS:          0
cpu0_L2C TOTAL     ACCESS:     132350  HIT:      86704  MISS:      45646
cpu0_L2C LOAD      ACCESS:     101459  HIT:      60961  MISS:      40498
cpu0_L2C RFO       ACCESS:        155  HIT:        124  MISS:         31
cpu0_L2C PREFETCH  ACCESS:          0  HIT:          0  MISS:          0
cpu0_L2C WRITEBACK ACCESS:      30664  HIT:      25597  MISS:       5067
LLC TOTAL     ACCESS:      50933  HIT:      37301  MISS:      13632
LLC LOAD      ACCESS:      40498  HIT:      26866  MISS:      13632
LLC RFO       ACCESS:         31  HIT:         31  MISS:          0
LLC PREFETCH  ACCESS:          0  HIT:          0  MISS:          0
LLC WRITEBACK ACCESS:      10354  HIT:      10354  MISS:          0
Heartbeat CPU 0 instructions: 74000000 cycles: 27330675 heartbeat IPC: 1.91681 cumulative IPC: 1.89579 (Simulation time: 0 hr 52 min 12 sec) 

Region of Interest Statistics
cpu0_DTLB TOTAL     ACCESS:    5105218  HIT:    5103430  MISS:       1788
cpu0_DTLB LOAD      ACCESS:    4881459  HIT:    4879682  MISS:       1777
cpu0_DTLB RFO       ACCESS:     223759  HIT:     223748  MISS:         11
cpu0_DTLB PREFETCH  ACCESS:          0  HIT:          0  MISS:          0
cpu0_DTLB WRITEBACK ACCESS:          0  HIT:          0  MISS:          0
cpu0_ITLB TOTAL     ACCESS:      33853  HIT:      33853  MISS:          0
cpu0_ITLB LOAD      ACCESS:      33853  HIT:      33853  MISS:          0
cpu0_ITLB RFO       ACCESS:          0  HIT:          0  MISS:          0
cpu0_ITLB PREFETCH  ACCESS:          0  HIT:          0  MISS:          0
cpu0_ITLB WRITEBACK ACCESS:          0  HIT:          0  MISS:          0
cpu0_STLB TOTAL     ACCESS:       1788  HIT:       1101  MISS:        687
cpu0_STLB LOAD      ACCESS:       1777  HIT:       1090  MISS:        687
cpu0_STLB RFO       ACCESS:         11  HIT:         11  MISS:          0
cpu0_STLB PREFETCH  ACCESS:          0  HIT:          0  MISS:          0
cpu0_STLB WRITEBACK ACCESS:          0  HIT:          0  MISS:          0
cpu0_L1D TOTAL     ACCESS:    6384349  HIT:    6263523  MISS:     120826
cpu0_L1D LOAD      ACCESS:    5717422  HIT:    5596870  MISS:     120552
cpu0_L1D RFO       ACCESS:     666240  HIT:     666055  MISS:        185
cpu0_L1D PREFETCH  ACCESS:          0  HIT:          0  MISS:          0
cpu0_L1D WRITEBACK ACCESS:          0  HIT:          0  MISS:          0
cpu0_L2C TOTAL     ACCESS:     157883  HIT:     104962  MISS:      52921
cpu0_L2C LOAD      ACCESS:     120551  HIT:      73243  MISS:      47308
cpu0_L2C RFO       ACCESS:        185  HIT:        147  MISS:         38
cpu0_L2C PREFETCH  ACCESS:          0  HIT:          0  MISS:          0
cpu0_L2C WRITEBACK ACCESS:      37058  HIT:      31537  MISS:       5521
LLC TOTAL     ACCESS:      59320  HIT:      44467  MISS:      14853
LLC LOAD      ACCESS:      47305  HIT:      32452  MISS:      14853
LLC RFO       ACCESS:         38  HIT:         38  MISS:          0
LLC PREFETCH  ACCESS:          0  HIT:          0  MISS:          0
LLC WRITEBACK ACCESS:      11923  HIT:      11923  MISS:          0
Heartbeat CPU 0 instructions: 76000001 cycles: 28372122 heartbeat IPC: 1.92041 cumulative IPC: 1.89766 (Simulation time: 0 hr 53 min 27 sec) 

Region of Interest Statistics
cpu0_DTLB TOTAL     ACCESS:    5530159  HIT:    5528235  MISS:       1924
cpu0_DTLB LOAD      ACCESS:    5287731  HIT:    5285820  MISS:       1911
cpu0_DTLB RFO       ACCESS:     242428  HIT:     242415  MISS:         13
cpu0_DTLB PREFETCH  ACCESS:          0  HIT:          0  MISS:          0
cpu0_DTLB WRITEBACK ACCESS:          0  HIT:          0  MISS:          0
cpu0_ITLB TOTAL     ACCESS:      35890  HIT:      35890  MISS:          0
cpu0_ITLB LOAD      ACCESS:      35890  HIT:      35890  MISS:          0
cpu0_ITLB RFO       ACCESS:          0  HIT:          0  MISS:          0
cpu0_ITLB PREFETCH  ACCESS:          0  HIT:          0  MISS:          0
cpu0_ITLB WRITEBACK ACCESS:          0  HIT:          0  MISS:          0
cpu0_STLB TOTAL     ACCESS:       1924  HIT:       1193  MISS:        731
cpu0_STLB LOAD      ACCESS:       1911  HIT:       1180  MISS:        731
cpu0_STLB RFO       ACCESS:         13  HIT:         13  MISS:          0
cpu0_STLB PREFETCH  ACCESS:          0  HIT:          0  MISS:          0
cpu0_STLB WRITEBACK ACCESS:          0  HIT:          0  MISS:          0
cpu0_L1D TOTAL     ACCESS:    6915674  HIT:    6781918  MISS:     133756
cpu0_L1D LOAD      ACCESS:    6193365  HIT:    6059939  MISS:     133426
cpu0_L1D RFO       ACCESS:     721578  HIT:     721355  MISS:        223
cpu0_L1D PREFETCH  ACCESS:          0  HIT:          0  MISS:          0
cpu0_L1D WRITEBACK ACCESS:          0  HIT:          0  MISS:          0
cpu0_L2C TOTAL     ACCESS:     175015  HIT:     117548  MISS:      57467
cpu0_L2C LOAD      ACCESS:     133424  HIT:      81975  MISS:      51449
cpu0_L2C RFO       ACCESS:        223  HIT:        176  MISS:         47
cpu0_L2C PREFETCH  ACCESS:          0  HIT:          0  MISS:          0
cpu0_L2C WRITEBACK ACCESS:      41261  HIT:      35351  MISS:       5910
LLC TOTAL     ACCESS:      64439  HIT:      48367  MISS:      16072
LLC LOAD      ACCESS:      51446  HIT:      35374  MISS:      16072
LLC RFO       ACCESS:         47  HIT:         47  MISS:          0
LLC PREFETCH  ACCESS:          0  HIT:          0  MISS:          0
LLC WRITEBACK ACCESS:      12885  HIT:      12885  MISS:          0
Heartbeat CPU 0 instructions: 78000001 cycles: 29416974 heartbeat IPC: 1.91415 cumulative IPC: 1.89883 (Simulation time: 0 hr 55 min 16 sec) 

Region of Interest Statistics
cpu0_DTLB TOTAL     ACCESS:    5956472  HIT:    5954371  MISS:       2101
cpu0_DTLB LOAD      ACCESS:    5695370  HIT:    5693283  MISS:       2087
cpu0_DTLB RFO       ACCESS:     261102  HIT:     261088  MISS:         14
cpu0_DTLB PREFETCH  ACCESS:          0  HIT:          0  MISS:          0
cpu0_DTLB WRITEBACK ACCESS:          0  HIT:          0  MISS:          0
cpu0_ITLB TOTAL     ACCESS:      37808  HIT:      37808  MISS:          0
cpu0_ITLB LOAD      ACCESS:      37808  HIT:      37808  MISS:          0
cpu0_ITLB RFO       ACCESS:          0  HIT:          0  MISS:          0
cpu0_ITLB PREFETCH  ACCESS:          0  HIT:          0  MISS:          0
cpu0_ITLB WRITEBACK ACCESS:          0  HIT:          0  MISS:          0
cpu0_STLB TOTAL     ACCESS:       2101  HIT:       1325  MISS:        776
cpu0_STLB LOAD      ACCESS:       2087  HIT:       1311  MISS:        776
cpu0_STLB RFO       ACCESS:         14  HIT:         14  MISS:          0
cpu0_STLB PREFETCH  ACCESS:          0  HIT:          0  MISS:          0
cpu0_STLB WRITEBACK ACCESS:          0  HIT:          0  MISS:          0
cpu0_L1D TOTAL     ACCESS:    7446677  HIT:    7295497  MISS:     151180
cpu0_L1D LOAD      ACCESS:    6669012  HIT:    6518202  MISS:     150810
cpu0_L1D RFO       ACCESS:     776889  HIT:     776638  MISS:        251
cpu0_L1D PREFETCH  ACCESS:          0  HIT:          0  MISS:          0
cpu0_L1D WRITEBACK ACCESS:          0  HIT:          0  MISS:          0
cpu0_L2C TOTAL     ACCESS:     198297  HIT:     134678  MISS:      63619
cpu0_L2C LOAD      ACCESS:     150808  HIT:      93986  MISS:      56822
cpu0_L2C RFO       ACCESS:        251  HIT:        201  MISS:         50
cpu0_L2C PREFETCH  ACCESS:          0  HIT:          0  MISS:          0
cpu0_L2C WRITEBACK ACCESS:      47119  HIT:      40440  MISS:       6679
LLC TOTAL     ACCESS:      71360  HIT:      54082  MISS:      17278
LLC LOAD      ACCESS:      56819  HIT:      39541  MISS:      17278
LLC RFO       ACCESS:         50  HIT:         50  MISS:          0
LLC PREFETCH  ACCESS:          0  HIT:          0  MISS:          0
LLC WRITEBACK ACCESS:      14423  HIT:      14423  MISS:          0
Heartbeat CPU 0 instructions: 80000004 cycles: 30464852 heartbeat IPC: 1.90862 cumulative IPC: 1.89948 (Simulation time: 0 hr 56 min 53 sec) 

Region of Interest Statistics
cpu0_DTLB TOTAL     ACCESS:    6384480  HIT:    6382203  MISS:       2277
cpu0_DTLB LOAD      ACCESS:    6104717  HIT:    6102455  MISS:       2262
cpu0_DTLB RFO       ACCESS:     279763  HIT:     279748  MISS:         15
cpu0_DTLB PREFETCH  ACCESS:          0  HIT:          0  MISS:          0
cpu0_DTLB WRITEBACK ACCESS:          0  HIT:          0  MISS:          0
cpu0_ITLB TOTAL     ACCESS:      39636  HIT:      39636  MISS:          0
cpu0_ITLB LOAD      ACCESS:      39636  HIT:      39636  MISS:          0
cpu0_ITLB RFO       ACCESS:          0  HIT:          0  MISS:          0
cpu0_ITLB PREFETCH  ACCESS:          0  HIT:          0  MISS:          0
cpu0_ITLB WRITEBACK ACCESS:          0  HIT:          0  MISS:          0
cpu0_STLB TOTAL     ACCESS:       2277  HIT:       1458  MISS:        819
cpu0_STLB LOAD      ACCESS:       2262  HIT:       1443  MISS:        819
cpu0_STLB RFO       ACCESS:         15  HIT:         15  MISS:          0
cpu0_STLB PREFETCH  ACCESS:          0  HIT:          0  MISS:          0
cpu0_STLB WRITEBACK ACCESS:          0  HIT:          0  MISS:          0
cpu0_L1D TOTAL     ACCESS:    7974731  HIT:    7802355  MISS:     172376
cpu0_L1D LOAD      ACCESS:    7141755  HIT:    6969794  MISS:     171961
cpu0_L1D RFO       ACCESS:     832157  HIT:     831872  MISS:        285
cpu0_L1D PREFETCH  ACCESS:          0  HIT:          0  MISS:          0
cpu0_L1D WRITEBACK ACCESS:          0  HIT:          0  MISS:          0
cpu0_L2C TOTAL     ACCESS:     226636  HIT:     154671  MISS:      71965
cpu0_L2C LOAD      ACCESS:     171959  HIT:     107019  MISS:      64940
cpu0_L2C RFO       ACCESS:        285  HIT:        233  MISS:         52
cpu0_L2C PREFETCH  ACCESS:          0  HIT:          0  MISS:          0
cpu0_L2C WRITEBACK ACCESS:      54262  HIT:      47358  MISS:       6904
LLC TOTAL     ACCESS:      81335  HIT:      62850  MISS:      18485
LLC LOAD      ACCESS:      64937  HIT:      46452  MISS:      18485
LLC RFO       ACCESS:         52  HIT:         52  MISS:          0
LLC PREFETCH  ACCESS:          0  HIT:          0  MISS:          0
LLC WRITEBACK ACCESS:      16277  HIT:      16277  MISS:          0
Heartbeat CPU 0 instructions: 82000004 cycles: 31507261 heartbeat IPC: 1.91863 cumulative IPC: 1.90067 (Simulation time: 0 hr 58 min 27 sec) 

Region of Interest Statistics
cpu0_DTLB TOTAL     ACCESS:    6808110  HIT:    6805659  MISS:       2451
cpu0_DTLB LOAD      ACCESS:    6509713  HIT:    6507278  MISS:       2435
cpu0_DTLB RFO       ACCESS:     298397  HIT:     298381  MISS:         16
cpu0_DTLB PREFETCH  ACCESS:          0  HIT:          0  MISS:          0
cpu0_DTLB WRITEBACK ACCESS:          0  HIT:          0  MISS:          0
cpu0_ITLB TOTAL     ACCESS:      41733  HIT:      41733  MISS:          0
cpu0_ITLB LOAD      ACCESS:      41733  HIT:      41733  MISS:          0
cpu0_ITLB RFO       ACCESS:          0  HIT:          0  MISS:          0
cpu0_ITLB PREFETCH  ACCESS:          0  HIT:          0  MISS:          0
cpu0_ITLB WRITEBACK ACCESS:          0  HIT:          0  MISS:          0
cpu0_STLB TOTAL     ACCESS:       2451  HIT:       1588  MISS:        863
cpu0_STLB LOAD      ACCESS:       2435  HIT:       1572  MISS:        863
cpu0_STLB RFO       ACCESS:         16  HIT:         16  MISS:          0
cpu0_STLB PREFETCH  ACCESS:          0  HIT:          0  MISS:          0
cpu0_STLB WRITEBACK ACCESS:          0  HIT:          0  MISS:          0
cpu0_L1D TOTAL     ACCESS:    8505303  HIT:    8315081  MISS:     190222
cpu0_L1D LOAD      ACCESS:    7616910  HIT:    7427120  MISS:     189790
cpu0_L1D RFO       ACCESS:     887530  HIT:     887232  MISS:        298
cpu0_L1D PREFETCH  ACCESS:          0  HIT:          0  MISS:          0
cpu0_L1D WRITEBACK ACCESS:          0  HIT:          0  MISS:          0
cpu0_L2C TOTAL     ACCESS:     250490  HIT:     172296  MISS:      78194
cpu0_L2C LOAD      ACCESS:     189788  HIT:     119370  MISS:      70418
cpu0_L2C RFO       ACCESS:        298  HIT:        245  MISS:         53
cpu0_L2C PREFETCH  ACCESS:          0  HIT:          0  MISS:          0
cpu0_L2C WRITEBACK ACCESS:      60270  HIT:      52618  MISS:       7652
LLC TOTAL     ACCESS:      88599  HIT:      68904  MISS:      19695
LLC LOAD      ACCESS:      70415  HIT:      50720  MISS:      19695
LLC RFO       ACCESS:         53  HIT:         53  MISS:          0
LLC PREFETCH  ACCESS:          0  HIT:          0  MISS:          0
LLC WRITEBACK ACCESS:      18060  HIT:      18060  MISS:          0
Heartbeat CPU 0 instructions: 84000000 cycles: 32555268 heartbeat IPC: 1.90838 cumulative IPC: 1.90112 (Simulation time: 1 hr 0 min 3 sec) 

Region of Interest Statistics
cpu0_DTLB TOTAL     ACCESS:    7232468  HIT:    7229859  MISS:       2609
cpu0_DTLB LOAD      ACCESS:    6915428  HIT:    6912836  MISS:       2592
cpu0_DTLB RFO       ACCESS:     317040  HIT:     317023  MISS:         17
cpu0_DTLB PREFETCH  ACCESS:          0  HIT:          0  MISS:          0
cpu0_DTLB WRITEBACK ACCESS:          0  HIT:          0  MISS:          0
cpu0_ITLB TOTAL     ACCESS:      44018  HIT:      44018  MISS:          0
cpu0_ITLB LOAD      ACCESS:      44018  HIT:      44018  MISS:          0
cpu0_ITLB RFO       ACCESS:          0  HIT:          0  MISS:          0
cpu0_ITLB PREFETCH  ACCESS:          0  HIT:          0  MISS:          0
cpu0_ITLB WRITEBACK ACCESS:          0  HIT:          0  MISS:          0
cpu0_STLB TOTAL     ACCESS:       2609  HIT:       1693  MISS:        916
cpu0_STLB LOAD      ACCESS:       2592  HIT:       1676  MISS:        916
cpu0_STLB RFO       ACCESS:         17  HIT:         17  MISS:          0
cpu0_STLB PREFETCH  ACCESS:          0  HIT:          0  MISS:          0
cpu0_STLB WRITEBACK ACCESS:          0  HIT:          0  MISS:          0
cpu0_L1D TOTAL     ACCESS:    9038178  HIT:    8836364  MISS:     201814
cpu0_L1D LOAD      ACCESS:    8094250  HIT:    7892880  MISS:     201370
cpu0_L1D RFO       ACCESS:     943012  HIT:     942710  MISS:        302
cpu0_L1D PREFETCH  ACCESS:          0  HIT:          0  MISS:          0
cpu0_L1D WRITEBACK ACCESS:          0  HIT:          0  MISS:          0
cpu0_L2C TOTAL     ACCESS:     265835  HIT:     183813  MISS:      82022
cpu0_L2C LOAD      ACCESS:     201368  HIT:     127375  MISS:      73993
cpu0_L2C RFO       ACCESS:        302  HIT:        248  MISS:         54
cpu0_L2C PREFETCH  ACCESS:          0  HIT:          0  MISS:          0
cpu0_L2C WRITEBACK ACCESS:      64023  HIT:      56122  MISS:       7901
LLC TOTAL     ACCESS:      93219  HIT:      72297  MISS:      20922
LLC LOAD      ACCESS:      73990  HIT:      53068  MISS:      20922
LLC RFO       ACCESS:         54  HIT:         54  MISS:          0
LLC PREFETCH  ACCESS:          0  HIT:          0  MISS:          0
LLC WRITEBACK ACCESS:      19101  HIT:      19101  MISS:          0
Heartbeat CPU 0 instructions: 86000002 cycles: 33626357 heartbeat IPC: 1.86726 cumulative IPC: 1.8992 (Simulation time: 1 hr 1 min 39 sec) 

Region of Interest Statistics
cpu0_DTLB TOTAL     ACCESS:    7659676  HIT:    7656973  MISS:       2703
cpu0_DTLB LOAD      ACCESS:    7323899  HIT:    7321214  MISS:       2685
cpu0_DTLB RFO       ACCESS:     335777  HIT:     335759  MISS:         18
cpu0_DTLB PREFETCH  ACCESS:          0  HIT:          0  MISS:          0
cpu0_DTLB WRITEBACK ACCESS:          0  HIT:          0  MISS:          0
cpu0_ITLB TOTAL     ACCESS:      48314  HIT:      48314  MISS:          0
cpu0_ITLB LOAD      ACCESS:      48314  HIT:      48314  MISS:          0
cpu0_ITLB RFO       ACCESS:          0  HIT:          0  MISS:          0
cpu0_ITLB PREFETCH  ACCESS:          0  HIT:          0  MISS:          0
cpu0_ITLB WRITEBACK ACCESS:          0  HIT:          0  MISS:          0
cpu0_STLB TOTAL     ACCESS:       2703  HIT:       1712  MISS:        991
cpu0_STLB LOAD      ACCESS:       2685  HIT:       1694  MISS:        991
cpu0_STLB RFO       ACCESS:         18  HIT:         18  MISS:          0
cpu0_STLB PREFETCH  ACCESS:          0  HIT:          0  MISS:          0
cpu0_STLB WRITEBACK ACCESS:          0  HIT:          0  MISS:          0
cpu0_L1D TOTAL     ACCESS:    9573191  HIT:    9369918  MISS:     203273
cpu0_L1D LOAD      ACCESS:    8573407  HIT:    8370580  MISS:     202827
cpu0_L1D RFO       ACCESS:     998793  HIT:     998489  MISS:        304
cpu0_L1D PREFETCH  ACCESS:          0  HIT:          0  MISS:          0
cpu0_L1D WRITEBACK ACCESS:          0  HIT:          0  MISS:          0
cpu0_L2C TOTAL     ACCESS:     267406  HIT:     183936  MISS:      83470
cpu0_L2C LOAD      ACCESS:     202825  HIT:     127449  MISS:      75376
cpu0_L2C RFO       ACCESS:        304  HIT:        250  MISS:         54
cpu0_L2C PREFETCH  ACCESS:          0  HIT:          0  MISS:          0
cpu0_L2C WRITEBACK ACCESS:      64135  HIT:      56169  MISS:       7966
LLC TOTAL     ACCESS:      94786  HIT:      72595  MISS:      22191
LLC LOAD      ACCESS:      75373  HIT:      53182  MISS:      22191
LLC RFO       ACCESS:         54  HIT:         54  MISS:          0
LLC PREFETCH  ACCESS:          0  HIT:          0  MISS:          0
LLC WRITEBACK ACCESS:      19285  HIT:      19285  MISS:          0
Heartbeat CPU 0 instructions: 88000002 cycles: 34705768 heartbeat IPC: 1.85286 cumulative IPC: 1.89671 (Simulation time: 1 hr 3 min 14 sec) 

Region of Interest Statistics
cpu0_DTLB TOTAL     ACCESS:    8084768  HIT:    8081966  MISS:       2802
cpu0_DTLB LOAD      ACCESS:    7730234  HIT:    7727450  MISS:       2784
cpu0_DTLB RFO       ACCESS:     354534  HIT:     354516  MISS:         18
cpu0_DTLB PREFETCH  ACCESS:          0  HIT:          0  MISS:          0
cpu0_DTLB WRITEBACK ACCESS:          0  HIT:          0  MISS:          0
cpu0_ITLB TOTAL     ACCESS:      53488  HIT:      53488  MISS:          0
cpu0_ITLB LOAD      ACCESS:      53488  HIT:      53488  MISS:          0
cpu0_ITLB RFO       ACCESS:          0  HIT:          0  MISS:          0
cpu0_ITLB PREFETCH  ACCESS:          0  HIT:          0  MISS:          0
cpu0_ITLB WRITEBACK ACCESS:          0  HIT:          0  MISS:          0
cpu0_STLB TOTAL     ACCESS:       2802  HIT:       1724  MISS:       1078
cpu0_STLB LOAD      ACCESS:       2784  HIT:       1706  MISS:       1078
cpu0_STLB RFO       ACCESS:         18  HIT:         18  MISS:          0
cpu0_STLB PREFETCH  ACCESS:          0  HIT:          0  MISS:          0
cpu0_STLB WRITEBACK ACCESS:          0  HIT:          0  MISS:          0
cpu0_L1D TOTAL     ACCESS:   10108141  HIT:    9903460  MISS:     204681
cpu0_L1D LOAD      ACCESS:    9052322  HIT:    8848090  MISS:     204232
cpu0_L1D RFO       ACCESS:    1054741  HIT:    1054436  MISS:        305
cpu0_L1D PREFETCH  ACCESS:          0  HIT:          0  MISS:          0
cpu0_L1D WRITEBACK ACCESS:          0  HIT:          0  MISS:          0
cpu0_L2C TOTAL     ACCESS:     268879  HIT:     184007  MISS:      84872
cpu0_L2C LOAD      ACCESS:     204230  HIT:     127489  MISS:      76741
cpu0_L2C RFO       ACCESS:        305  HIT:        251  MISS:         54
cpu0_L2C PREFETCH  ACCESS:          0  HIT:          0  MISS:          0
cpu0_L2C WRITEBACK ACCESS:      64200  HIT:      56199  MISS:       8001
LLC TOTAL     ACCESS:      96217  HIT:      72717  MISS:      23500
LLC LOAD      ACCESS:      76738  HIT:      53238  MISS:      23500
LLC RFO       ACCESS:         54  HIT:         54  MISS:          0
LLC PREFETCH  ACCESS:          0  HIT:          0  MISS:          0
LLC WRITEBACK ACCESS:      19349  HIT:      19349  MISS:          0
Heartbeat CPU 0 instructions: 90000000 cycles: 35806802 heartbeat IPC: 1.81647 cumulative IPC: 1.89253 (Simulation time: 1 hr 4 min 50 sec) 

Region of Interest Statistics
cpu0_DTLB TOTAL     ACCESS:    8510012  HIT:    8507088  MISS:       2924
cpu0_DTLB LOAD      ACCESS:    8136622  HIT:    8133717  MISS:       2905
cpu0_DTLB RFO       ACCESS:     373390  HIT:     373371  MISS:         19
cpu0_DTLB PREFETCH  ACCESS:          0  HIT:          0  MISS:          0
cpu0_DTLB WRITEBACK ACCESS:          0  HIT:          0  MISS:          0
cpu0_ITLB TOTAL     ACCESS:      59688  HIT:      59688  MISS:          0
cpu0_ITLB LOAD      ACCESS:      59688  HIT:      59688  MISS:          0
cpu0_ITLB RFO       ACCESS:          0  HIT:          0  MISS:          0
cpu0_ITLB PREFETCH  ACCESS:          0  HIT:          0  MISS:          0
cpu0_ITLB WRITEBACK ACCESS:          0  HIT:          0  MISS:          0
cpu0_STLB TOTAL     ACCESS:       2924  HIT:       1741  MISS:       1183
cpu0_STLB LOAD      ACCESS:       2905  HIT:       1722  MISS:       1183
cpu0_STLB RFO       ACCESS:         19  HIT:         19  MISS:          0
cpu0_STLB PREFETCH  ACCESS:          0  HIT:          0  MISS:          0
cpu0_STLB WRITEBACK ACCESS:          0  HIT:          0  MISS:          0
cpu0_L1D TOTAL     ACCESS:   10642996  HIT:   10436922  MISS:     206074
cpu0_L1D LOAD      ACCESS:    9530940  HIT:    9325316  MISS:     205624
cpu0_L1D RFO       ACCESS:    1110873  HIT:    1110568  MISS:        305
cpu0_L1D PREFETCH  ACCESS:          0  HIT:          0  MISS:          0
cpu0_L1D WRITEBACK ACCESS:          0  HIT:          0  MISS:          0
cpu0_L2C TOTAL     ACCESS:     270323  HIT:     184013  MISS:      86310
cpu0_L2C LOAD      ACCESS:     205622  HIT:     127494  MISS:      78128
cpu0_L2C RFO       ACCESS:        305  HIT:        251  MISS:         54
cpu0_L2C PREFETCH  ACCESS:          0  HIT:          0  MISS:          0
cpu0_L2C WRITEBACK ACCESS:      64251  HIT:      56200  MISS:       8051
LLC TOTAL     ACCESS:      97654  HIT:      72821  MISS:      24833
LLC LOAD      ACCESS:      78125  HIT:      53292  MISS:      24833
LLC RFO       ACCESS:         54  HIT:         54  MISS:          0
LLC PREFETCH  ACCESS:          0  HIT:          0  MISS:          0
LLC WRITEBACK ACCESS:      19398  HIT:      19398  MISS:          0
Heartbeat CPU 0 instructions: 92000000 cycles: 36978154 heartbeat IPC: 1.70743 cumulative IPC: 1.88281 (Simulation time: 1 hr 6 min 28 sec) 

Region of Interest Statistics
cpu0_DTLB TOTAL     ACCESS:    8936251  HIT:    8933126  MISS:       3125
cpu0_DTLB LOAD      ACCESS:    8543620  HIT:    8540516  MISS:       3104
cpu0_DTLB RFO       ACCESS:     392631  HIT:     392610  MISS:         21
cpu0_DTLB PREFETCH  ACCESS:          0  HIT:          0  MISS:          0
cpu0_DTLB WRITEBACK ACCESS:          0  HIT:          0  MISS:          0
cpu0_ITLB TOTAL     ACCESS:      71226  HIT:      71226  MISS:          0
cpu0_ITLB LOAD      ACCESS:      71226  HIT:      71226  MISS:          0
cpu0_ITLB RFO       ACCESS:          0  HIT:          0  MISS:          0
cpu0_ITLB PREFETCH  ACCESS:          0  HIT:          0  MISS:          0
cpu0_ITLB WRITEBACK ACCESS:          0  HIT:          0  MISS:          0
cpu0_STLB TOTAL     ACCESS:       3125  HIT:       1757  MISS:       1368
cpu0_STLB LOAD      ACCESS:       3104  HIT:       1736  MISS:       1368
cpu0_STLB RFO       ACCESS:         21  HIT:         21  MISS:          0
cpu0_STLB PREFETCH  ACCESS:          0  HIT:          0  MISS:          0
cpu0_STLB WRITEBACK ACCESS:          0  HIT:          0  MISS:          0
cpu0_L1D TOTAL     ACCESS:   11177477  HIT:   10969710  MISS:     207767
cpu0_L1D LOAD      ACCESS:   10008086  HIT:    9800771  MISS:     207315
cpu0_L1D RFO       ACCESS:    1168023  HIT:    1167718  MISS:        305
cpu0_L1D PREFETCH  ACCESS:          0  HIT:          0  MISS:          0
cpu0_L1D WRITEBACK ACCESS:          0  HIT:          0  MISS:          0
cpu0_L2C TOTAL     ACCESS:     272105  HIT:     184033  MISS:      88072
cpu0_L2C LOAD      ACCESS:     207313  HIT:     127510  MISS:      79803
cpu0_L2C RFO       ACCESS:        305  HIT:        251  MISS:         54
cpu0_L2C PREFETCH  ACCESS:          0  HIT:          0  MISS:          0
cpu0_L2C WRITEBACK ACCESS:      64340  HIT:      56204  MISS:       8136
LLC TOTAL     ACCESS:      99396  HIT:      73048  MISS:      26348
LLC LOAD      ACCESS:      79800  HIT:      53452  MISS:      26348
LLC RFO       ACCESS:         54  HIT:         54  MISS:          0
LLC PREFETCH  ACCESS:          0  HIT:          0  MISS:          0
LLC WRITEBACK ACCESS:      19463  HIT:      19463  MISS:          0
Heartbeat CPU 0 instructions: 94000002 cycles: 38099636 heartbeat IPC: 1.78336 cumulative IPC: 1.87805 (Simulation time: 1 hr 8 min 6 sec) 

Region of Interest Statistics
cpu0_DTLB TOTAL     ACCESS:    9362007  HIT:    9358701  MISS:       3306
cpu0_DTLB LOAD      ACCESS:    8950381  HIT:    8947097  MISS:       3284
cpu0_DTLB RFO       ACCESS:     411626  HIT:     411604  MISS:         22
cpu0_DTLB PREFETCH  ACCESS:          0  HIT:          0  MISS:          0
cpu0_DTLB WRITEBACK ACCESS:          0  HIT:          0  MISS:          0
cpu0_ITLB TOTAL     ACCESS:      79376  HIT:      79376  MISS:          0
cpu0_ITLB LOAD      ACCESS:      79376  HIT:      79376  MISS:          0
cpu0_ITLB RFO       ACCESS:          0  HIT:          0  MISS:          0
cpu0_ITLB PREFETCH  ACCESS:          0  HIT:          0  MISS:          0
cpu0_ITLB WRITEBACK ACCESS:          0  HIT:          0  MISS:          0
cpu0_STLB TOTAL     ACCESS:       3306  HIT:       1811  MISS:       1495
cpu0_STLB LOAD      ACCESS:       3284  HIT:       1789  MISS:       1495
cpu0_STLB RFO       ACCESS:         22  HIT:         22  MISS:          0
cpu0_STLB PREFETCH  ACCESS:          0  HIT:          0  MISS:          0
cpu0_STLB WRITEBACK ACCESS:          0  HIT:          0  MISS:          0
cpu0_L1D TOTAL     ACCESS:   11711841  HIT:   11501781  MISS:     210060
cpu0_L1D LOAD      ACCESS:   10485831  HIT:   10276228  MISS:     209603
cpu0_L1D RFO       ACCESS:    1224515  HIT:    1224206  MISS:        309
cpu0_L1D PREFETCH  ACCESS:          0  HIT:          0  MISS:          0
cpu0_L1D WRITEBACK ACCESS:          0  HIT:          0  MISS:          0
cpu0_L2C TOTAL     ACCESS:     274584  HIT:     184396  MISS:      90188
cpu0_L2C LOAD      ACCESS:     209601  HIT:     127780  MISS:      81821
cpu0_L2C RFO       ACCESS:        309  HIT:        255  MISS:         54
cpu0_L2C PREFETCH  ACCESS:          0  HIT:          0  MISS:          0
cpu0_L2C WRITEBACK ACCESS:      64526  HIT:      56293  MISS:       8233
LLC TOTAL     ACCESS:     101527  HIT:      73778  MISS:      27749
LLC LOAD      ACCESS:      81818  HIT:      54069  MISS:      27749
LLC RFO       ACCESS:         54  HIT:         54  MISS:          0
LLC PREFETCH  ACCESS:          0  HIT:          0  MISS:          0
LLC WRITEBACK ACCESS:      19575  HIT:      19575  MISS:          0
Heartbeat CPU 0 instructions: 96000001 cycles: 39148829 heartbeat IPC: 1.90623 cumulative IPC: 1.87926 (Simulation time: 1 hr 9 min 40 sec) 

Region of Interest Statistics
cpu0_DTLB TOTAL     ACCESS:    9789325  HIT:    9785726  MISS:       3599
cpu0_DTLB LOAD      ACCESS:    9359021  HIT:    9355445  MISS:       3576
cpu0_DTLB RFO       ACCESS:     430304  HIT:     430281  MISS:         23
cpu0_DTLB PREFETCH  ACCESS:          0  HIT:          0  MISS:          0
cpu0_DTLB WRITEBACK ACCESS:          0  HIT:          0  MISS:          0
cpu0_ITLB TOTAL     ACCESS:      81860  HIT:      81860  MISS:          0
cpu0_ITLB LOAD      ACCESS:      81860  HIT:      81860  MISS:          0
cpu0_ITLB RFO       ACCESS:          0  HIT:          0  MISS:          0
cpu0_ITLB PREFETCH  ACCESS:          0  HIT:          0  MISS:          0
cpu0_ITLB WRITEBACK ACCESS:          0  HIT:          0  MISS:          0
cpu0_STLB TOTAL     ACCESS:       3599  HIT:       2057  MISS:       1542
cpu0_STLB LOAD      ACCESS:       3576  HIT:       2034  MISS:       1542
cpu0_STLB RFO       ACCESS:         23  HIT:         23  MISS:          0
cpu0_STLB PREFETCH  ACCESS:          0  HIT:          0  MISS:          0
cpu0_STLB WRITEBACK ACCESS:          0  HIT:          0  MISS:          0
cpu0_L1D TOTAL     ACCESS:   12241835  HIT:   12018677  MISS:     223158
cpu0_L1D LOAD      ACCESS:   10960460  HIT:   10737804  MISS:     222656
cpu0_L1D RFO       ACCESS:    1279833  HIT:    1279482  MISS:        351
cpu0_L1D PREFETCH  ACCESS:          0  HIT:          0  MISS:          0
cpu0_L1D WRITEBACK ACCESS:          0  HIT:          0  MISS:          0
cpu0_L2C TOTAL     ACCESS:     291697  HIT:     195793  MISS:      95904
cpu0_L2C LOAD      ACCESS:     222654  HIT:     135594  MISS:      87060
cpu0_L2C RFO       ACCESS:        351  HIT:        285  MISS:         66
cpu0_L2C PREFETCH  ACCESS:          0  HIT:          0  MISS:          0
cpu0_L2C WRITEBACK ACCESS:      68541  HIT:      59844  MISS:       8697
LLC TOTAL     ACCESS:     107637  HIT:      78654  MISS:      28983
LLC LOAD      ACCESS:      87056  HIT:      58073  MISS:      28983
LLC RFO       ACCESS:         66  HIT:         66  MISS:          0
LLC PREFETCH  ACCESS:          0  HIT:          0  MISS:          0
LLC WRITEBACK ACCESS:      20434  HIT:      20434  MISS:          0
Heartbeat CPU 0 instructions: 98000003 cycles: 40200975 heartbeat IPC: 1.90088 cumulative IPC: 1.88015 (Simulation time: 1 hr 11 min 15 sec) 

Region of Interest Statistics
cpu0_DTLB TOTAL     ACCESS:   10213697  HIT:   10209824  MISS:       3873
cpu0_DTLB LOAD      ACCESS:    9764750  HIT:    9760901  MISS:       3849
cpu0_DTLB RFO       ACCESS:     448947  HIT:     448923  MISS:         24
cpu0_DTLB PREFETCH  ACCESS:          0  HIT:          0  MISS:          0
cpu0_DTLB WRITEBACK ACCESS:          0  HIT:          0  MISS:          0
cpu0_ITLB TOTAL     ACCESS:      83367  HIT:      83367  MISS:          0
cpu0_ITLB LOAD      ACCESS:      83367  HIT:      83367  MISS:          0
cpu0_ITLB RFO       ACCESS:          0  HIT:          0  MISS:          0
cpu0_ITLB PREFETCH  ACCESS:          0  HIT:          0  MISS:          0
cpu0_ITLB WRITEBACK ACCESS:          0  HIT:          0  MISS:          0
cpu0_STLB TOTAL     ACCESS:       3873  HIT:       2285  MISS:       1588
cpu0_STLB LOAD      ACCESS:       3849  HIT:       2261  MISS:       1588
cpu0_STLB RFO       ACCESS:         24  HIT:         24  MISS:          0
cpu0_STLB PREFETCH  ACCESS:          0  HIT:          0  MISS:          0
cpu0_STLB WRITEBACK ACCESS:          0  HIT:          0  MISS:          0
cpu0_L1D TOTAL     ACCESS:   12770333  HIT:   12530194  MISS:     240139
cpu0_L1D LOAD      ACCESS:   11433645  HIT:   11194057  MISS:     239588
cpu0_L1D RFO       ACCESS:    1335100  HIT:    1334708  MISS:        392
cpu0_L1D PREFETCH  ACCESS:          0  HIT:          0  MISS:          0
cpu0_L1D WRITEBACK ACCESS:          0  HIT:          0  MISS:          0
cpu0_L2C TOTAL     ACCESS:     314264  HIT:     210804  MISS:     103460
cpu0_L2C LOAD      ACCESS:     239585  HIT:     145482  MISS:      94103
cpu0_L2C RFO       ACCESS:        392  HIT:        293  MISS:         99
cpu0_L2C PREFETCH  ACCESS:          0  HIT:          0  MISS:          0
cpu0_L2C WRITEBACK ACCESS:      74128  HIT:      64952  MISS:       9176
LLC TOTAL     ACCESS:     116380  HIT:      86130  MISS:      30250
LLC LOAD      ACCESS:      94098  HIT:      63848  MISS:      30250
LLC RFO       ACCESS:         99  HIT:         99  MISS:          0
LLC PREFETCH  ACCESS:          0  HIT:          0  MISS:          0
LLC WRITEBACK ACCESS:      22101  HIT:      22101  MISS:          0
Heartbeat CPU 0 instructions: 100000000 cycles: 41252975 heartbeat IPC: 1.90114 cumulative IPC: 1.88098 (Simulation time: 1 hr 12 min 52 sec) 

Region of Interest Statistics
cpu0_DTLB TOTAL     ACCESS:   10639554  HIT:   10635382  MISS:       4172
cpu0_DTLB LOAD      ACCESS:   10171965  HIT:   10167818  MISS:       4147
cpu0_DTLB RFO       ACCESS:     467589  HIT:     467564  MISS:         25
cpu0_DTLB PREFETCH  ACCESS:          0  HIT:          0  MISS:          0
cpu0_DTLB WRITEBACK ACCESS:          0  HIT:          0  MISS:          0
cpu0_ITLB TOTAL     ACCESS:      85470  HIT:      85470  MISS:          0
cpu0_ITLB LOAD      ACCESS:      85470  HIT:      85470  MISS:          0
cpu0_ITLB RFO       ACCESS:          0  HIT:          0  MISS:          0
cpu0_ITLB PREFETCH  ACCESS:          0  HIT:          0  MISS:          0
cpu0_ITLB WRITEBACK ACCESS:          0  HIT:          0  MISS:          0
cpu0_STLB TOTAL     ACCESS:       4172  HIT:       2537  MISS:       1635
cpu0_STLB LOAD      ACCESS:       4147  HIT:       2512  MISS:       1635
cpu0_STLB RFO       ACCESS:         25  HIT:         25  MISS:          0
cpu0_STLB PREFETCH  ACCESS:          0  HIT:          0  MISS:          0
cpu0_STLB WRITEBACK ACCESS:          0  HIT:          0  MISS:          0
cpu0_L1D TOTAL     ACCESS:   13300735  HIT:   13045447  MISS:     255288
cpu0_L1D LOAD      ACCESS:   11908702  HIT:   11654015  MISS:     254687
cpu0_L1D RFO       ACCESS:    1390398  HIT:    1389964  MISS:        434
cpu0_L1D PREFETCH  ACCESS:          0  HIT:          0  MISS:          0
cpu0_L1D WRITEBACK ACCESS:          0  HIT:          0  MISS:          0
cpu0_L2C TOTAL     ACCESS:     334303  HIT:     225174  MISS:     109129
cpu0_L2C LOAD      ACCESS:     254684  HIT:     155309  MISS:      99375
cpu0_L2C RFO       ACCESS:        434  HIT:        318  MISS:        116
cpu0_L2C PREFETCH  ACCESS:          0  HIT:          0  MISS:          0
cpu0_L2C WRITEBACK ACCESS:      79018  HIT:      69463  MISS:       9555
LLC TOTAL     ACCESS:     122893  HIT:      91432  MISS:      31461
LLC LOAD      ACCESS:      99369  HIT:      67908  MISS:      31461
LLC RFO       ACCESS:        116  HIT:        116  MISS:          0
LLC PREFETCH  ACCESS:          0  HIT:          0  MISS:          0
LLC WRITEBACK ACCESS:      23325  HIT:      23325  MISS:          0
Heartbeat CPU 0 instructions: 102000000 cycles: 42297014 heartbeat IPC: 1.91564 cumulative IPC: 1.88229 (Simulation time: 1 hr 14 min 25 sec) 

Region of Interest Statistics
cpu0_DTLB TOTAL     ACCESS:   11062694  HIT:   11058262  MISS:       4432
cpu0_DTLB LOAD      ACCESS:   10576490  HIT:   10572084  MISS:       4406
cpu0_DTLB RFO       ACCESS:     486204  HIT:     486178  MISS:         26
cpu0_DTLB PREFETCH  ACCESS:          0  HIT:          0  MISS:          0
cpu0_DTLB WRITEBACK ACCESS:          0  HIT:          0  MISS:          0
cpu0_ITLB TOTAL     ACCESS:      87055  HIT:      87055  MISS:          0
cpu0_ITLB LOAD      ACCESS:      87055  HIT:      87055  MISS:          0
cpu0_ITLB RFO       ACCESS:          0  HIT:          0  MISS:          0
cpu0_ITLB PREFETCH  ACCESS:          0  HIT:          0  MISS:          0
cpu0_ITLB WRITEBACK ACCESS:          0  HIT:          0  MISS:          0
cpu0_STLB TOTAL     ACCESS:       4432  HIT:       2753  MISS:       1679
cpu0_STLB LOAD      ACCESS:       4406  HIT:       2727  MISS:       1679
cpu0_STLB RFO       ACCESS:         26  HIT:         26  MISS:          0
cpu0_STLB PREFETCH  ACCESS:          0  HIT:          0  MISS:          0
cpu0_STLB WRITEBACK ACCESS:          0  HIT:          0  MISS:          0
cpu0_L1D TOTAL     ACCESS:   13830900  HIT:   13558309  MISS:     272591
cpu0_L1D LOAD      ACCESS:   12383551  HIT:   12111607  MISS:     271944
cpu0_L1D RFO       ACCESS:    1445670  HIT:    1445203  MISS:        467
cpu0_L1D PREFETCH  ACCESS:          0  HIT:          0  MISS:          0
cpu0_L1D WRITEBACK ACCESS:          0  HIT:          0  MISS:          0
cpu0_L2C TOTAL     ACCESS:     357298  HIT:     242197  MISS:     115101
cpu0_L2C LOAD      ACCESS:     271941  HIT:     167191  MISS:     104750
cpu0_L2C RFO       ACCESS:        467  HIT:        337  MISS:        130
cpu0_L2C PREFETCH  ACCESS:          0  HIT:          0  MISS:          0
cpu0_L2C WRITEBACK ACCESS:      84710  HIT:      74575  MISS:      10135
LLC TOTAL     ACCESS:     129708  HIT:      97017  MISS:      32691
LLC LOAD      ACCESS:     104744  HIT:      72053  MISS:      32691
LLC RFO       ACCESS:        130  HIT:        130  MISS:          0
LLC PREFETCH  ACCESS:          0  HIT:          0  MISS:          0
LLC WRITEBACK ACCESS:      24748  HIT:      24748  MISS:          0
Heartbeat CPU 0 instructions: 104000003 cycles: 43346033 heartbeat IPC: 1.90655 cumulative IPC: 1.88318 (Simulation time: 1 hr 16 min 0 sec) 

Region of Interest Statistics
cpu0_DTLB TOTAL     ACCESS:   11486275  HIT:   11481580  MISS:       4695
cpu0_DTLB LOAD      ACCESS:   10981456  HIT:   10976788  MISS:       4668
cpu0_DTLB RFO       ACCESS:     504819  HIT:     504792  MISS:         27
cpu0_DTLB PREFETCH  ACCESS:          0  HIT:          0  MISS:          0
cpu0_DTLB WRITEBACK ACCESS:          0  HIT:          0  MISS:          0
cpu0_ITLB TOTAL     ACCESS:      88944  HIT:      88944  MISS:          0
cpu0_ITLB LOAD      ACCESS:      88944  HIT:      88944  MISS:          0
cpu0_ITLB RFO       ACCESS:          0  HIT:          0  MISS:          0
cpu0_ITLB PREFETCH  ACCESS:          0  HIT:          0  MISS:          0
cpu0_ITLB WRITEBACK ACCESS:          0  HIT:          0  MISS:          0
cpu0_STLB TOTAL     ACCESS:       4695  HIT:       2971  MISS:       1724
cpu0_STLB LOAD      ACCESS:       4668  HIT:       2944  MISS:       1724
cpu0_STLB RFO       ACCESS:         27  HIT:         27  MISS:          0
cpu0_STLB PREFETCH  ACCESS:          0  HIT:          0  MISS:          0
cpu0_STLB WRITEBACK ACCESS:          0  HIT:          0  MISS:          0
cpu0_L1D TOTAL     ACCESS:   14360405  HIT:   14070088  MISS:     290317
cpu0_L1D LOAD      ACCESS:   12857717  HIT:   12568094  MISS:     289623
cpu0_L1D RFO       ACCESS:    1500964  HIT:    1500456  MISS:        508
cpu0_L1D PREFETCH  ACCESS:          0  HIT:          0  MISS:          0
cpu0_L1D WRITEBACK ACCESS:          0  HIT:          0  MISS:          0
cpu0_L2C TOTAL     ACCESS:     380776  HIT:     258661  MISS:     122115
cpu0_L2C LOAD      ACCESS:     289620  HIT:     178237  MISS:     111383
cpu0_L2C RFO       ACCESS:        508  HIT:        352  MISS:        156
cpu0_L2C PREFETCH  ACCESS:          0  HIT:          0  MISS:          0
cpu0_L2C WRITEBACK ACCESS:      90462  HIT:      79973  MISS:      10489
LLC TOTAL     ACCESS:     138012  HIT:     104076  MISS:      33936
LLC LOAD      ACCESS:     111375  HIT:      77439  MISS:      33936
LLC RFO       ACCESS:        156  HIT:        156  MISS:          0
LLC PREFETCH  ACCESS:          0  HIT:          0  MISS:          0
LLC WRITEBACK ACCESS:      26394  HIT:      26394  MISS:          0
Heartbeat CPU 0 instructions: 106000003 cycles: 44396684 heartbeat IPC: 1.90358 cumulative IPC: 1.8839 (Simulation time: 1 hr 17 min 35 sec) 

Region of Interest Statistics
cpu0_DTLB TOTAL     ACCESS:   11910831  HIT:   11905913  MISS:       4918
cpu0_DTLB LOAD      ACCESS:   11387322  HIT:   11382433  MISS:       4889
cpu0_DTLB RFO       ACCESS:     523509  HIT:     523480  MISS:         29
cpu0_DTLB PREFETCH  ACCESS:          0  HIT:          0  MISS:          0
cpu0_DTLB WRITEBACK ACCESS:          0  HIT:          0  MISS:          0
cpu0_ITLB TOTAL     ACCESS:      90537  HIT:      90537  MISS:          0
cpu0_ITLB LOAD      ACCESS:      90537  HIT:      90537  MISS:          0
cpu0_ITLB RFO       ACCESS:          0  HIT:          0  MISS:          0
cpu0_ITLB PREFETCH  ACCESS:          0  HIT:          0  MISS:          0
cpu0_ITLB WRITEBACK ACCESS:          0  HIT:          0  MISS:          0
cpu0_STLB TOTAL     ACCESS:       4918  HIT:       3149  MISS:       1769
cpu0_STLB LOAD      ACCESS:       4889  HIT:       3120  MISS:       1769
cpu0_STLB RFO       ACCESS:         29  HIT:         29  MISS:          0
cpu0_STLB PREFETCH  ACCESS:          0  HIT:          0  MISS:          0
cpu0_STLB WRITEBACK ACCESS:          0  HIT:          0  MISS:          0
cpu0_L1D TOTAL     ACCESS:   14889115  HIT:   14581319  MISS:     307796
cpu0_L1D LOAD      ACCESS:   13331101  HIT:   13024038  MISS:     307063
cpu0_L1D RFO       ACCESS:    1556245  HIT:    1555706  MISS:        539
cpu0_L1D PREFETCH  ACCESS:          0  HIT:          0  MISS:          0
cpu0_L1D WRITEBACK ACCESS:          0  HIT:          0  MISS:          0
cpu0_L2C TOTAL     ACCESS:     403809  HIT:     273802  MISS:     130007
cpu0_L2C LOAD      ACCESS:     307060  HIT:     188113  MISS:     118947
cpu0_L2C RFO       ACCESS:        539  HIT:        364  MISS:        175
cpu0_L2C PREFETCH  ACCESS:          0  HIT:          0  MISS:          0
cpu0_L2C WRITEBACK ACCESS:      96016  HIT:      85219  MISS:      10797
LLC TOTAL     ACCESS:     147344  HIT:     112175  MISS:      35169
LLC LOAD      ACCESS:     118936  HIT:      83767  MISS:      35169
LLC RFO       ACCESS:        175  HIT:        175  MISS:          0
LLC PREFETCH  ACCESS:          0  HIT:          0  MISS:          0
LLC WRITEBACK ACCESS:      28145  HIT:      28145  MISS:          0
Heartbeat CPU 0 instructions: 108000002 cycles: 45452434 heartbeat IPC: 1.89439 cumulative IPC: 1.88426 (Simulation time: 1 hr 19 min 16 sec) 

Region of Interest Statistics
cpu0_DTLB TOTAL     ACCESS:   12335740  HIT:   12330620  MISS:       5120
cpu0_DTLB LOAD      ACCESS:   11793575  HIT:   11788485  MISS:       5090
cpu0_DTLB RFO       ACCESS:     542165  HIT:     542135  MISS:         30
cpu0_DTLB PREFETCH  ACCESS:          0  HIT:          0  MISS:          0
cpu0_DTLB WRITEBACK ACCESS:          0  HIT:          0  MISS:          0
cpu0_ITLB TOTAL     ACCESS:      92104  HIT:      92104  MISS:          0
cpu0_ITLB LOAD      ACCESS:      92104  HIT:      92104  MISS:          0
cpu0_ITLB RFO       ACCESS:          0  HIT:          0  MISS:          0
cpu0_ITLB PREFETCH  ACCESS:          0  HIT:          0  MISS:          0
cpu0_ITLB WRITEBACK ACCESS:          0  HIT:          0  MISS:          0
cpu0_STLB TOTAL     ACCESS:       5120  HIT:       3310  MISS:       1810
cpu0_STLB LOAD      ACCESS:       5090  HIT:       3280  MISS:       1810
cpu0_STLB RFO       ACCESS:         30  HIT:         30  MISS:          0
cpu0_STLB PREFETCH  ACCESS:          0  HIT:          0  MISS:          0
cpu0_STLB WRITEBACK ACCESS:          0  HIT:          0  MISS:          0
cpu0_L1D TOTAL     ACCESS:   15416327  HIT:   15089269  MISS:     327058
cpu0_L1D LOAD      ACCESS:   13803017  HIT:   13476735  MISS:     326282
cpu0_L1D RFO       ACCESS:    1611500  HIT:    1610928  MISS:        572
cpu0_L1D PREFETCH  ACCESS:          0  HIT:          0  MISS:          0
cpu0_L1D WRITEBACK ACCESS:          0  HIT:          0  MISS:          0
cpu0_L2C TOTAL     ACCESS:     429313  HIT:     289846  MISS:     139467
cpu0_L2C LOAD      ACCESS:     326278  HIT:     198367  MISS:     127911
cpu0_L2C RFO       ACCESS:        572  HIT:        370  MISS:        202
cpu0_L2C PREFETCH  ACCESS:          0  HIT:          0  MISS:          0
cpu0_L2C WRITEBACK ACCESS:     102259  HIT:      90995  MISS:      11264
LLC TOTAL     ACCESS:     158824  HIT:     122349  MISS:      36475
LLC LOAD      ACCESS:     127898  HIT:      91423  MISS:      36475
LLC RFO       ACCESS:        202  HIT:        202  MISS:          0
LLC PREFETCH  ACCESS:          0  HIT:          0  MISS:          0
LLC WRITEBACK ACCESS:      30634  HIT:      30634  MISS:          0
Heartbeat CPU 0 instructions: 110000000 cycles: 46505670 heartbeat IPC: 1.89891 cumulative IPC: 1.88474 (Simulation time: 1 hr 20 min 52 sec) 

Region of Interest Statistics
cpu0_DTLB TOTAL     ACCESS:   12762058  HIT:   12756803  MISS:       5255
cpu0_DTLB LOAD      ACCESS:   12201267  HIT:   12196043  MISS:       5224
cpu0_DTLB RFO       ACCESS:     560791  HIT:     560760  MISS:         31
cpu0_DTLB PREFETCH  ACCESS:          0  HIT:          0  MISS:          0
cpu0_DTLB WRITEBACK ACCESS:          0  HIT:          0  MISS:          0
cpu0_ITLB TOTAL     ACCESS:      93559  HIT:      93559  MISS:          0
cpu0_ITLB LOAD      ACCESS:      93559  HIT:      93559  MISS:          0
cpu0_ITLB RFO       ACCESS:          0  HIT:          0  MISS:          0
cpu0_ITLB PREFETCH  ACCESS:          0  HIT:          0  MISS:          0
cpu0_ITLB WRITEBACK ACCESS:          0  HIT:          0  MISS:          0
cpu0_STLB TOTAL     ACCESS:       5255  HIT:       3408  MISS:       1847
cpu0_STLB LOAD      ACCESS:       5224  HIT:       3377  MISS:       1847
cpu0_STLB RFO       ACCESS:         31  HIT:         31  MISS:          0
cpu0_STLB PREFETCH  ACCESS:          0  HIT:          0  MISS:          0
cpu0_STLB WRITEBACK ACCESS:          0  HIT:          0  MISS:          0
cpu0_L1D TOTAL     ACCESS:   15943866  HIT:   15597878  MISS:     345988
cpu0_L1D LOAD      ACCESS:   14275257  HIT:   13930089  MISS:     345168
cpu0_L1D RFO       ACCESS:    1666762  HIT:    1666158  MISS:        604
cpu0_L1D PREFETCH  ACCESS:          0  HIT:          0  MISS:          0
cpu0_L1D WRITEBACK ACCESS:          0  HIT:          0  MISS:          0
cpu0_L2C TOTAL     ACCESS:     454402  HIT:     304817  MISS:     149585
cpu0_L2C LOAD      ACCESS:     345164  HIT:     207716  MISS:     137448
cpu0_L2C RFO       ACCESS:        604  HIT:        375  MISS:        229
cpu0_L2C PREFETCH  ACCESS:          0  HIT:          0  MISS:          0
cpu0_L2C WRITEBACK ACCESS:     108418  HIT:      96603  MISS:      11815
LLC TOTAL     ACCESS:     171395  HIT:     133611  MISS:      37784
LLC LOAD      ACCESS:     137435  HIT:      99651  MISS:      37784
LLC RFO       ACCESS:        229  HIT:        229  MISS:          0
LLC PREFETCH  ACCESS:          0  HIT:          0  MISS:          0
LLC WRITEBACK ACCESS:      33638  HIT:      33638  MISS:          0
Heartbeat CPU 0 instructions: 112000003 cycles: 47542727 heartbeat IPC: 1.92854 cumulative IPC: 1.88612 (Simulation time: 1 hr 22 min 25 sec) 

Region of Interest Statistics
cpu0_DTLB TOTAL     ACCESS:   13186631  HIT:   13181256  MISS:       5375
cpu0_DTLB LOAD      ACCESS:   12607233  HIT:   12601891  MISS:       5342
cpu0_DTLB RFO       ACCESS:     579398  HIT:     579365  MISS:         33
cpu0_DTLB PREFETCH  ACCESS:          0  HIT:          0  MISS:          0
cpu0_DTLB WRITEBACK ACCESS:          0  HIT:          0  MISS:          0
cpu0_ITLB TOTAL     ACCESS:      95268  HIT:      95268  MISS:          0
cpu0_ITLB LOAD      ACCESS:      95268  HIT:      95268  MISS:          0
cpu0_ITLB RFO       ACCESS:          0  HIT:          0  MISS:          0
cpu0_ITLB PREFETCH  ACCESS:          0  HIT:          0  MISS:          0
cpu0_ITLB WRITEBACK ACCESS:          0  HIT:          0  MISS:          0
cpu0_STLB TOTAL     ACCESS:       5375  HIT:       3500  MISS:       1875
cpu0_STLB LOAD      ACCESS:       5342  HIT:       3467  MISS:       1875
cpu0_STLB RFO       ACCESS:         33  HIT:         33  MISS:          0
cpu0_STLB PREFETCH  ACCESS:          0  HIT:          0  MISS:          0
cpu0_STLB WRITEBACK ACCESS:          0  HIT:          0  MISS:          0
cpu0_L1D TOTAL     ACCESS:   16472608  HIT:   16107431  MISS:     365177
cpu0_L1D LOAD      ACCESS:   14748679  HIT:   14384362  MISS:     364317
cpu0_L1D RFO       ACCESS:    1722054  HIT:    1721420  MISS:        634
cpu0_L1D PREFETCH  ACCESS:          0  HIT:          0  MISS:          0
cpu0_L1D WRITEBACK ACCESS:          0  HIT:          0  MISS:          0
cpu0_L2C TOTAL     ACCESS:     479908  HIT:     321809  MISS:     158099
cpu0_L2C LOAD      ACCESS:     364313  HIT:     218852  MISS:     145461
cpu0_L2C RFO       ACCESS:        634  HIT:        386  MISS:        248
cpu0_L2C PREFETCH  ACCESS:          0  HIT:          0  MISS:          0
cpu0_L2C WRITEBACK ACCESS:     114735  HIT:     102438  MISS:      12297
LLC TOTAL     ACCESS:     181952  HIT:     142970  MISS:      38982
LLC LOAD      ACCESS:     145446  HIT:     106464  MISS:      38982
LLC RFO       ACCESS:        248  HIT:        248  MISS:          0
LLC PREFETCH  ACCESS:          0  HIT:          0  MISS:          0
LLC WRITEBACK ACCESS:      36165  HIT:      36165  MISS:          0
Heartbeat CPU 0 instructions: 114000001 cycles: 48579222 heartbeat IPC: 1.92958 cumulative IPC: 1.88745 (Simulation time: 1 hr 24 min 2 sec) 

Region of Interest Statistics
cpu0_DTLB TOTAL     ACCESS:   13613592  HIT:   13608126  MISS:       5466
cpu0_DTLB LOAD      ACCESS:   13015548  HIT:   13010116  MISS:       5432
cpu0_DTLB RFO       ACCESS:     598044  HIT:     598010  MISS:         34
cpu0_DTLB PREFETCH  ACCESS:          0  HIT:          0  MISS:          0
cpu0_DTLB WRITEBACK ACCESS:          0  HIT:          0  MISS:          0
cpu0_ITLB TOTAL     ACCESS:      96784  HIT:      96784  MISS:          0
cpu0_ITLB LOAD      ACCESS:      96784  HIT:      96784  MISS:          0
cpu0_ITLB RFO       ACCESS:          0  HIT:          0  MISS:          0
cpu0_ITLB PREFETCH  ACCESS:          0  HIT:          0  MISS:          0
cpu0_ITLB WRITEBACK ACCESS:          0  HIT:          0  MISS:          0
cpu0_STLB TOTAL     ACCESS:       5466  HIT:       3569  MISS:       1897
cpu0_STLB LOAD      ACCESS:       5432  HIT:       3535  MISS:       1897
cpu0_STLB RFO       ACCESS:         34  HIT:         34  MISS:          0
cpu0_STLB PREFETCH  ACCESS:          0  HIT:          0  MISS:          0
cpu0_STLB WRITEBACK ACCESS:          0  HIT:          0  MISS:          0
cpu0_L1D TOTAL     ACCESS:   17000005  HIT:   16613082  MISS:     386923
cpu0_L1D LOAD      ACCESS:   15220765  HIT:   14834742  MISS:     386023
cpu0_L1D RFO       ACCESS:    1777343  HIT:    1776689  MISS:        654
cpu0_L1D PREFETCH  ACCESS:          0  HIT:          0  MISS:          0
cpu0_L1D WRITEBACK ACCESS:          0  HIT:          0  MISS:          0
cpu0_L2C TOTAL     ACCESS:     509043  HIT:     340461  MISS:     168582
cpu0_L2C LOAD      ACCESS:     386019  HIT:     230436  MISS:     155583
cpu0_L2C RFO       ACCESS:        654  HIT:        398  MISS:        256
cpu0_L2C PREFETCH  ACCESS:          0  HIT:          0  MISS:          0
cpu0_L2C WRITEBACK ACCESS:     122124  HIT:     109475  MISS:      12649
LLC TOTAL     ACCESS:     195123  HIT:     154929  MISS:      40194
LLC LOAD      ACCESS:     155565  HIT:     115371  MISS:      40194
LLC RFO       ACCESS:        256  HIT:        256  MISS:          0
LLC PREFETCH  ACCESS:          0  HIT:          0  MISS:          0
LLC WRITEBACK ACCESS:      39208  HIT:      39208  MISS:          0
Heartbeat CPU 0 instructions: 116000000 cycles: 49609730 heartbeat IPC: 1.94079 cumulative IPC: 1.88902 (Simulation time: 1 hr 25 min 39 sec) 

Region of Interest Statistics
cpu0_DTLB TOTAL     ACCESS:   14039515  HIT:   14033969  MISS:       5546
cpu0_DTLB LOAD      ACCESS:   13422808  HIT:   13417297  MISS:       5511
cpu0_DTLB RFO       ACCESS:     616707  HIT:     616672  MISS:         35
cpu0_DTLB PREFETCH  ACCESS:          0  HIT:          0  MISS:          0
[...]
cpu0_DTLB LOAD      ACCESS:  290231806  HIT:  289668062  MISS:     563744
cpu0_DTLB RFO       ACCESS:   19096871  HIT:   19086910  MISS:       9961
cpu0_DTLB PREFETCH  ACCESS:          0  HIT:          0  MISS:          0
cpu0_DTLB WRITEBACK ACCESS:          0  HIT:          0  MISS:          0
cpu0_DTLB TRANSLATION ACCESS:          0  HIT:          0  MISS:          0
cpu0_DTLB PREFETCH  REQUESTED:          0  ISSUED:          0  USEFUL:          0  USELESS:          0
cpu0_DTLB AVERAGE MISS LATENCY: 22.4153 cycles
cpu0_ITLB TOTAL     ACCESS:    7760022  HIT:    7759998  MISS:         24
cpu0_ITLB LOAD      ACCESS:    7760022  HIT:    7759998  MISS:         24
cpu0_ITLB RFO       ACCESS:          0  HIT:          0  MISS:          0
cpu0_ITLB PREFETCH  ACCESS:          0  HIT:          0  MISS:          0
cpu0_ITLB WRITEBACK ACCESS:          0  HIT:          0  MISS:          0
cpu0_ITLB TRANSLATION ACCESS:          0  HIT:          0  MISS:          0
cpu0_ITLB PREFETCH  REQUESTED:          0  ISSUED:          0  USEFUL:          0  USELESS:          0
cpu0_ITLB AVERAGE MISS LATENCY: 276.333 cycles
cpu0_L1I TOTAL     ACCESS:   18916871  HIT:   18916393  MISS:        478
cpu0_L1I LOAD      ACCESS:   18916871  HIT:   18916393  MISS:        478
cpu0_L1I RFO       ACCESS:          0  HIT:          0  MISS:          0
cpu0_L1I PREFETCH  ACCESS:          0  HIT:          0  MISS:          0
cpu0_L1I WRITEBACK ACCESS:          0  HIT:          0  MISS:          0
cpu0_L1I TRANSLATION ACCESS:          0  HIT:          0  MISS:          0
cpu0_L1I PREFETCH  REQUESTED:          0  ISSUED:          0  USEFUL:          0  USELESS:          0
cpu0_L1I AVERAGE MISS LATENCY: 204.397 cycles
cpu0_STLB TOTAL     ACCESS:     573729  HIT:     541489  MISS:      32240
cpu0_STLB LOAD      ACCESS:     563768  HIT:     533091  MISS:      30677
cpu0_STLB RFO       ACCESS:       9961  HIT:       8398  MISS:       1563
cpu0_STLB PREFETCH  ACCESS:          0  HIT:          0  MISS:          0
cpu0_STLB WRITEBACK ACCESS:          0  HIT:          0  MISS:          0
cpu0_STLB TRANSLATION ACCESS:          0  HIT:          0  MISS:          0
cpu0_STLB PREFETCH  REQUESTED:          0  ISSUED:          0  USEFUL:          0  USELESS:          0
cpu0_STLB AVERAGE MISS LATENCY: 238.542 cycles
cpu0_L1D TOTAL     ACCESS:  389606631  HIT:  377191870  MISS:   12414761
cpu0_L1D LOAD      ACCESS:  335034791  HIT:  322745091  MISS:   12289700
cpu0_L1D RFO       ACCESS:   54540810  HIT:   54426069  MISS:     114741
cpu0_L1D PREFETCH  ACCESS:          0  HIT:          0  MISS:          0
cpu0_L1D WRITEBACK ACCESS:          0  HIT:          0  MISS:          0
cpu0_L1D TRANSLATION ACCESS:      31030  HIT:      20710  MISS:      10320
cpu0_L1D PREFETCH  REQUESTED:          0  ISSUED:          0  USEFUL:          0  USELESS:          0
cpu0_L1D AVERAGE MISS LATENCY: 58.4976 cycles
cpu0_L2C TOTAL     ACCESS:   16557389  HIT:    4937969  MISS:   11619420
cpu0_L2C LOAD      ACCESS:   12290135  HIT:    2098334  MISS:   10191801
cpu0_L2C RFO       ACCESS:     114740  HIT:       3885  MISS:     110855
cpu0_L2C PREFETCH  ACCESS:          0  HIT:          0  MISS:          0
cpu0_L2C WRITEBACK ACCESS:    4142194  HIT:    2833318  MISS:    1308876
cpu0_L2C TRANSLATION ACCESS:      10320  HIT:       2432  MISS:       7888
cpu0_L2C PREFETCH  REQUESTED:          0  ISSUED:          0  USEFUL:          0  USELESS:          0
cpu0_L2C AVERAGE MISS LATENCY: 50.74 cycles
LLC TOTAL     ACCESS:   13707211  HIT:   12186011  MISS:    1521200
LLC LOAD      ACCESS:   10191543  HIT:    8771916  MISS:    1419627
LLC RFO       ACCESS:     110854  HIT:       9343  MISS:     101511
LLC PREFETCH  ACCESS:          0  HIT:          0  MISS:          0
LLC WRITEBACK ACCESS:    3396926  HIT:    3396906  MISS:         20
LLC TRANSLATION ACCESS:       7888  HIT:       7846  MISS:         42
LLC PREFETCH  REQUESTED:          0  ISSUED:          0  USEFUL:          0  USELESS:          0
LLC AVERAGE MISS LATENCY: 245.235 cycles
~~~~~~~~~~Reuse Distance Profiler output~~~~~~~~~~
0	21787232	3063728
1	9485536	2657664
2	8618640	2534080
3	4524000	3729504
4	7248496	6341424
5	10526384	9656288
6	10077952	9252912
7	4463824	3074016
8	7747552	7058448
9	5494560	4647264
10	9615664	8848704
11	5225056	4936672
12	3312096	2986624
13	3607312	3349760
14	4331296	3853200
15	5168400	4933504
16	4499696	4031024
17	4554896	4255200
18	4300560	3978640
19	5225312	4686416
20	4087072	3328432
21	9315024	8480544
22	10742048	10493360
23	9600048	9002048
24	13058960	10637696
25	12253248	11866928
26	13234992	13055552
27	26419712	25641168
28	53378576	52066752
29	28410864	28169520
30	14025488	13811600
31	6257792	6057616
32	4312576	4133552
33	2457232	2190784
34	2420576	1817280
35	1725936	1208560
36	1571200	1349488
37	1307792	1132368
38	935136	770816
39	712096	530128
40	733888	547952
41	344480	209760
42	243184	135936
43	224576	127456
44	204768	117536
45	196608	126624
46	181920	123760
47	196336	138288
48	190528	139344
49	233312	176288
50	270208	206208
51	275136	212000
52	527440	468016
53	297360	239664
54	557008	499792
55	487168	427328
56	579216	516112
57	990336	929136
58	1287712	1234240
59	906000	851168
60	531072	476336
61	420288	362912
62	318784	255168
63	231168	160256
64	417136	234464
66	350688	180384
68	338832	210336
70	262240	181008
72	276976	159104
74	297152	174176
76	294992	217616
78	365312	292240
80	423120	344864
82	593872	538224
84	621152	579408
86	896608	863856
88	569376	538272
90	452880	422752
92	350352	320160
94	285280	259088
96	259216	232096
98	269392	231184
100	308560	258272
102	347712	303216
104	359728	334944
106	473664	458224
108	695328	682624
110	769920	761536
112	547152	536240
114	432624	414320
116	410560	394240
118	179200	170624
120	102112	98544
122	63088	61040
124	43648	41776
126	42032	39888
128	66528	63200
132	70592	67856
136	147440	145888
140	243440	242304
144	232432	230992
148	58624	57424
152	26144	24080
156	28384	26032
160	44752	42192
164	136480	134576
168	253296	250768
172	263424	261184
176	123968	121744
180	30288	27840
184	23120	21552
188	31888	30864
192	87328	86528
196	148912	148272
200	197984	197344
204	130336	129984
208	43888	43376
212	32240	31920
216	43936	43696
220	82304	82144
224	202576	202480
228	241056	240992
232	163040	162976
236	33744	33536
240	12512	12304
244	16800	16560
248	36896	36560
252	73520	73344
256	158896	158544
264	40000	39808
272	44992	44864
280	145792	145616
288	129232	129168
296	25808	25776
304	85312	85248
312	166208	166208
320	84832	84592
328	45184	45104
336	139120	139088
344	148816	148800
352	32256	32224
360	41872	41824
368	71744	71632
376	45152	45104
384	26560	26512
392	96544	96512
400	103856	103808
408	38752	38736
416	49296	49296
424	116128	116096
432	110896	110896
440	31232	31216
448	89584	89520
456	101200	101168
464	77616	77600
472	35376	35360
480	81760	81760
488	73840	73840
496	30304	30304
504	42512	42512
512	96000	96000
528	172928	172928
544	229920	229904
560	85808	85744
576	66304	66288
592	55296	55280
608	59968	59920
624	80896	80864
640	55280	55264
656	26192	26192
672	38960	38960
688	36304	36272
704	16832	16816
720	13808	13776
736	16112	16096
752	19840	19840
768	20336	20336
784	15568	15568
800	9664	9648
816	13520	13520
832	12160	12144
848	15792	15792
864	16768	16752
880	12032	12000
896	10320	10304
912	7856	7824
928	12688	12672
944	8832	8816
960	9312	9312
976	10224	10192
992	9888	9872
1008	6160	6096
1024	13712	13664
1056	15968	15936
1088	22560	22560
1120	13344	13248
1152	13472	13376
1184	17136	17136
1216	14304	14304
1248	12944	12928
1280	13200	13184
1312	12208	12208
1344	8848	8816
1376	10736	10720
1408	11760	11712
1440	9088	9024
1472	9600	9520
1504	12912	12880
1536	9616	9616
1568	9456	9376
1600	8992	8992
1632	10128	10096
1664	8512	8512
1696	10192	10192
1728	10240	10176
1760	9632	9600
1792	8848	8784
1824	9136	9104
1856	11040	10992
1888	8432	8384
1920	8320	8304
1952	9104	9104
1984	7008	6976
2016	8416	8400
2048	17408	17344
2112	15488	15488
2176	16992	16992
2240	19440	19344
2304	17008	16928
2368	18848	18800
2432	16336	16224
2496	15792	15776
2560	14896	14800
2624	16176	16112
2688	17120	17056
2752	15120	15072
2816	16672	16608
2880	14736	14736
2944	14544	14528
3008	16016	16000
3072	13920	13888
3136	12720	12672
3200	12256	12240
3264	14864	14816
3328	15152	15024
3392	15168	15040
3456	15392	15328
3520	14864	14832
3584	15024	14848
3648	14016	13904
3712	15248	15248
3776	14784	14720
3840	14576	14480
3904	15152	15136
3968	14976	14896
4032	15344	15264
4096	33088	32816
4224	30752	30624
4352	28816	28784
4480	31072	30928
4608	32240	31984
4736	34464	34336
4864	34672	34496
4992	33936	33776
5120	32640	32448
5248	31952	31792
5376	33856	33744
5504	33264	33072
5632	28256	28176
5760	27872	27808
5888	27536	27440
6016	26528	26464
6144	27248	27120
6272	25728	25600
6400	26688	26592
6528	26960	26848
6656	25296	25264
6784	25632	25552
6912	27904	27696
7040	28688	28560
7168	29248	29136
7296	28272	28112
7424	26272	26208
7552	28400	28288
7680	27472	27392
7808	27152	26976
7936	27920	27808
8064	29200	29152
8192	59024	58912
8448	58800	58576
8704	59312	59152
8960	63296	63152
9216	67936	67712
9472	73184	72960
9728	71504	71168
9984	64528	64352
10240	62880	62704
10496	63952	63792
10752	64320	64144
11008	65008	64752
11264	65728	65600
11520	58176	58064
11776	59600	59424
12032	61504	61344
12288	69232	69072
12544	72896	72640
12800	67008	66816
13056	73680	73440
13312	72768	72624
13568	80416	80256
13824	79168	79024
14080	78144	78000
14336	83872	83616
14592	82992	82720
14848	76176	76000
15104	83216	83040
15360	90576	90416
15616	89904	89728
15872	95504	95296
16128	89760	89600
16384	181552	181216
16896	171232	170800
17408	165904	165456
17920	170432	170128
18432	166720	166432
18944	187008	186816
19456	207920	207504
19968	189328	189088
20480	189040	188800
20992	182816	182496
21504	165728	165472
22016	168384	168096
22528	165024	164672
23040	146064	145920
23552	130096	129984
24064	121520	121392
24576	112976	112896
25088	109232	109184
25600	113344	113232
26112	111328	111200
26624	114176	114096
27136	111728	111536
27648	107200	107088
28160	106912	106736
28672	87200	87152
29184	88528	88480
29696	89232	89120
30208	90368	90272
30720	98512	98400
31232	107408	107280
31744	103424	103376
32256	97392	97344
32768	199872	199664
33792	217360	217200
34816	210976	210816
35840	217696	217584
36864	207680	207536
37888	223104	222832
38912	211824	211664
39936	216608	216448
40960	211056	210960
41984	209296	209120
43008	203776	203664
44032	209520	209392
45056	183088	183008
46080	198480	198384
47104	197152	197056
48128	207024	206864
49152	195696	195632
50176	181840	181680
51200	164304	164176
52224	135424	135360
53248	138080	137984
54272	154928	154832
55296	148128	148048
56320	124096	124032
57344	105152	105120
58368	92192	92112
59392	68864	68848
60416	84288	84208
61440	93760	93664
62464	114816	114768
63488	123616	123472
64512	139200	139120
65536	269824	269568
67584	227216	227072
69632	127232	127216
71680	102672	102656
73728	137008	136880
75776	129488	129488
77824	136656	136544
79872	124080	124032
81920	72080	72048
83968	24384	24352
86016	11472	11472
88064	8112	8112
90112	8288	8256
92160	9104	9072
94208	8224	8224
96256	8176	8160
98304	8352	8336
100352	8192	8192
102400	8304	8288
104448	7136	7120
106496	7232	7232
108544	7328	7312
110592	6736	6720
112640	6256	6256
114688	6688	6688
116736	5872	5872
118784	5424	5408
120832	5680	5664
122880	6208	6192
124928	6752	6752
126976	7312	7296
129024	7056	7056
131072	14544	14544
135168	14496	14496
139264	10608	10608
143360	10672	10656
147456	11280	11280
151552	10096	10080
155648	11536	11520
159744	10400	10384
163840	7824	7824
167936	7104	7104
172032	6560	6544
176128	7008	6992
180224	6336	6320
184320	6464	6464
188416	5616	5616
192512	5824	5776
196608	5440	5424
200704	5184	5168
204800	5376	5360
208896	4096	4080
212992	3552	3536
217088	3776	3744
221184	4128	4128
225280	4512	4496
229376	4000	4000
233472	4176	4176
237568	4912	4896
241664	4032	4032
245760	3984	3968
249856	4320	4304
253952	3776	3776
258048	4048	4048
262144	6432	6416
270336	6544	6528
278528	5568	5520
286720	7728	7728
294912	9776	9776
303104	8944	8912
311296	7968	7968
319488	7872	7856
327680	7920	7920
335872	7504	7472
344064	7664	7616
352256	6048	6032
360448	6048	6048
368640	4512	4496
376832	4352	4320
385024	4400	4384
393216	4624	4608
401408	6416	6384
409600	23472	23456
417792	18896	18848
425984	7520	7520
434176	2688	2656
442368	1968	1920
450560	2368	2352
458752	1904	1872
466944	2032	2016
475136	1808	1808
483328	2112	2080
491520	1952	1936
499712	1712	1696
507904	1456	1456
516096	1616	1616
524288	2848	2848
540672	4000	3968
557056	2976	2928
573440	2848	2832
589824	2544	2464
606208	18496	2800
622592	11088	3152
638976	2208	2176
655360	2352	2336
671744	2160	2160
688128	2416	2400
704512	2416	2416
720896	1696	1648
737280	2320	2320
753664	2240	2208
770048	2144	2144
786432	1872	1856
802816	1744	1728
819200	2288	2240
835584	1456	1456
851968	1680	1648
868352	1632	1584
884736	1248	1216
901120	1360	1360
917504	1616	1616
933888	1280	1264
950272	1520	1504
966656	1552	1488
983040	1360	1360
999424	1408	1376
1015808	1200	1184
1032192	1520	1488
1048576	2640	2592
1081344	2320	2272
1114112	2448	2368
1146880	2160	2112
1179648	2096	2064
1212416	2192	2144
1245184	1920	1824
1277952	2256	2176
1310720	1984	1936
1343488	1936	1920
1376256	1840	1824
1409024	1792	1776
1441792	1872	1856
1474560	1792	1744
1507328	1840	1792
1540096	1520	1488
1572864	1648	1600
1605632	1520	1472
1638400	1488	1440
1671168	1440	1408
1703936	1712	1632
1736704	1168	1136
1769472	1328	1296
1802240	1536	1520
1835008	1584	1536
1867776	1360	1360
1900544	1296	1248
1933312	1168	1120
1966080	1184	1088
1998848	1360	1328
2031616	1360	1360
2064384	1312	1296
2097152	2192	2128
2162688	2736	2704
2228224	2576	2464
2293760	2368	2256
2359296	2304	2256
2424832	2480	2400
2490368	2448	2400
2555904	2880	2800
2621440	2016	1968
2686976	2128	2064
2752512	2304	2208
2818048	2112	2048
2883584	2080	2032
2949120	1808	1744
3014656	1744	1616
3080192	1968	1920
3145728	2048	1952
3211264	1808	1728
3276800	1952	1936
3342336	1728	1680
3407872	1840	1792
3473408	1424	1344
3538944	2048	1952
3604480	1648	1536
3670016	1680	1616
3735552	1552	1504
3801088	1664	1616
3866624	1840	1792
3932160	1904	1792
3997696	1696	1616
4063232	1616	1520
4128768	1904	1856
4194304	3648	3536
4325376	3776	3600
4456448	3568	3392
4587520	3088	2992
4718592	5568	5408
4849664	6256	6160
4980736	6032	5856
5111808	6208	6112
5242880	5920	5664
5373952	5776	5488
5505024	6048	5856
5636096	6064	5936
5767168	6304	6208
5898240	6976	6768
6029312	6176	6080
6160384	5840	5696
6291456	5760	5616
6422528	5952	5824
6553600	4864	4864
6684672	4592	4592
6815744	4656	4656
6946816	4432	4432
7077888	5856	5856
7208960	5120	5120
7340032	5248	5248
7471104	5472	5472
7602176	5392	5392
7733248	3056	3056
7864320	2560	2560
7995392	2688	2688
8126464	2320	2320
8257536	2704	2704
8388608	4848	4848
8650752	5296	5296
8912896	4624	4624
9175040	4960	4960
9437184	4832	4832
9699328	5312	5312
9961472	5104	5104
10223616	5088	5088
10485760	4912	4912
10747904	3904	3904
11010048	3984	3984
11272192	4160	4160
11534336	4256	4256
11796480	4848	4848
12058624	4992	4992
12320768	5136	5136
12582912	5072	5072
12845056	4496	4496
13107200	2608	2608
13369344	2384	2384
13631488	704	704
13893632	784	784
14155776	704	704
14417920	624	624
14680064	720	720
14942208	624	624
15204352	800	800
15466496	704	704
15728640	592	592
15990784	576	576
16252928	384	384
16515072	288	288
16777216	624	624
17301504	912	912
17825792	688	688
18350080	592	592
18874368	640	640
19398656	720	720
19922944	592	592
20447232	592	592
20971520	1456	1456
21495808	656	656
22020096	800	800
22544384	912	912
23068672	736	736
23592960	864	864
24117248	800	800
24641536	1056	1056
25165824	736	736
25690112	464	464
26214400	384	384
26738688	720	720
27262976	432	432
27787264	304	304
28311552	256	256
28835840	192	192
29360128	160	160
29884416	320	320
30408704	320	320
30932992	240	240
31457280	208	208
31981568	160	160
32505856	336	336
33030144	144	144
33554432	416	416
34603008	464	464
35651584	464	464
36700160	480	480
37748736	640	640
38797312	896	880
39845888	960	912
40894464	912	912
41943040	560	560
42991616	256	256
44040192	528	496
45088768	512	496
46137344	544	528
47185920	352	336
48234496	496	496
49283072	432	432
50331648	576	576
51380224	608	608
52428800	368	368
53477376	496	496
54525952	336	336
55574528	320	320
56623104	256	256
57671680	336	320
58720256	240	240
59768832	176	160
60817408	272	272
61865984	208	176
62914560	144	144
63963136	320	304
65011712	208	208
66060288	352	352
67108864	1040	1040
69206016	704	688
71303168	1120	1120
73400320	960	960
75497472	672	640
77594624	1088	1072
79691776	816	800
81788928	816	800
83886080	1088	1072
85983232	784	768
88080384	992	944
90177536	480	448
92274688	496	496
94371840	464	432
96468992	528	512
98566144	656	640
100663296	688	672
102760448	592	592
104857600	304	304
106954752	544	544
109051904	416	416
111149056	400	384
113246208	352	336
115343360	368	368
117440512	736	720
119537664	176	144
121634816	320	320
123731968	288	272
125829120	224	208
127926272	400	368
130023424	288	288
132120576	256	256
134217728	528	528
138412032	608	560
142606336	656	608
146800640	928	896
150994944	624	608
155189248	560	544
159383552	496	480
163577856	912	912
167772160	1040	1040
171966464	1344	1344
176160768	1872	1872
180355072	1952	1952
184549376	1168	1168
188743680	256	256
192937984	384	384
197132288	544	544
201326592	352	352
205520896	112	112
209715200	128	128
213909504	304	304
218103808	80	80
222298112	192	192
226492416	272	272
230686720	64	64
234881024	0	0
239075328	0	0
243269632	0	0
247463936	0	0
251658240	0	0
255852544	0	0
260046848	0	0
264241152	0	0
268435456	0	0
276824064	0	0
285212672	0	0
293601280	0	0
301989888	0	0
310378496	0	0
318767104	0	0
327155712	0	0
335544320	0	0
343932928	0	0
352321536	0	0
360710144	0	0
369098752	0	0
377487360	0	0
385875968	0	0
394264576	0	0
402653184	0	0
411041792	0	0
419430400	0	0
427819008	0	0
436207616	0	0
444596224	0	0
452984832	0	0
461373440	0	0
469762048	0	0
478150656	0	0
486539264	0	0
494927872	0	0
503316480	0	0
511705088	0	0
520093696	0	0
528482304	0	0
536870912	0	0
553648128	0	0
570425344	0	0
587202560	0	0
603979776	0	0
620756992	0	0
637534208	0	0
654311424	0	0
671088640	0	0
687865856	0	0
704643072	0	0
721420288	0	0
738197504	0	0
754974720	0	0
771751936	0	0
788529152	0	0
805306368	0	0
822083584	0	0
838860800	0	0
855638016	0	0
872415232	0	0
889192448	0	0
905969664	0	0
922746880	0	0
939524096	0	0
956301312	0	0
973078528	0	0
989855744	0	0
1006632960	0	0
1023410176	0	0
1040187392	0	0
1056964608	0	0
1073741824	0	0
1107296256	0	0
1140850688	0	0
1174405120	0	0
1207959552	0	0
1241513984	0	0
1275068416	0	0
1308622848	0	0
1342177280	0	0
1375731712	0	0
1409286144	0	0
1442840576	0	0
1476395008	0	0
1509949440	0	0
1543503872	0	0
1577058304	0	0
1610612736	0	0
1644167168	0	0
1677721600	0	0
1711276032	0	0
1744830464	0	0
1778384896	0	0
1811939328	0	0
1845493760	0	0
1879048192	0	0
1912602624	0	0
1946157056	0	0
1979711488	0	0
2013265920	0	0
2046820352	0	0
2080374784	0	0
2113929216	0	0
2147483648	0	0
2214592512	0	0
2281701376	0	0
2348810240	0	0
2415919104	0	0
2483027968	0	0
2550136832	0	0
2617245696	0	0
2684354560	0	0
2751463424	0	0
2818572288	0	0
2885681152	0	0
2952790016	0	0
3019898880	0	0
3087007744	0	0
3154116608	0	0
3221225472	0	0
3288334336	0	0
3355443200	0	0
3422552064	0	0
3489660928	0	0
3556769792	0	0
3623878656	0	0
3690987520	0	0
3758096384	0	0
3825205248	0	0
3892314112	0	0
3959422976	0	0
4026531840	0	0
4093640704	0	0
4160749568	0	0
4227858432	0	0
~~~~~~~~~~Reuse Distance Profiler output end~~~~~~~~~~

Sampler size:74668

DRAM Statistics
 CHANNEL 0
 RQ ROW_BUFFER_HIT:     627946  ROW_BUFFER_MISS:     893044
 DBUS AVG_CONGESTED_CYCLE:    3.94605
 WQ ROW_BUFFER_HIT:      35236  ROW_BUFFER_MISS:     234932  FULL:          0


CPU 0 Branch Prediction Accuracy: 99.6101% MPKI: 0.368872 Average ROB Occupancy at Mispredict: 153.839
Branch type MPKI
BRANCH_DIRECT_JUMP: 6.13333e-05
BRANCH_INDIRECT: 0.0929827
BRANCH_CONDITIONAL: 0.275796
BRANCH_DIRECT_CALL: 1.6e-05
BRANCH_INDIRECT_CALL: 0
BRANCH_RETURN: 1.6e-05

