
*** ChampSim Multicore Out-of-Order Simulator ***

Warmup Instructions: 50000000
Simulation Instructions: 1500000000
Number of CPUs: 1
Off-chip DRAM Size: 4 GiB Channels: 1 Width: 64-bit Data Rate: 3200 MT/s

VirtualMemory physical capacity: 8588881920 num_ppages: 2096895
VirtualMemory page size: 4096 log2_page_size: 12

CPU 0 runs /s/traces/champsim_traces/644.nab_s-12459B.champsimtrace.xz
CPU 0 Bimodal branch predictor
Basic BTB sets: 1024 ways: 8 indirect buffer size: 4096 RAS size: 64
Initializing LRU.
Initializing LRU.
Initializing LRU.
Initializing LRU.
Initializing rdLRU.
Initializing LRU.
Initializing LRU.
Heartbeat CPU 0 instructions: 2000001 cycles: 502381 heartbeat IPC: 3.98104 cumulative IPC: 3.98104 (Simulation time: 0 hr 1 min 0 sec) 
Heartbeat CPU 0 instructions: 4000001 cycles: 1004603 heartbeat IPC: 3.9823 cumulative IPC: 3.98167 (Simulation time: 0 hr 1 min 58 sec) 
Heartbeat CPU 0 instructions: 6000002 cycles: 1506833 heartbeat IPC: 3.98224 cumulative IPC: 3.98186 (Simulation time: 0 hr 2 min 56 sec) 
Heartbeat CPU 0 instructions: 8000001 cycles: 2009018 heartbeat IPC: 3.98259 cumulative IPC: 3.98205 (Simulation time: 0 hr 4 min 6 sec) 
Heartbeat CPU 0 instructions: 10000001 cycles: 2511164 heartbeat IPC: 3.98291 cumulative IPC: 3.98222 (Simulation time: 0 hr 4 min 59 sec) 
Heartbeat CPU 0 instructions: 12000003 cycles: 3014444 heartbeat IPC: 3.97393 cumulative IPC: 3.98083 (Simulation time: 0 hr 5 min 59 sec) 
Heartbeat CPU 0 instructions: 14000000 cycles: 3516735 heartbeat IPC: 3.98175 cumulative IPC: 3.98097 (Simulation time: 0 hr 7 min 1 sec) 
Heartbeat CPU 0 instructions: 16000001 cycles: 4019028 heartbeat IPC: 3.98174 cumulative IPC: 3.98106 (Simulation time: 0 hr 8 min 0 sec) 
Heartbeat CPU 0 instructions: 18000001 cycles: 4521326 heartbeat IPC: 3.9817 cumulative IPC: 3.98113 (Simulation time: 0 hr 8 min 58 sec) 
Heartbeat CPU 0 instructions: 20000001 cycles: 5023569 heartbeat IPC: 3.98214 cumulative IPC: 3.98123 (Simulation time: 0 hr 9 min 56 sec) 
Heartbeat CPU 0 instructions: 22000001 cycles: 5525795 heartbeat IPC: 3.98227 cumulative IPC: 3.98133 (Simulation time: 0 hr 10 min 54 sec) 
Heartbeat CPU 0 instructions: 24000002 cycles: 6028035 heartbeat IPC: 3.98216 cumulative IPC: 3.9814 (Simulation time: 0 hr 11 min 52 sec) 
Heartbeat CPU 0 instructions: 26000003 cycles: 6530266 heartbeat IPC: 3.98223 cumulative IPC: 3.98146 (Simulation time: 0 hr 12 min 50 sec) 
Heartbeat CPU 0 instructions: 28000003 cycles: 7032554 heartbeat IPC: 3.98178 cumulative IPC: 3.98148 (Simulation time: 0 hr 13 min 49 sec) 
Heartbeat CPU 0 instructions: 30000001 cycles: 7534880 heartbeat IPC: 3.98147 cumulative IPC: 3.98148 (Simulation time: 0 hr 14 min 48 sec) 
Heartbeat CPU 0 instructions: 32000001 cycles: 8037219 heartbeat IPC: 3.98138 cumulative IPC: 3.98148 (Simulation time: 0 hr 15 min 46 sec) 
Heartbeat CPU 0 instructions: 34000001 cycles: 8539601 heartbeat IPC: 3.98103 cumulative IPC: 3.98145 (Simulation time: 0 hr 16 min 44 sec) 
Heartbeat CPU 0 instructions: 36000000 cycles: 9041923 heartbeat IPC: 3.98151 cumulative IPC: 3.98145 (Simulation time: 0 hr 17 min 42 sec) 
Heartbeat CPU 0 instructions: 38000003 cycles: 9544267 heartbeat IPC: 3.98134 cumulative IPC: 3.98145 (Simulation time: 0 hr 18 min 43 sec) 
Heartbeat CPU 0 instructions: 40000002 cycles: 10046454 heartbeat IPC: 3.98258 cumulative IPC: 3.9815 (Simulation time: 0 hr 19 min 43 sec) 
Heartbeat CPU 0 instructions: 42000001 cycles: 10548551 heartbeat IPC: 3.98329 cumulative IPC: 3.98159 (Simulation time: 0 hr 20 min 45 sec) 
Heartbeat CPU 0 instructions: 44000003 cycles: 11050620 heartbeat IPC: 3.98352 cumulative IPC: 3.98168 (Simulation time: 0 hr 21 min 46 sec) 
Heartbeat CPU 0 instructions: 46000000 cycles: 11553522 heartbeat IPC: 3.97691 cumulative IPC: 3.98147 (Simulation time: 0 hr 22 min 47 sec) 
Heartbeat CPU 0 instructions: 48000003 cycles: 12055375 heartbeat IPC: 3.98524 cumulative IPC: 3.98163 (Simulation time: 0 hr 23 min 55 sec) 
Heartbeat CPU 0 instructions: 50000001 cycles: 12557344 heartbeat IPC: 3.98431 cumulative IPC: 3.98173 (Simulation time: 0 hr 24 min 53 sec) 

Warmup complete CPU 0 instructions: 50000001 cycles: 12557344 (Simulation time: 0 hr 24 min 53 sec) 

Heartbeat CPU 0 instructions: 52000002 cycles: 14227552 heartbeat IPC: 1.19746 cumulative IPC: 1.19746 (Simulation time: 0 hr 25 min 53 sec) 

Region of Interest Statistics
cpu0_DTLB TOTAL     ACCESS:     348229  HIT:     347678  MISS:        551
cpu0_DTLB LOAD      ACCESS:     265839  HIT:     265306  MISS:        533
cpu0_DTLB RFO       ACCESS:      82390  HIT:      82372  MISS:         18
cpu0_DTLB PREFETCH  ACCESS:          0  HIT:          0  MISS:          0
cpu0_DTLB WRITEBACK ACCESS:          0  HIT:          0  MISS:          0
cpu0_ITLB TOTAL     ACCESS:     209895  HIT:     209895  MISS:          0
cpu0_ITLB LOAD      ACCESS:     209895  HIT:     209895  MISS:          0
cpu0_ITLB RFO       ACCESS:          0  HIT:          0  MISS:          0
cpu0_ITLB PREFETCH  ACCESS:          0  HIT:          0  MISS:          0
cpu0_ITLB WRITEBACK ACCESS:          0  HIT:          0  MISS:          0
cpu0_STLB TOTAL     ACCESS:        551  HIT:        547  MISS:          4
cpu0_STLB LOAD      ACCESS:        533  HIT:        533  MISS:          0
cpu0_STLB RFO       ACCESS:         18  HIT:         14  MISS:          4
cpu0_STLB PREFETCH  ACCESS:          0  HIT:          0  MISS:          0
cpu0_STLB WRITEBACK ACCESS:          0  HIT:          0  MISS:          0
cpu0_L1D TOTAL     ACCESS:     467937  HIT:     453701  MISS:      14236
cpu0_L1D LOAD      ACCESS:     260106  HIT:     246644  MISS:      13462
cpu0_L1D RFO       ACCESS:     207827  HIT:     207055  MISS:        772
cpu0_L1D PREFETCH  ACCESS:          0  HIT:          0  MISS:          0
cpu0_L1D WRITEBACK ACCESS:          0  HIT:          0  MISS:          0
cpu0_L2C TOTAL     ACCESS:      15410  HIT:       1144  MISS:      14266
cpu0_L2C LOAD      ACCESS:      13462  HIT:        162  MISS:      13300
cpu0_L2C RFO       ACCESS:        772  HIT:         38  MISS:        734
cpu0_L2C PREFETCH  ACCESS:          0  HIT:          0  MISS:          0
cpu0_L2C WRITEBACK ACCESS:       1174  HIT:        944  MISS:        230
LLC TOTAL     ACCESS:      15160  HIT:      14815  MISS:        345
LLC LOAD      ACCESS:      13301  HIT:      13300  MISS:          1
LLC RFO       ACCESS:        734  HIT:        390  MISS:        344
LLC PREFETCH  ACCESS:          0  HIT:          0  MISS:          0
LLC WRITEBACK ACCESS:       1123  HIT:       1123  MISS:          0
Heartbeat CPU 0 instructions: 54000002 cycles: 15771592 heartbeat IPC: 1.2953 cumulative IPC: 1.24446 (Simulation time: 0 hr 26 min 50 sec) 

Region of Interest Statistics
cpu0_DTLB TOTAL     ACCESS:     681090  HIT:     680118  MISS:        972
cpu0_DTLB LOAD      ACCESS:     519221  HIT:     518286  MISS:        935
cpu0_DTLB RFO       ACCESS:     161869  HIT:     161832  MISS:         37
cpu0_DTLB PREFETCH  ACCESS:          0  HIT:          0  MISS:          0
cpu0_DTLB WRITEBACK ACCESS:          0  HIT:          0  MISS:          0
cpu0_ITLB TOTAL     ACCESS:     418224  HIT:     418224  MISS:          0
cpu0_ITLB LOAD      ACCESS:     418224  HIT:     418224  MISS:          0
cpu0_ITLB RFO       ACCESS:          0  HIT:          0  MISS:          0
cpu0_ITLB PREFETCH  ACCESS:          0  HIT:          0  MISS:          0
cpu0_ITLB WRITEBACK ACCESS:          0  HIT:          0  MISS:          0
cpu0_STLB TOTAL     ACCESS:        972  HIT:        962  MISS:         10
cpu0_STLB LOAD      ACCESS:        935  HIT:        935  MISS:          0
cpu0_STLB RFO       ACCESS:         37  HIT:         27  MISS:         10
cpu0_STLB PREFETCH  ACCESS:          0  HIT:          0  MISS:          0
cpu0_STLB WRITEBACK ACCESS:          0  HIT:          0  MISS:          0
cpu0_L1D TOTAL     ACCESS:     892399  HIT:     867687  MISS:      24712
cpu0_L1D LOAD      ACCESS:     500698  HIT:     477419  MISS:      23279
cpu0_L1D RFO       ACCESS:     391691  HIT:     390263  MISS:       1428
cpu0_L1D PREFETCH  ACCESS:          0  HIT:          0  MISS:          0
cpu0_L1D WRITEBACK ACCESS:          0  HIT:          0  MISS:          0
cpu0_L2C TOTAL     ACCESS:      26700  HIT:       1950  MISS:      24750
cpu0_L2C LOAD      ACCESS:      23279  HIT:        308  MISS:      22971
cpu0_L2C RFO       ACCESS:       1428  HIT:         71  MISS:       1357
cpu0_L2C PREFETCH  ACCESS:          0  HIT:          0  MISS:          0
cpu0_L2C WRITEBACK ACCESS:       1988  HIT:       1571  MISS:        417
LLC TOTAL     ACCESS:      26225  HIT:      25519  MISS:        706
LLC LOAD      ACCESS:      22971  HIT:      22970  MISS:          1
LLC RFO       ACCESS:       1357  HIT:        652  MISS:        705
LLC PREFETCH  ACCESS:          0  HIT:          0  MISS:          0
LLC WRITEBACK ACCESS:       1892  HIT:       1892  MISS:          0
Heartbeat CPU 0 instructions: 56000000 cycles: 17433014 heartbeat IPC: 1.20379 cumulative IPC: 1.2306 (Simulation time: 0 hr 27 min 48 sec) 

Region of Interest Statistics
cpu0_DTLB TOTAL     ACCESS:    1027322  HIT:    1025816  MISS:       1506
cpu0_DTLB LOAD      ACCESS:     783966  HIT:     782512  MISS:       1454
cpu0_DTLB RFO       ACCESS:     243356  HIT:     243304  MISS:         52
cpu0_DTLB PREFETCH  ACCESS:          0  HIT:          0  MISS:          0
cpu0_DTLB WRITEBACK ACCESS:          0  HIT:          0  MISS:          0
cpu0_ITLB TOTAL     ACCESS:     628837  HIT:     628837  MISS:          0
cpu0_ITLB LOAD      ACCESS:     628837  HIT:     628837  MISS:          0
cpu0_ITLB RFO       ACCESS:          0  HIT:          0  MISS:          0
cpu0_ITLB PREFETCH  ACCESS:          0  HIT:          0  MISS:          0
cpu0_ITLB WRITEBACK ACCESS:          0  HIT:          0  MISS:          0
cpu0_STLB TOTAL     ACCESS:       1506  HIT:       1493  MISS:         13
cpu0_STLB LOAD      ACCESS:       1454  HIT:       1454  MISS:          0
cpu0_STLB RFO       ACCESS:         52  HIT:         39  MISS:         13
cpu0_STLB PREFETCH  ACCESS:          0  HIT:          0  MISS:          0
cpu0_STLB WRITEBACK ACCESS:          0  HIT:          0  MISS:          0
cpu0_L1D TOTAL     ACCESS:    1357823  HIT:    1319193  MISS:      38630
cpu0_L1D LOAD      ACCESS:     759077  HIT:     722509  MISS:      36568
cpu0_L1D RFO       ACCESS:     598733  HIT:     596678  MISS:       2055
cpu0_L1D PREFETCH  ACCESS:          0  HIT:          0  MISS:          0
cpu0_L1D WRITEBACK ACCESS:          0  HIT:          0  MISS:          0
cpu0_L2C TOTAL     ACCESS:      41737  HIT:       3052  MISS:      38685
cpu0_L2C LOAD      ACCESS:      36568  HIT:        505  MISS:      36063
cpu0_L2C RFO       ACCESS:       2055  HIT:        105  MISS:       1950
cpu0_L2C PREFETCH  ACCESS:          0  HIT:          0  MISS:          0
cpu0_L2C WRITEBACK ACCESS:       3107  HIT:       2442  MISS:        665
LLC TOTAL     ACCESS:      40971  HIT:      40033  MISS:        938
LLC LOAD      ACCESS:      36063  HIT:      36062  MISS:          1
LLC RFO       ACCESS:       1950  HIT:       1013  MISS:        937
LLC PREFETCH  ACCESS:          0  HIT:          0  MISS:          0
LLC WRITEBACK ACCESS:       2951  HIT:       2951  MISS:          0
Heartbeat CPU 0 instructions: 58000003 cycles: 19024703 heartbeat IPC: 1.25653 cumulative IPC: 1.23698 (Simulation time: 0 hr 28 min 48 sec) 

Region of Interest Statistics
cpu0_DTLB TOTAL     ACCESS:    1364200  HIT:    1362258  MISS:       1942
cpu0_DTLB LOAD      ACCESS:    1040350  HIT:    1038479  MISS:       1871
cpu0_DTLB RFO       ACCESS:     323850  HIT:     323779  MISS:         71
cpu0_DTLB PREFETCH  ACCESS:          0  HIT:          0  MISS:          0
cpu0_DTLB WRITEBACK ACCESS:          0  HIT:          0  MISS:          0
cpu0_ITLB TOTAL     ACCESS:     838378  HIT:     838378  MISS:          0
cpu0_ITLB LOAD      ACCESS:     838378  HIT:     838378  MISS:          0
cpu0_ITLB RFO       ACCESS:          0  HIT:          0  MISS:          0
cpu0_ITLB PREFETCH  ACCESS:          0  HIT:          0  MISS:          0
cpu0_ITLB WRITEBACK ACCESS:          0  HIT:          0  MISS:          0
cpu0_STLB TOTAL     ACCESS:       1942  HIT:       1923  MISS:         19
cpu0_STLB LOAD      ACCESS:       1871  HIT:       1871  MISS:          0
cpu0_STLB RFO       ACCESS:         71  HIT:         52  MISS:         19
cpu0_STLB PREFETCH  ACCESS:          0  HIT:          0  MISS:          0
cpu0_STLB WRITEBACK ACCESS:          0  HIT:          0  MISS:          0
cpu0_L1D TOTAL     ACCESS:    1793098  HIT:    1742796  MISS:      50302
cpu0_L1D LOAD      ACCESS:    1003095  HIT:     955513  MISS:      47582
cpu0_L1D RFO       ACCESS:     789984  HIT:     787274  MISS:       2710
cpu0_L1D PREFETCH  ACCESS:          0  HIT:          0  MISS:          0
cpu0_L1D WRITEBACK ACCESS:          0  HIT:          0  MISS:          0
cpu0_L2C TOTAL     ACCESS:      54195  HIT:       3794  MISS:      50401
cpu0_L2C LOAD      ACCESS:      47582  HIT:        634  MISS:      46948
cpu0_L2C RFO       ACCESS:       2710  HIT:        139  MISS:       2571
cpu0_L2C PREFETCH  ACCESS:          0  HIT:          0  MISS:          0
cpu0_L2C WRITEBACK ACCESS:       3893  HIT:       3021  MISS:        872
LLC TOTAL     ACCESS:      53239  HIT:      51920  MISS:       1319
LLC LOAD      ACCESS:      46948  HIT:      46924  MISS:         24
LLC RFO       ACCESS:       2571  HIT:       1276  MISS:       1295
LLC PREFETCH  ACCESS:          0  HIT:          0  MISS:          0
LLC WRITEBACK ACCESS:       3710  HIT:       3710  MISS:          0
Heartbeat CPU 0 instructions: 60000002 cycles: 20724463 heartbeat IPC: 1.17664 cumulative IPC: 1.22442 (Simulation time: 0 hr 29 min 45 sec) 

Region of Interest Statistics
cpu0_DTLB TOTAL     ACCESS:    1712570  HIT:    1710105  MISS:       2465
cpu0_DTLB LOAD      ACCESS:    1305996  HIT:    1303617  MISS:       2379
cpu0_DTLB RFO       ACCESS:     406574  HIT:     406488  MISS:         86
cpu0_DTLB PREFETCH  ACCESS:          0  HIT:          0  MISS:          0
cpu0_DTLB WRITEBACK ACCESS:          0  HIT:          0  MISS:          0
cpu0_ITLB TOTAL     ACCESS:    1049320  HIT:    1049320  MISS:          0
cpu0_ITLB LOAD      ACCESS:    1049320  HIT:    1049320  MISS:          0
cpu0_ITLB RFO       ACCESS:          0  HIT:          0  MISS:          0
cpu0_ITLB PREFETCH  ACCESS:          0  HIT:          0  MISS:          0
cpu0_ITLB WRITEBACK ACCESS:          0  HIT:          0  MISS:          0
cpu0_STLB TOTAL     ACCESS:       2465  HIT:       2442  MISS:         23
cpu0_STLB LOAD      ACCESS:       2379  HIT:       2379  MISS:          0
cpu0_STLB RFO       ACCESS:         86  HIT:         63  MISS:         23
cpu0_STLB PREFETCH  ACCESS:          0  HIT:          0  MISS:          0
cpu0_STLB WRITEBACK ACCESS:          0  HIT:          0  MISS:          0
cpu0_L1D TOTAL     ACCESS:    2264162  HIT:    2199252  MISS:      64910
cpu0_L1D LOAD      ACCESS:    1264293  HIT:    1202711  MISS:      61582
cpu0_L1D RFO       ACCESS:     999846  HIT:     996530  MISS:       3316
cpu0_L1D PREFETCH  ACCESS:          0  HIT:          0  MISS:          0
cpu0_L1D WRITEBACK ACCESS:          0  HIT:          0  MISS:          0
cpu0_L2C TOTAL     ACCESS:      69936  HIT:       4887  MISS:      65049
cpu0_L2C LOAD      ACCESS:      61582  HIT:        824  MISS:      60758
cpu0_L2C RFO       ACCESS:       3316  HIT:        178  MISS:       3138
cpu0_L2C PREFETCH  ACCESS:          0  HIT:          0  MISS:          0
cpu0_L2C WRITEBACK ACCESS:       5026  HIT:       3885  MISS:       1141
LLC TOTAL     ACCESS:      68712  HIT:      67103  MISS:       1609
LLC LOAD      ACCESS:      60758  HIT:      60695  MISS:         63
LLC RFO       ACCESS:       3138  HIT:       1592  MISS:       1546
LLC PREFETCH  ACCESS:          0  HIT:          0  MISS:          0
LLC WRITEBACK ACCESS:       4804  HIT:       4804  MISS:          0
Heartbeat CPU 0 instructions: 62000000 cycles: 22346615 heartbeat IPC: 1.23293 cumulative IPC: 1.22583 (Simulation time: 0 hr 30 min 44 sec) 

Region of Interest Statistics
cpu0_DTLB TOTAL     ACCESS:    2053542  HIT:    2050653  MISS:       2889
cpu0_DTLB LOAD      ACCESS:    1565678  HIT:    1562890  MISS:       2788
cpu0_DTLB RFO       ACCESS:     487864  HIT:     487763  MISS:        101
cpu0_DTLB PREFETCH  ACCESS:          0  HIT:          0  MISS:          0
cpu0_DTLB WRITEBACK ACCESS:          0  HIT:          0  MISS:          0
cpu0_ITLB TOTAL     ACCESS:    1259495  HIT:    1259495  MISS:          0
cpu0_ITLB LOAD      ACCESS:    1259495  HIT:    1259495  MISS:          0
cpu0_ITLB RFO       ACCESS:          0  HIT:          0  MISS:          0
cpu0_ITLB PREFETCH  ACCESS:          0  HIT:          0  MISS:          0
cpu0_ITLB WRITEBACK ACCESS:          0  HIT:          0  MISS:          0
cpu0_STLB TOTAL     ACCESS:       2889  HIT:       2862  MISS:         27
cpu0_STLB LOAD      ACCESS:       2788  HIT:       2788  MISS:          0
cpu0_STLB RFO       ACCESS:        101  HIT:         74  MISS:         27
cpu0_STLB PREFETCH  ACCESS:          0  HIT:          0  MISS:          0
cpu0_STLB WRITEBACK ACCESS:          0  HIT:          0  MISS:          0
cpu0_L1D TOTAL     ACCESS:    2712005  HIT:    2634428  MISS:      77577
cpu0_L1D LOAD      ACCESS:    1512973  HIT:    1439306  MISS:      73667
cpu0_L1D RFO       ACCESS:    1199005  HIT:    1195109  MISS:       3896
cpu0_L1D PREFETCH  ACCESS:          0  HIT:          0  MISS:          0
cpu0_L1D WRITEBACK ACCESS:          0  HIT:          0  MISS:          0
cpu0_L2C TOTAL     ACCESS:      83459  HIT:       5739  MISS:      77720
cpu0_L2C LOAD      ACCESS:      73667  HIT:       1006  MISS:      72661
cpu0_L2C RFO       ACCESS:       3896  HIT:        206  MISS:       3690
cpu0_L2C PREFETCH  ACCESS:          0  HIT:          0  MISS:          0
cpu0_L2C WRITEBACK ACCESS:       5882  HIT:       4527  MISS:       1355
LLC TOTAL     ACCESS:      81985  HIT:      80130  MISS:       1855
LLC LOAD      ACCESS:      72661  HIT:      72596  MISS:         65
LLC RFO       ACCESS:       3690  HIT:       1900  MISS:       1790
LLC PREFETCH  ACCESS:          0  HIT:          0  MISS:          0
LLC WRITEBACK ACCESS:       5620  HIT:       5620  MISS:          0
Heartbeat CPU 0 instructions: 64000002 cycles: 23989385 heartbeat IPC: 1.21746 cumulative IPC: 1.22463 (Simulation time: 0 hr 31 min 43 sec) 

Region of Interest Statistics
cpu0_DTLB TOTAL     ACCESS:    2397524  HIT:    2394149  MISS:       3375
cpu0_DTLB LOAD      ACCESS:    1828163  HIT:    1824908  MISS:       3255
cpu0_DTLB RFO       ACCESS:     569361  HIT:     569241  MISS:        120
cpu0_DTLB PREFETCH  ACCESS:          0  HIT:          0  MISS:          0
cpu0_DTLB WRITEBACK ACCESS:          0  HIT:          0  MISS:          0
cpu0_ITLB TOTAL     ACCESS:    1468439  HIT:    1468439  MISS:          0
cpu0_ITLB LOAD      ACCESS:    1468439  HIT:    1468439  MISS:          0
cpu0_ITLB RFO       ACCESS:          0  HIT:          0  MISS:          0
cpu0_ITLB PREFETCH  ACCESS:          0  HIT:          0  MISS:          0
cpu0_ITLB WRITEBACK ACCESS:          0  HIT:          0  MISS:          0
cpu0_STLB TOTAL     ACCESS:       3375  HIT:       3343  MISS:         32
cpu0_STLB LOAD      ACCESS:       3255  HIT:       3255  MISS:          0
cpu0_STLB RFO       ACCESS:        120  HIT:         88  MISS:         32
cpu0_STLB PREFETCH  ACCESS:          0  HIT:          0  MISS:          0
cpu0_STLB WRITEBACK ACCESS:          0  HIT:          0  MISS:          0
cpu0_L1D TOTAL     ACCESS:    3162534  HIT:    3072093  MISS:      90441
cpu0_L1D LOAD      ACCESS:    1766788  HIT:    1680934  MISS:      85854
cpu0_L1D RFO       ACCESS:    1395715  HIT:    1391145  MISS:       4570
cpu0_L1D PREFETCH  ACCESS:          0  HIT:          0  MISS:          0
cpu0_L1D WRITEBACK ACCESS:          0  HIT:          0  MISS:          0
cpu0_L2C TOTAL     ACCESS:      97369  HIT:       6761  MISS:      90608
cpu0_L2C LOAD      ACCESS:      85854  HIT:       1178  MISS:      84676
cpu0_L2C RFO       ACCESS:       4570  HIT:        268  MISS:       4302
cpu0_L2C PREFETCH  ACCESS:          0  HIT:          0  MISS:          0
cpu0_L2C WRITEBACK ACCESS:       6928  HIT:       5315  MISS:       1613
LLC TOTAL     ACCESS:      95597  HIT:      93361  MISS:       2236
LLC LOAD      ACCESS:      84676  HIT:      84588  MISS:         88
LLC RFO       ACCESS:       4302  HIT:       2154  MISS:       2148
LLC PREFETCH  ACCESS:          0  HIT:          0  MISS:          0
LLC WRITEBACK ACCESS:       6602  HIT:       6602  MISS:          0
Heartbeat CPU 0 instructions: 66000003 cycles: 25658413 heartbeat IPC: 1.1983 cumulative IPC: 1.22127 (Simulation time: 0 hr 32 min 41 sec) 

Region of Interest Statistics
cpu0_DTLB TOTAL     ACCESS:    2743045  HIT:    2739189  MISS:       3856
cpu0_DTLB LOAD      ACCESS:    2091197  HIT:    2087476  MISS:       3721
cpu0_DTLB RFO       ACCESS:     651848  HIT:     651713  MISS:        135
cpu0_DTLB PREFETCH  ACCESS:          0  HIT:          0  MISS:          0
cpu0_DTLB WRITEBACK ACCESS:          0  HIT:          0  MISS:          0
cpu0_ITLB TOTAL     ACCESS:    1678246  HIT:    1678246  MISS:          0
cpu0_ITLB LOAD      ACCESS:    1678246  HIT:    1678246  MISS:          0
cpu0_ITLB RFO       ACCESS:          0  HIT:          0  MISS:          0
cpu0_ITLB PREFETCH  ACCESS:          0  HIT:          0  MISS:          0
cpu0_ITLB WRITEBACK ACCESS:          0  HIT:          0  MISS:          0
cpu0_STLB TOTAL     ACCESS:       3856  HIT:       3820  MISS:         36
cpu0_STLB LOAD      ACCESS:       3721  HIT:       3721  MISS:          0
cpu0_STLB RFO       ACCESS:        135  HIT:         99  MISS:         36
cpu0_STLB PREFETCH  ACCESS:          0  HIT:          0  MISS:          0
cpu0_STLB WRITEBACK ACCESS:          0  HIT:          0  MISS:          0
cpu0_L1D TOTAL     ACCESS:    3626913  HIT:    3523101  MISS:     103812
cpu0_L1D LOAD      ACCESS:    2025287  HIT:    1926659  MISS:      98628
cpu0_L1D RFO       ACCESS:    1601591  HIT:    1596426  MISS:       5165
cpu0_L1D PREFETCH  ACCESS:          0  HIT:          0  MISS:          0
cpu0_L1D WRITEBACK ACCESS:          0  HIT:          0  MISS:          0
cpu0_L2C TOTAL     ACCESS:     111581  HIT:       7671  MISS:     103910
cpu0_L2C LOAD      ACCESS:      98628  HIT:       1374  MISS:      97254
cpu0_L2C RFO       ACCESS:       5165  HIT:        323  MISS:       4842
cpu0_L2C PREFETCH  ACCESS:          0  HIT:          0  MISS:          0
cpu0_L2C WRITEBACK ACCESS:       7769  HIT:       5974  MISS:       1795
LLC TOTAL     ACCESS:     109481  HIT:     106897  MISS:       2584
LLC LOAD      ACCESS:      97254  HIT:      97054  MISS:        200
LLC RFO       ACCESS:       4842  HIT:       2458  MISS:       2384
LLC PREFETCH  ACCESS:          0  HIT:          0  MISS:          0
LLC WRITEBACK ACCESS:       7366  HIT:       7366  MISS:          0
Heartbeat CPU 0 instructions: 68000003 cycles: 27301682 heartbeat IPC: 1.21709 cumulative IPC: 1.22081 (Simulation time: 0 hr 33 min 39 sec) 

Region of Interest Statistics
cpu0_DTLB TOTAL     ACCESS:    3087256  HIT:    3082922  MISS:       4334
cpu0_DTLB LOAD      ACCESS:    2351966  HIT:    2347786  MISS:       4180
cpu0_DTLB RFO       ACCESS:     735290  HIT:     735136  MISS:        154
cpu0_DTLB PREFETCH  ACCESS:          0  HIT:          0  MISS:          0
cpu0_DTLB WRITEBACK ACCESS:          0  HIT:          0  MISS:          0
cpu0_ITLB TOTAL     ACCESS:    1886748  HIT:    1886748  MISS:          0
cpu0_ITLB LOAD      ACCESS:    1886748  HIT:    1886748  MISS:          0
cpu0_ITLB RFO       ACCESS:          0  HIT:          0  MISS:          0
cpu0_ITLB PREFETCH  ACCESS:          0  HIT:          0  MISS:          0
cpu0_ITLB WRITEBACK ACCESS:          0  HIT:          0  MISS:          0
cpu0_STLB TOTAL     ACCESS:       4334  HIT:       4293  MISS:         41
cpu0_STLB LOAD      ACCESS:       4180  HIT:       4180  MISS:          0
cpu0_STLB RFO       ACCESS:        154  HIT:        113  MISS:         41
cpu0_STLB PREFETCH  ACCESS:          0  HIT:          0  MISS:          0
cpu0_STLB WRITEBACK ACCESS:          0  HIT:          0  MISS:          0
cpu0_L1D TOTAL     ACCESS:    4075091  HIT:    3958424  MISS:     116667
cpu0_L1D LOAD      ACCESS:    2275532  HIT:    2164703  MISS:     110829
cpu0_L1D RFO       ACCESS:    1799519  HIT:    1793703  MISS:       5816
cpu0_L1D PREFETCH  ACCESS:          0  HIT:          0  MISS:          0
cpu0_L1D WRITEBACK ACCESS:          0  HIT:          0  MISS:          0
cpu0_L2C TOTAL     ACCESS:     125460  HIT:       8670  MISS:     116790
cpu0_L2C LOAD      ACCESS:     110829  HIT:       1542  MISS:     109287
cpu0_L2C RFO       ACCESS:       5816  HIT:        386  MISS:       5430
cpu0_L2C PREFETCH  ACCESS:          0  HIT:          0  MISS:          0
cpu0_L2C WRITEBACK ACCESS:       8793  HIT:       6742  MISS:       2051
LLC TOTAL     ACCESS:     123022  HIT:     120073  MISS:       2949
LLC LOAD      ACCESS:     109287  HIT:     109081  MISS:        206
LLC RFO       ACCESS:       5430  HIT:       2687  MISS:       2743
LLC PREFETCH  ACCESS:          0  HIT:          0  MISS:          0
LLC WRITEBACK ACCESS:       8283  HIT:       8283  MISS:          0
Heartbeat CPU 0 instructions: 70000004 cycles: 28998297 heartbeat IPC: 1.17882 cumulative IPC: 1.21647 (Simulation time: 0 hr 34 min 37 sec) 

Region of Interest Statistics
cpu0_DTLB TOTAL     ACCESS:    3438318  HIT:    3433485  MISS:       4833
cpu0_DTLB LOAD      ACCESS:    2618818  HIT:    2614154  MISS:       4664
cpu0_DTLB RFO       ACCESS:     819500  HIT:     819331  MISS:        169
cpu0_DTLB PREFETCH  ACCESS:          0  HIT:          0  MISS:          0
cpu0_DTLB WRITEBACK ACCESS:          0  HIT:          0  MISS:          0
cpu0_ITLB TOTAL     ACCESS:    2097321  HIT:    2097321  MISS:          0
cpu0_ITLB LOAD      ACCESS:    2097321  HIT:    2097321  MISS:          0
cpu0_ITLB RFO       ACCESS:          0  HIT:          0  MISS:          0
cpu0_ITLB PREFETCH  ACCESS:          0  HIT:          0  MISS:          0
cpu0_ITLB WRITEBACK ACCESS:          0  HIT:          0  MISS:          0
cpu0_STLB TOTAL     ACCESS:       4833  HIT:       4788  MISS:         45
cpu0_STLB LOAD      ACCESS:       4664  HIT:       4664  MISS:          0
cpu0_STLB RFO       ACCESS:        169  HIT:        124  MISS:         45
cpu0_STLB PREFETCH  ACCESS:          0  HIT:          0  MISS:          0
cpu0_STLB WRITEBACK ACCESS:          0  HIT:          0  MISS:          0
cpu0_L1D TOTAL     ACCESS:    4551104  HIT:    4419875  MISS:     131229
cpu0_L1D LOAD      ACCESS:    2538700  HIT:    2413915  MISS:     124785
cpu0_L1D RFO       ACCESS:    2012360  HIT:    2005940  MISS:       6420
cpu0_L1D PREFETCH  ACCESS:          0  HIT:          0  MISS:          0
cpu0_L1D WRITEBACK ACCESS:          0  HIT:          0  MISS:          0
cpu0_L2C TOTAL     ACCESS:     140905  HIT:       9561  MISS:     131344
cpu0_L2C LOAD      ACCESS:     124785  HIT:       1713  MISS:     123072
cpu0_L2C RFO       ACCESS:       6420  HIT:        433  MISS:       5987
cpu0_L2C PREFETCH  ACCESS:          0  HIT:          0  MISS:          0
cpu0_L2C WRITEBACK ACCESS:       9676  HIT:       7415  MISS:       2261
LLC TOTAL     ACCESS:     138193  HIT:     135000  MISS:       3193
LLC LOAD      ACCESS:     123072  HIT:     122862  MISS:        210
LLC RFO       ACCESS:       5987  HIT:       3004  MISS:       2983
LLC PREFETCH  ACCESS:          0  HIT:          0  MISS:          0
LLC WRITEBACK ACCESS:       9110  HIT:       9110  MISS:          0
Heartbeat CPU 0 instructions: 72000000 cycles: 30578269 heartbeat IPC: 1.26584 cumulative IPC: 1.2208 (Simulation time: 0 hr 35 min 33 sec) 

Region of Interest Statistics
cpu0_DTLB TOTAL     ACCESS:    3777026  HIT:    3771779  MISS:       5247
cpu0_DTLB LOAD      ACCESS:    2874674  HIT:    2869615  MISS:       5059
cpu0_DTLB RFO       ACCESS:     902352  HIT:     902164  MISS:        188
cpu0_DTLB PREFETCH  ACCESS:          0  HIT:          0  MISS:          0
cpu0_DTLB WRITEBACK ACCESS:          0  HIT:          0  MISS:          0
cpu0_ITLB TOTAL     ACCESS:    2305565  HIT:    2305565  MISS:          0
cpu0_ITLB LOAD      ACCESS:    2305565  HIT:    2305565  MISS:          0
cpu0_ITLB RFO       ACCESS:          0  HIT:          0  MISS:          0
cpu0_ITLB PREFETCH  ACCESS:          0  HIT:          0  MISS:          0
cpu0_ITLB WRITEBACK ACCESS:          0  HIT:          0  MISS:          0
cpu0_STLB TOTAL     ACCESS:       5247  HIT:       5196  MISS:         51
cpu0_STLB LOAD      ACCESS:       5059  HIT:       5059  MISS:          0
cpu0_STLB RFO       ACCESS:        188  HIT:        137  MISS:         51
cpu0_STLB PREFETCH  ACCESS:          0  HIT:          0  MISS:          0
cpu0_STLB WRITEBACK ACCESS:          0  HIT:          0  MISS:          0
cpu0_L1D TOTAL     ACCESS:    4989710  HIT:    4847292  MISS:     142418
cpu0_L1D LOAD      ACCESS:    2788420  HIT:    2653056  MISS:     135364
cpu0_L1D RFO       ACCESS:    2201240  HIT:    2194213  MISS:       7027
cpu0_L1D PREFETCH  ACCESS:          0  HIT:          0  MISS:          0
cpu0_L1D WRITEBACK ACCESS:          0  HIT:          0  MISS:          0
cpu0_L2C TOTAL     ACCESS:     152879  HIT:      10341  MISS:     142538
cpu0_L2C LOAD      ACCESS:     135364  HIT:       1867  MISS:     133497
cpu0_L2C RFO       ACCESS:       7027  HIT:        473  MISS:       6554
cpu0_L2C PREFETCH  ACCESS:          0  HIT:          0  MISS:          0
cpu0_L2C WRITEBACK ACCESS:      10461  HIT:       8001  MISS:       2460
LLC TOTAL     ACCESS:     149919  HIT:     146389  MISS:       3530
LLC LOAD      ACCESS:     133497  HIT:     133286  MISS:        211
LLC RFO       ACCESS:       6554  HIT:       3235  MISS:       3319
LLC PREFETCH  ACCESS:          0  HIT:          0  MISS:          0
LLC WRITEBACK ACCESS:       9841  HIT:       9841  MISS:          0
Heartbeat CPU 0 instructions: 74000001 cycles: 32288037 heartbeat IPC: 1.16975 cumulative IPC: 1.21638 (Simulation time: 0 hr 36 min 31 sec) 

Region of Interest Statistics
cpu0_DTLB TOTAL     ACCESS:    4126986  HIT:    4121186  MISS:       5800
cpu0_DTLB LOAD      ACCESS:    3140734  HIT:    3135137  MISS:       5597
cpu0_DTLB RFO       ACCESS:     986252  HIT:     986049  MISS:        203
cpu0_DTLB PREFETCH  ACCESS:          0  HIT:          0  MISS:          0
cpu0_DTLB WRITEBACK ACCESS:          0  HIT:          0  MISS:          0
cpu0_ITLB TOTAL     ACCESS:    2516266  HIT:    2516266  MISS:          0
cpu0_ITLB LOAD      ACCESS:    2516266  HIT:    2516266  MISS:          0
cpu0_ITLB RFO       ACCESS:          0  HIT:          0  MISS:          0
cpu0_ITLB PREFETCH  ACCESS:          0  HIT:          0  MISS:          0
cpu0_ITLB WRITEBACK ACCESS:          0  HIT:          0  MISS:          0
cpu0_STLB TOTAL     ACCESS:       5800  HIT:       5746  MISS:         54
cpu0_STLB LOAD      ACCESS:       5597  HIT:       5597  MISS:          0
cpu0_STLB RFO       ACCESS:        203  HIT:        149  MISS:         54
cpu0_STLB PREFETCH  ACCESS:          0  HIT:          0  MISS:          0
cpu0_STLB WRITEBACK ACCESS:          0  HIT:          0  MISS:          0
cpu0_L1D TOTAL     ACCESS:    5462694  HIT:    5305142  MISS:     157552
cpu0_L1D LOAD      ACCESS:    3046352  HIT:    2896476  MISS:     149876
cpu0_L1D RFO       ACCESS:    2416289  HIT:    2408642  MISS:       7647
cpu0_L1D PREFETCH  ACCESS:          0  HIT:          0  MISS:          0
cpu0_L1D WRITEBACK ACCESS:          0  HIT:          0  MISS:          0
cpu0_L2C TOTAL     ACCESS:     169097  HIT:      11394  MISS:     157703
cpu0_L2C LOAD      ACCESS:     149876  HIT:       2040  MISS:     147836
cpu0_L2C RFO       ACCESS:       7647  HIT:        541  MISS:       7106
cpu0_L2C PREFETCH  ACCESS:          0  HIT:          0  MISS:          0
cpu0_L2C WRITEBACK ACCESS:      11545  HIT:       8813  MISS:       2732
LLC TOTAL     ACCESS:     165815  HIT:     162030  MISS:       3785
LLC LOAD      ACCESS:     147836  HIT:     147621  MISS:        215
LLC RFO       ACCESS:       7106  HIT:       3536  MISS:       3570
LLC PREFETCH  ACCESS:          0  HIT:          0  MISS:          0
LLC WRITEBACK ACCESS:      10844  HIT:      10844  MISS:          0
Heartbeat CPU 0 instructions: 76000000 cycles: 33891680 heartbeat IPC: 1.24716 cumulative IPC: 1.21869 (Simulation time: 0 hr 37 min 26 sec) 

Region of Interest Statistics
cpu0_DTLB TOTAL     ACCESS:    4467508  HIT:    4461243  MISS:       6265
cpu0_DTLB LOAD      ACCESS:    3399428  HIT:    3393384  MISS:       6044
cpu0_DTLB RFO       ACCESS:    1068080  HIT:    1067859  MISS:        221
cpu0_DTLB PREFETCH  ACCESS:          0  HIT:          0  MISS:          0
cpu0_DTLB WRITEBACK ACCESS:          0  HIT:          0  MISS:          0
cpu0_ITLB TOTAL     ACCESS:    2725077  HIT:    2725077  MISS:          0
cpu0_ITLB LOAD      ACCESS:    2725077  HIT:    2725077  MISS:          0
cpu0_ITLB RFO       ACCESS:          0  HIT:          0  MISS:          0
cpu0_ITLB PREFETCH  ACCESS:          0  HIT:          0  MISS:          0
cpu0_ITLB WRITEBACK ACCESS:          0  HIT:          0  MISS:          0
cpu0_STLB TOTAL     ACCESS:       6265  HIT:       6206  MISS:         59
cpu0_STLB LOAD      ACCESS:       6044  HIT:       6044  MISS:          0
cpu0_STLB RFO       ACCESS:        221  HIT:        162  MISS:         59
cpu0_STLB PREFETCH  ACCESS:          0  HIT:          0  MISS:          0
cpu0_STLB WRITEBACK ACCESS:          0  HIT:          0  MISS:          0
cpu0_L1D TOTAL     ACCESS:    5906367  HIT:    5736814  MISS:     169553
cpu0_L1D LOAD      ACCESS:    3297104  HIT:    3135854  MISS:     161250
cpu0_L1D RFO       ACCESS:    2609205  HIT:    2600934  MISS:       8271
cpu0_L1D PREFETCH  ACCESS:          0  HIT:          0  MISS:          0
cpu0_L1D WRITEBACK ACCESS:          0  HIT:          0  MISS:          0
cpu0_L2C TOTAL     ACCESS:     182021  HIT:      12320  MISS:     169701
cpu0_L2C LOAD      ACCESS:     161250  HIT:       2216  MISS:     159034
cpu0_L2C RFO       ACCESS:       8271  HIT:        575  MISS:       7696
cpu0_L2C PREFETCH  ACCESS:          0  HIT:          0  MISS:          0
cpu0_L2C WRITEBACK ACCESS:      12468  HIT:       9529  MISS:       2939
LLC TOTAL     ACCESS:     178349  HIT:     174227  MISS:       4122
LLC LOAD      ACCESS:     159034  HIT:     158819  MISS:        215
LLC RFO       ACCESS:       7696  HIT:       3789  MISS:       3907
LLC PREFETCH  ACCESS:          0  HIT:          0  MISS:          0
LLC WRITEBACK ACCESS:      11587  HIT:      11587  MISS:          0
Heartbeat CPU 0 instructions: 78000000 cycles: 35549753 heartbeat IPC: 1.20622 cumulative IPC: 1.21779 (Simulation time: 0 hr 38 min 24 sec) 

Region of Interest Statistics
cpu0_DTLB TOTAL     ACCESS:    4812094  HIT:    4805314  MISS:       6780
cpu0_DTLB LOAD      ACCESS:    3661761  HIT:    3655218  MISS:       6543
cpu0_DTLB RFO       ACCESS:    1150333  HIT:    1150096  MISS:        237
cpu0_DTLB PREFETCH  ACCESS:          0  HIT:          0  MISS:          0
cpu0_DTLB WRITEBACK ACCESS:          0  HIT:          0  MISS:          0
cpu0_ITLB TOTAL     ACCESS:    2936081  HIT:    2936081  MISS:          0
cpu0_ITLB LOAD      ACCESS:    2936081  HIT:    2936081  MISS:          0
cpu0_ITLB RFO       ACCESS:          0  HIT:          0  MISS:          0
cpu0_ITLB PREFETCH  ACCESS:          0  HIT:          0  MISS:          0
cpu0_ITLB WRITEBACK ACCESS:          0  HIT:          0  MISS:          0
cpu0_STLB TOTAL     ACCESS:       6780  HIT:       6717  MISS:         63
cpu0_STLB LOAD      ACCESS:       6543  HIT:       6543  MISS:          0
cpu0_STLB RFO       ACCESS:        237  HIT:        174  MISS:         63
cpu0_STLB PREFETCH  ACCESS:          0  HIT:          0  MISS:          0
cpu0_STLB WRITEBACK ACCESS:          0  HIT:          0  MISS:          0
cpu0_L1D TOTAL     ACCESS:    6372367  HIT:    6188969  MISS:     183398
cpu0_L1D LOAD      ACCESS:    3554446  HIT:    3379954  MISS:     174492
cpu0_L1D RFO       ACCESS:    2817859  HIT:    2808987  MISS:       8872
cpu0_L1D PREFETCH  ACCESS:          0  HIT:          0  MISS:          0
cpu0_L1D WRITEBACK ACCESS:          0  HIT:          0  MISS:          0
cpu0_L2C TOTAL     ACCESS:     196805  HIT:      13334  MISS:     183471
cpu0_L2C LOAD      ACCESS:     174492  HIT:       2435  MISS:     172057
cpu0_L2C RFO       ACCESS:       8872  HIT:        619  MISS:       8253
cpu0_L2C PREFETCH  ACCESS:          0  HIT:          0  MISS:          0
cpu0_L2C WRITEBACK ACCESS:      13407  HIT:      10280  MISS:       3127
LLC TOTAL     ACCESS:     192931  HIT:     188582  MISS:       4349
LLC LOAD      ACCESS:     172057  HIT:     171841  MISS:        216
LLC RFO       ACCESS:       8253  HIT:       4120  MISS:       4133
LLC PREFETCH  ACCESS:          0  HIT:          0  MISS:          0
LLC WRITEBACK ACCESS:      12587  HIT:      12587  MISS:          0
Heartbeat CPU 0 instructions: 80000002 cycles: 37208011 heartbeat IPC: 1.20609 cumulative IPC: 1.21701 (Simulation time: 0 hr 39 min 18 sec) 

Region of Interest Statistics
cpu0_DTLB TOTAL     ACCESS:    5156089  HIT:    5148750  MISS:       7339
cpu0_DTLB LOAD      ACCESS:    3923250  HIT:    3916168  MISS:       7082
cpu0_DTLB RFO       ACCESS:    1232839  HIT:    1232582  MISS:        257
cpu0_DTLB PREFETCH  ACCESS:          0  HIT:          0  MISS:          0
cpu0_DTLB WRITEBACK ACCESS:          0  HIT:          0  MISS:          0
cpu0_ITLB TOTAL     ACCESS:    3146268  HIT:    3146268  MISS:          0
cpu0_ITLB LOAD      ACCESS:    3146268  HIT:    3146268  MISS:          0
cpu0_ITLB RFO       ACCESS:          0  HIT:          0  MISS:          0
cpu0_ITLB PREFETCH  ACCESS:          0  HIT:          0  MISS:          0
cpu0_ITLB WRITEBACK ACCESS:          0  HIT:          0  MISS:          0
cpu0_STLB TOTAL     ACCESS:       7339  HIT:       7271  MISS:         68
cpu0_STLB LOAD      ACCESS:       7082  HIT:       7082  MISS:          0
cpu0_STLB RFO       ACCESS:        257  HIT:        189  MISS:         68
cpu0_STLB PREFETCH  ACCESS:          0  HIT:          0  MISS:          0
cpu0_STLB WRITEBACK ACCESS:          0  HIT:          0  MISS:          0
cpu0_L1D TOTAL     ACCESS:    6829215  HIT:    6632130  MISS:     197085
cpu0_L1D LOAD      ACCESS:    3806068  HIT:    3618583  MISS:     187485
cpu0_L1D RFO       ACCESS:    3023080  HIT:    3013517  MISS:       9563
cpu0_L1D PREFETCH  ACCESS:          0  HIT:          0  MISS:          0
cpu0_L1D WRITEBACK ACCESS:          0  HIT:          0  MISS:          0
cpu0_L2C TOTAL     ACCESS:     211517  HIT:      14414  MISS:     197103
cpu0_L2C LOAD      ACCESS:     187485  HIT:       2636  MISS:     184849
cpu0_L2C RFO       ACCESS:       9563  HIT:        671  MISS:       8892
cpu0_L2C PREFETCH  ACCESS:          0  HIT:          0  MISS:          0
cpu0_L2C WRITEBACK ACCESS:      14432  HIT:      11107  MISS:       3325
LLC TOTAL     ACCESS:     207313  HIT:     202645  MISS:       4668
LLC LOAD      ACCESS:     184849  HIT:     184633  MISS:        216
LLC RFO       ACCESS:       8892  HIT:       4440  MISS:       4452
LLC PREFETCH  ACCESS:          0  HIT:          0  MISS:          0
LLC WRITEBACK ACCESS:      13535  HIT:      13535  MISS:          0
Heartbeat CPU 0 instructions: 82000001 cycles: 38812515 heartbeat IPC: 1.24649 cumulative IPC: 1.21881 (Simulation time: 0 hr 40 min 14 sec) 

Region of Interest Statistics
cpu0_DTLB TOTAL     ACCESS:    5495001  HIT:    5487143  MISS:       7858
cpu0_DTLB LOAD      ACCESS:    4181327  HIT:    4173745  MISS:       7582
cpu0_DTLB RFO       ACCESS:    1313674  HIT:    1313398  MISS:        276
cpu0_DTLB PREFETCH  ACCESS:          0  HIT:          0  MISS:          0
cpu0_DTLB WRITEBACK ACCESS:          0  HIT:          0  MISS:          0
cpu0_ITLB TOTAL     ACCESS:    3355960  HIT:    3355960  MISS:          0
cpu0_ITLB LOAD      ACCESS:    3355960  HIT:    3355960  MISS:          0
cpu0_ITLB RFO       ACCESS:          0  HIT:          0  MISS:          0
cpu0_ITLB PREFETCH  ACCESS:          0  HIT:          0  MISS:          0
cpu0_ITLB WRITEBACK ACCESS:          0  HIT:          0  MISS:          0
cpu0_STLB TOTAL     ACCESS:       7858  HIT:       7785  MISS:         73
cpu0_STLB LOAD      ACCESS:       7582  HIT:       7582  MISS:          0
cpu0_STLB RFO       ACCESS:        276  HIT:        203  MISS:         73
cpu0_STLB PREFETCH  ACCESS:          0  HIT:          0  MISS:          0
cpu0_STLB WRITEBACK ACCESS:          0  HIT:          0  MISS:          0
cpu0_L1D TOTAL     ACCESS:    7274385  HIT:    7064996  MISS:     209389
cpu0_L1D LOAD      ACCESS:    4055740  HIT:    3856583  MISS:     199157
cpu0_L1D RFO       ACCESS:    3218573  HIT:    3208381  MISS:      10192
cpu0_L1D PREFETCH  ACCESS:          0  HIT:          0  MISS:          0
cpu0_L1D WRITEBACK ACCESS:          0  HIT:          0  MISS:          0
cpu0_L2C TOTAL     ACCESS:     224811  HIT:      15396  MISS:     209415
cpu0_L2C LOAD      ACCESS:     199157  HIT:       2792  MISS:     196365
cpu0_L2C RFO       ACCESS:      10192  HIT:        729  MISS:       9463
cpu0_L2C PREFETCH  ACCESS:          0  HIT:          0  MISS:          0
cpu0_L2C WRITEBACK ACCESS:      15422  HIT:      11875  MISS:       3547
LLC TOTAL     ACCESS:     220319  HIT:     215325  MISS:       4994
LLC LOAD      ACCESS:     196365  HIT:     196149  MISS:        216
LLC RFO       ACCESS:       9463  HIT:       4685  MISS:       4778
LLC PREFETCH  ACCESS:          0  HIT:          0  MISS:          0
LLC WRITEBACK ACCESS:      14451  HIT:      14451  MISS:          0
Heartbeat CPU 0 instructions: 84000001 cycles: 40425508 heartbeat IPC: 1.23993 cumulative IPC: 1.22003 (Simulation time: 0 hr 41 min 12 sec) 

Region of Interest Statistics
cpu0_DTLB TOTAL     ACCESS:    5834479  HIT:    5826133  MISS:       8346
cpu0_DTLB LOAD      ACCESS:    4438849  HIT:    4430798  MISS:       8051
cpu0_DTLB RFO       ACCESS:    1395630  HIT:    1395335  MISS:        295
cpu0_DTLB PREFETCH  ACCESS:          0  HIT:          0  MISS:          0
cpu0_DTLB WRITEBACK ACCESS:          0  HIT:          0  MISS:          0
cpu0_ITLB TOTAL     ACCESS:    3565720  HIT:    3565720  MISS:          0
cpu0_ITLB LOAD      ACCESS:    3565720  HIT:    3565720  MISS:          0
cpu0_ITLB RFO       ACCESS:          0  HIT:          0  MISS:          0
cpu0_ITLB PREFETCH  ACCESS:          0  HIT:          0  MISS:          0
cpu0_ITLB WRITEBACK ACCESS:          0  HIT:          0  MISS:          0
cpu0_STLB TOTAL     ACCESS:       8346  HIT:       8268  MISS:         78
cpu0_STLB LOAD      ACCESS:       8051  HIT:       8051  MISS:          0
cpu0_STLB RFO       ACCESS:        295  HIT:        217  MISS:         78
cpu0_STLB PREFETCH  ACCESS:          0  HIT:          0  MISS:          0
cpu0_STLB WRITEBACK ACCESS:          0  HIT:          0  MISS:          0
cpu0_L1D TOTAL     ACCESS:    7725186  HIT:    7503220  MISS:     221966
cpu0_L1D LOAD      ACCESS:    4307257  HIT:    4096178  MISS:     211079
cpu0_L1D RFO       ACCESS:    3417852  HIT:    3407008  MISS:      10844
cpu0_L1D PREFETCH  ACCESS:          0  HIT:          0  MISS:          0
cpu0_L1D WRITEBACK ACCESS:          0  HIT:          0  MISS:          0
cpu0_L2C TOTAL     ACCESS:     238376  HIT:      16381  MISS:     221995
cpu0_L2C LOAD      ACCESS:     211079  HIT:       2959  MISS:     208120
cpu0_L2C RFO       ACCESS:      10844  HIT:        777  MISS:      10067
cpu0_L2C PREFETCH  ACCESS:          0  HIT:          0  MISS:          0
cpu0_L2C WRITEBACK ACCESS:      16410  HIT:      12645  MISS:       3765
LLC TOTAL     ACCESS:     233451  HIT:     228142  MISS:       5309
LLC LOAD      ACCESS:     208120  HIT:     207902  MISS:        218
LLC RFO       ACCESS:      10067  HIT:       4976  MISS:       5091
LLC PREFETCH  ACCESS:          0  HIT:          0  MISS:          0
LLC WRITEBACK ACCESS:      15221  HIT:      15221  MISS:          0
Heartbeat CPU 0 instructions: 86000000 cycles: 42055900 heartbeat IPC: 1.2267 cumulative IPC: 1.2204 (Simulation time: 0 hr 42 min 9 sec) 

Region of Interest Statistics
cpu0_DTLB TOTAL     ACCESS:    6174640  HIT:    6165781  MISS:       8859
cpu0_DTLB LOAD      ACCESS:    4696806  HIT:    4688257  MISS:       8549
cpu0_DTLB RFO       ACCESS:    1477834  HIT:    1477524  MISS:        310
cpu0_DTLB PREFETCH  ACCESS:          0  HIT:          0  MISS:          0
cpu0_DTLB WRITEBACK ACCESS:          0  HIT:          0  MISS:          0
cpu0_ITLB TOTAL     ACCESS:    3776337  HIT:    3776337  MISS:          0
cpu0_ITLB LOAD      ACCESS:    3776337  HIT:    3776337  MISS:          0
cpu0_ITLB RFO       ACCESS:          0  HIT:          0  MISS:          0
cpu0_ITLB PREFETCH  ACCESS:          0  HIT:          0  MISS:          0
cpu0_ITLB WRITEBACK ACCESS:          0  HIT:          0  MISS:          0
cpu0_STLB TOTAL     ACCESS:       8859  HIT:       8778  MISS:         81
cpu0_STLB LOAD      ACCESS:       8549  HIT:       8549  MISS:          0
cpu0_STLB RFO       ACCESS:        310  HIT:        229  MISS:         81
cpu0_STLB PREFETCH  ACCESS:          0  HIT:          0  MISS:          0
cpu0_STLB WRITEBACK ACCESS:          0  HIT:          0  MISS:          0
cpu0_L1D TOTAL     ACCESS:    8177875  HIT:    7942957  MISS:     234918
cpu0_L1D LOAD      ACCESS:    4556730  HIT:    4333243  MISS:     223487
cpu0_L1D RFO       ACCESS:    3621065  HIT:    3609679  MISS:      11386
cpu0_L1D PREFETCH  ACCESS:          0  HIT:          0  MISS:          0
cpu0_L1D WRITEBACK ACCESS:          0  HIT:          0  MISS:          0
cpu0_L2C TOTAL     ACCESS:     252108  HIT:      17255  MISS:     234853
cpu0_L2C LOAD      ACCESS:     223487  HIT:       3158  MISS:     220329
cpu0_L2C RFO       ACCESS:      11386  HIT:        821  MISS:      10565
cpu0_L2C PREFETCH  ACCESS:          0  HIT:          0  MISS:          0
cpu0_L2C WRITEBACK ACCESS:      17190  HIT:      13276  MISS:       3914
LLC TOTAL     ACCESS:     247031  HIT:     241512  MISS:       5519
LLC LOAD      ACCESS:     220329  HIT:     220111  MISS:        218
LLC RFO       ACCESS:      10565  HIT:       5264  MISS:       5301
LLC PREFETCH  ACCESS:          0  HIT:          0  MISS:          0
LLC WRITEBACK ACCESS:      16092  HIT:      16092  MISS:          0
Heartbeat CPU 0 instructions: 88000001 cycles: 43701969 heartbeat IPC: 1.21502 cumulative IPC: 1.22011 (Simulation time: 0 hr 43 min 6 sec) 

Region of Interest Statistics
cpu0_DTLB TOTAL     ACCESS:    6518185  HIT:    6508775  MISS:       9410
cpu0_DTLB LOAD      ACCESS:    4959230  HIT:    4950151  MISS:       9079
cpu0_DTLB RFO       ACCESS:    1558955  HIT:    1558624  MISS:        331
cpu0_DTLB PREFETCH  ACCESS:          0  HIT:          0  MISS:          0
cpu0_DTLB WRITEBACK ACCESS:          0  HIT:          0  MISS:          0
cpu0_ITLB TOTAL     ACCESS:    3986483  HIT:    3986483  MISS:          0
cpu0_ITLB LOAD      ACCESS:    3986483  HIT:    3986483  MISS:          0
cpu0_ITLB RFO       ACCESS:          0  HIT:          0  MISS:          0
cpu0_ITLB PREFETCH  ACCESS:          0  HIT:          0  MISS:          0
cpu0_ITLB WRITEBACK ACCESS:          0  HIT:          0  MISS:          0
cpu0_STLB TOTAL     ACCESS:       9410  HIT:       9324  MISS:         86
cpu0_STLB LOAD      ACCESS:       9079  HIT:       9079  MISS:          0
cpu0_STLB RFO       ACCESS:        331  HIT:        245  MISS:         86
cpu0_STLB PREFETCH  ACCESS:          0  HIT:          0  MISS:          0
cpu0_STLB WRITEBACK ACCESS:          0  HIT:          0  MISS:          0
cpu0_L1D TOTAL     ACCESS:    8637216  HIT:    8388819  MISS:     248397
cpu0_L1D LOAD      ACCESS:    4811813  HIT:    4575512  MISS:     236301
cpu0_L1D RFO       ACCESS:    3825318  HIT:    3813270  MISS:      12048
cpu0_L1D PREFETCH  ACCESS:          0  HIT:          0  MISS:          0
cpu0_L1D WRITEBACK ACCESS:          0  HIT:          0  MISS:          0
cpu0_L2C TOTAL     ACCESS:     266569  HIT:      18286  MISS:     248283
cpu0_L2C LOAD      ACCESS:     236301  HIT:       3347  MISS:     232954
cpu0_L2C RFO       ACCESS:      12048  HIT:        880  MISS:      11168
cpu0_L2C PREFETCH  ACCESS:          0  HIT:          0  MISS:          0
cpu0_L2C WRITEBACK ACCESS:      18172  HIT:      14059  MISS:       4113
LLC TOTAL     ACCESS:     261161  HIT:     255339  MISS:       5822
LLC LOAD      ACCESS:     232954  HIT:     232736  MISS:        218
LLC RFO       ACCESS:      11168  HIT:       5564  MISS:       5604
LLC PREFETCH  ACCESS:          0  HIT:          0  MISS:          0
LLC WRITEBACK ACCESS:      16991  HIT:      16991  MISS:          0
Heartbeat CPU 0 instructions: 90000000 cycles: 45352579 heartbeat IPC: 1.21167 cumulative IPC: 1.21969 (Simulation time: 0 hr 44 min 2 sec) 

Region of Interest Statistics
cpu0_DTLB TOTAL     ACCESS:    6862094  HIT:    6852135  MISS:       9959
cpu0_DTLB LOAD      ACCESS:    5221057  HIT:    5211450  MISS:       9607
cpu0_DTLB RFO       ACCESS:    1641037  HIT:    1640685  MISS:        352
cpu0_DTLB PREFETCH  ACCESS:          0  HIT:          0  MISS:          0
cpu0_DTLB WRITEBACK ACCESS:          0  HIT:          0  MISS:          0
cpu0_ITLB TOTAL     ACCESS:    4196405  HIT:    4196405  MISS:          0
cpu0_ITLB LOAD      ACCESS:    4196405  HIT:    4196405  MISS:          0
cpu0_ITLB RFO       ACCESS:          0  HIT:          0  MISS:          0
cpu0_ITLB PREFETCH  ACCESS:          0  HIT:          0  MISS:          0
cpu0_ITLB WRITEBACK ACCESS:          0  HIT:          0  MISS:          0
cpu0_STLB TOTAL     ACCESS:       9959  HIT:       9868  MISS:         91
cpu0_STLB LOAD      ACCESS:       9607  HIT:       9607  MISS:          0
cpu0_STLB RFO       ACCESS:        352  HIT:        261  MISS:         91
cpu0_STLB PREFETCH  ACCESS:          0  HIT:          0  MISS:          0
cpu0_STLB WRITEBACK ACCESS:          0  HIT:          0  MISS:          0
cpu0_L1D TOTAL     ACCESS:    9096614  HIT:    8834897  MISS:     261717
cpu0_L1D LOAD      ACCESS:    5067168  HIT:    4818210  MISS:     248958
cpu0_L1D RFO       ACCESS:    4029356  HIT:    4016648  MISS:      12708
cpu0_L1D PREFETCH  ACCESS:          0  HIT:          0  MISS:          0
cpu0_L1D WRITEBACK ACCESS:          0  HIT:          0  MISS:          0
cpu0_L2C TOTAL     ACCESS:     280869  HIT:      19318  MISS:     261551
cpu0_L2C LOAD      ACCESS:     248958  HIT:       3540  MISS:     245418
cpu0_L2C RFO       ACCESS:      12708  HIT:        946  MISS:      11762
cpu0_L2C PREFETCH  ACCESS:          0  HIT:          0  MISS:          0
cpu0_L2C WRITEBACK ACCESS:      19152  HIT:      14832  MISS:       4320
LLC TOTAL     ACCESS:     275109  HIT:     268976  MISS:       6133
LLC LOAD      ACCESS:     245418  HIT:     245199  MISS:        219
LLC RFO       ACCESS:      11762  HIT:       5848  MISS:       5914
LLC PREFETCH  ACCESS:          0  HIT:          0  MISS:          0
LLC WRITEBACK ACCESS:      17878  HIT:      17878  MISS:          0
Heartbeat CPU 0 instructions: 92000004 cycles: 47007526 heartbeat IPC: 1.2085 cumulative IPC: 1.21915 (Simulation time: 0 hr 45 min 1 sec) 

Region of Interest Statistics
cpu0_DTLB TOTAL     ACCESS:    7206236  HIT:    7195726  MISS:      10510
cpu0_DTLB LOAD      ACCESS:    5483066  HIT:    5472929  MISS:      10137
cpu0_DTLB RFO       ACCESS:    1723170  HIT:    1722797  MISS:        373
cpu0_DTLB PREFETCH  ACCESS:          0  HIT:          0  MISS:          0
cpu0_DTLB WRITEBACK ACCESS:          0  HIT:          0  MISS:          0
cpu0_ITLB TOTAL     ACCESS:    4406007  HIT:    4406007  MISS:          0
cpu0_ITLB LOAD      ACCESS:    4406007  HIT:    4406007  MISS:          0
cpu0_ITLB RFO       ACCESS:          0  HIT:          0  MISS:          0
cpu0_ITLB PREFETCH  ACCESS:          0  HIT:          0  MISS:          0
cpu0_ITLB WRITEBACK ACCESS:          0  HIT:          0  MISS:          0
cpu0_STLB TOTAL     ACCESS:      10510  HIT:      10415  MISS:         95
cpu0_STLB LOAD      ACCESS:      10137  HIT:      10137  MISS:          0
cpu0_STLB RFO       ACCESS:        373  HIT:        278  MISS:         95
cpu0_STLB PREFETCH  ACCESS:          0  HIT:          0  MISS:          0
cpu0_STLB WRITEBACK ACCESS:          0  HIT:          0  MISS:          0
cpu0_L1D TOTAL     ACCESS:    9553363  HIT:    9278125  MISS:     275238
cpu0_L1D LOAD      ACCESS:    5318255  HIT:    5056413  MISS:     261842
cpu0_L1D RFO       ACCESS:    4235014  HIT:    4221672  MISS:      13342
cpu0_L1D PREFETCH  ACCESS:          0  HIT:          0  MISS:          0
cpu0_L1D WRITEBACK ACCESS:          0  HIT:          0  MISS:          0
cpu0_L2C TOTAL     ACCESS:     295354  HIT:      20342  MISS:     275012
cpu0_L2C LOAD      ACCESS:     261842  HIT:       3728  MISS:     258114
cpu0_L2C RFO       ACCESS:      13342  HIT:       1004  MISS:      12338
cpu0_L2C PREFETCH  ACCESS:          0  HIT:          0  MISS:          0
cpu0_L2C WRITEBACK ACCESS:      20116  HIT:      15610  MISS:       4506
LLC TOTAL     ACCESS:     289251  HIT:     282811  MISS:       6440
LLC LOAD      ACCESS:     258114  HIT:     257879  MISS:        235
LLC RFO       ACCESS:      12338  HIT:       6133  MISS:       6205
LLC PREFETCH  ACCESS:          0  HIT:          0  MISS:          0
LLC WRITEBACK ACCESS:      18745  HIT:      18745  MISS:          0
Heartbeat CPU 0 instructions: 94000004 cycles: 48675565 heartbeat IPC: 1.19901 cumulative IPC: 1.21822 (Simulation time: 0 hr 45 min 59 sec) 

Region of Interest Statistics
cpu0_DTLB TOTAL     ACCESS:    7550686  HIT:    7539624  MISS:      11062
cpu0_DTLB LOAD      ACCESS:    5746305  HIT:    5735639  MISS:      10666
cpu0_DTLB RFO       ACCESS:    1804381  HIT:    1803985  MISS:        396
cpu0_DTLB PREFETCH  ACCESS:          0  HIT:          0  MISS:          0
cpu0_DTLB WRITEBACK ACCESS:          0  HIT:          0  MISS:          0
cpu0_ITLB TOTAL     ACCESS:    4615548  HIT:    4615548  MISS:          0
cpu0_ITLB LOAD      ACCESS:    4615548  HIT:    4615548  MISS:          0
cpu0_ITLB RFO       ACCESS:          0  HIT:          0  MISS:          0
cpu0_ITLB PREFETCH  ACCESS:          0  HIT:          0  MISS:          0
cpu0_ITLB WRITEBACK ACCESS:          0  HIT:          0  MISS:          0
cpu0_STLB TOTAL     ACCESS:      11062  HIT:      10962  MISS:        100
cpu0_STLB LOAD      ACCESS:      10666  HIT:      10666  MISS:          0
cpu0_STLB RFO       ACCESS:        396  HIT:        296  MISS:        100
cpu0_STLB PREFETCH  ACCESS:          0  HIT:          0  MISS:          0
cpu0_STLB WRITEBACK ACCESS:          0  HIT:          0  MISS:          0
cpu0_L1D TOTAL     ACCESS:   10015628  HIT:    9726671  MISS:     288957
cpu0_L1D LOAD      ACCESS:    5573762  HIT:    5298826  MISS:     274936
cpu0_L1D RFO       ACCESS:    4441767  HIT:    4427803  MISS:      13964
cpu0_L1D PREFETCH  ACCESS:          0  HIT:          0  MISS:          0
cpu0_L1D WRITEBACK ACCESS:          0  HIT:          0  MISS:          0
cpu0_L2C TOTAL     ACCESS:     310029  HIT:      21388  MISS:     288641
cpu0_L2C LOAD      ACCESS:     274936  HIT:       3910  MISS:     271026
cpu0_L2C RFO       ACCESS:      13964  HIT:       1065  MISS:      12899
cpu0_L2C PREFETCH  ACCESS:          0  HIT:          0  MISS:          0
cpu0_L2C WRITEBACK ACCESS:      21072  HIT:      16413  MISS:       4659
LLC TOTAL     ACCESS:     303581  HIT:     296802  MISS:       6779
LLC LOAD      ACCESS:     271026  HIT:     270752  MISS:        274
LLC RFO       ACCESS:      12899  HIT:       6394  MISS:       6505
LLC PREFETCH  ACCESS:          0  HIT:          0  MISS:          0
LLC WRITEBACK ACCESS:      19599  HIT:      19599  MISS:          0
Heartbeat CPU 0 instructions: 96000003 cycles: 50320894 heartbeat IPC: 1.21556 cumulative IPC: 1.21811 (Simulation time: 0 hr 46 min 53 sec) 

Region of Interest Statistics
cpu0_DTLB TOTAL     ACCESS:    7889561  HIT:    7877956  MISS:      11605
cpu0_DTLB LOAD      ACCESS:    6005060  HIT:    5993874  MISS:      11186
cpu0_DTLB RFO       ACCESS:    1884501  HIT:    1884082  MISS:        419
cpu0_DTLB PREFETCH  ACCESS:          0  HIT:          0  MISS:          0
cpu0_DTLB WRITEBACK ACCESS:          0  HIT:          0  MISS:          0
cpu0_ITLB TOTAL     ACCESS:    4824991  HIT:    4824991  MISS:          0
cpu0_ITLB LOAD      ACCESS:    4824991  HIT:    4824991  MISS:          0
cpu0_ITLB RFO       ACCESS:          0  HIT:          0  MISS:          0
cpu0_ITLB PREFETCH  ACCESS:          0  HIT:          0  MISS:          0
cpu0_ITLB WRITEBACK ACCESS:          0  HIT:          0  MISS:          0
cpu0_STLB TOTAL     ACCESS:      11605  HIT:      11501  MISS:        104
cpu0_STLB LOAD      ACCESS:      11186  HIT:      11186  MISS:          0
cpu0_STLB RFO       ACCESS:        419  HIT:        315  MISS:        104
cpu0_STLB PREFETCH  ACCESS:          0  HIT:          0  MISS:          0
cpu0_STLB WRITEBACK ACCESS:          0  HIT:          0  MISS:          0
cpu0_L1D TOTAL     ACCESS:   10469819  HIT:   10167941  MISS:     301878
cpu0_L1D LOAD      ACCESS:    5825968  HIT:    5538673  MISS:     287295
cpu0_L1D RFO       ACCESS:    4643748  HIT:    4629225  MISS:      14523
cpu0_L1D PREFETCH  ACCESS:          0  HIT:          0  MISS:          0
cpu0_L1D WRITEBACK ACCESS:          0  HIT:          0  MISS:          0
cpu0_L2C TOTAL     ACCESS:     323813  HIT:      22326  MISS:     301487
cpu0_L2C LOAD      ACCESS:     287295  HIT:       4082  MISS:     283213
cpu0_L2C RFO       ACCESS:      14523  HIT:       1117  MISS:      13406
cpu0_L2C PREFETCH  ACCESS:          0  HIT:          0  MISS:          0
cpu0_L2C WRITEBACK ACCESS:      21935  HIT:      17127  MISS:       4808
LLC TOTAL     ACCESS:     317036  HIT:     309983  MISS:       7053
LLC LOAD      ACCESS:     283213  HIT:     282935  MISS:        278
LLC RFO       ACCESS:      13406  HIT:       6631  MISS:       6775
LLC PREFETCH  ACCESS:          0  HIT:          0  MISS:          0
LLC WRITEBACK ACCESS:      20357  HIT:      20357  MISS:          0
Heartbeat CPU 0 instructions: 98000000 cycles: 51986271 heartbeat IPC: 1.20093 cumulative IPC: 1.21738 (Simulation time: 0 hr 47 min 47 sec) 

Region of Interest Statistics
cpu0_DTLB TOTAL     ACCESS:    8235028  HIT:    8222878  MISS:      12150
cpu0_DTLB LOAD      ACCESS:    6267688  HIT:    6255977  MISS:      11711
cpu0_DTLB RFO       ACCESS:    1967340  HIT:    1966901  MISS:        439
cpu0_DTLB PREFETCH  ACCESS:          0  HIT:          0  MISS:          0
cpu0_DTLB WRITEBACK ACCESS:          0  HIT:          0  MISS:          0
cpu0_ITLB TOTAL     ACCESS:    5034635  HIT:    5034635  MISS:          0
cpu0_ITLB LOAD      ACCESS:    5034635  HIT:    5034635  MISS:          0
cpu0_ITLB RFO       ACCESS:          0  HIT:          0  MISS:          0
cpu0_ITLB PREFETCH  ACCESS:          0  HIT:          0  MISS:          0
cpu0_ITLB WRITEBACK ACCESS:          0  HIT:          0  MISS:          0
cpu0_STLB TOTAL     ACCESS:      12150  HIT:      12041  MISS:        109
cpu0_STLB LOAD      ACCESS:      11711  HIT:      11711  MISS:          0
cpu0_STLB RFO       ACCESS:        439  HIT:        330  MISS:        109
cpu0_STLB PREFETCH  ACCESS:          0  HIT:          0  MISS:          0
cpu0_STLB WRITEBACK ACCESS:          0  HIT:          0  MISS:          0
cpu0_L1D TOTAL     ACCESS:   10931321  HIT:   10615960  MISS:     315361
cpu0_L1D LOAD      ACCESS:    6082030  HIT:    5781873  MISS:     300157
cpu0_L1D RFO       ACCESS:    4849183  HIT:    4834042  MISS:      15141
cpu0_L1D PREFETCH  ACCESS:          0  HIT:          0  MISS:          0
cpu0_L1D WRITEBACK ACCESS:          0  HIT:          0  MISS:          0
cpu0_L2C TOTAL     ACCESS:     338207  HIT:      23266  MISS:     314941
cpu0_L2C LOAD      ACCESS:     300157  HIT:       4255  MISS:     295902
cpu0_L2C RFO       ACCESS:      15141  HIT:       1181  MISS:      13960
cpu0_L2C PREFETCH  ACCESS:          0  HIT:          0  MISS:          0
cpu0_L2C WRITEBACK ACCESS:      22846  HIT:      17830  MISS:       5016
LLC TOTAL     ACCESS:     331111  HIT:     323764  MISS:       7347
LLC LOAD      ACCESS:     295902  HIT:     295617  MISS:        285
LLC RFO       ACCESS:      13960  HIT:       6898  MISS:       7062
LLC PREFETCH  ACCESS:          0  HIT:          0  MISS:          0
LLC WRITEBACK ACCESS:      21186  HIT:      21186  MISS:          0
Heartbeat CPU 0 instructions: 100000004 cycles: 53651842 heartbeat IPC: 1.20079 cumulative IPC: 1.21671 (Simulation time: 0 hr 48 min 43 sec) 

Region of Interest Statistics
cpu0_DTLB TOTAL     ACCESS:    8581406  HIT:    8568703  MISS:      12703
cpu0_DTLB LOAD      ACCESS:    6529908  HIT:    6517668  MISS:      12240
cpu0_DTLB RFO       ACCESS:    2051498  HIT:    2051035  MISS:        463
cpu0_DTLB PREFETCH  ACCESS:          0  HIT:          0  MISS:          0
cpu0_DTLB WRITEBACK ACCESS:          0  HIT:          0  MISS:          0
cpu0_ITLB TOTAL     ACCESS:    5243748  HIT:    5243748  MISS:          0
cpu0_ITLB LOAD      ACCESS:    5243748  HIT:    5243748  MISS:          0
cpu0_ITLB RFO       ACCESS:          0  HIT:          0  MISS:          0
cpu0_ITLB PREFETCH  ACCESS:          0  HIT:          0  MISS:          0
cpu0_ITLB WRITEBACK ACCESS:          0  HIT:          0  MISS:          0
cpu0_STLB TOTAL     ACCESS:      12703  HIT:      12589  MISS:        114
cpu0_STLB LOAD      ACCESS:      12240  HIT:      12240  MISS:          0
cpu0_STLB RFO       ACCESS:        463  HIT:        349  MISS:        114
cpu0_STLB PREFETCH  ACCESS:          0  HIT:          0  MISS:          0
cpu0_STLB WRITEBACK ACCESS:          0  HIT:          0  MISS:          0
cpu0_L1D TOTAL     ACCESS:   11391122  HIT:   11062548  MISS:     328574
cpu0_L1D LOAD      ACCESS:    6337587  HIT:    6024889  MISS:     312698
cpu0_L1D RFO       ACCESS:    5053422  HIT:    5037613  MISS:      15809
cpu0_L1D PREFETCH  ACCESS:          0  HIT:          0  MISS:          0
cpu0_L1D WRITEBACK ACCESS:          0  HIT:          0  MISS:          0
cpu0_L2C TOTAL     ACCESS:     352305  HIT:      24214  MISS:     328091
cpu0_L2C LOAD      ACCESS:     312698  HIT:       4421  MISS:     308277
cpu0_L2C RFO       ACCESS:      15809  HIT:       1256  MISS:      14553
cpu0_L2C PREFETCH  ACCESS:          0  HIT:          0  MISS:          0
cpu0_L2C WRITEBACK ACCESS:      23731  HIT:      18537  MISS:       5194
LLC TOTAL     ACCESS:     344879  HIT:     337127  MISS:       7752
LLC LOAD      ACCESS:     308277  HIT:     307940  MISS:        337
LLC RFO       ACCESS:      14553  HIT:       7138  MISS:       7415
LLC PREFETCH  ACCESS:          0  HIT:          0  MISS:          0
LLC WRITEBACK ACCESS:      21982  HIT:      21982  MISS:          0
Heartbeat CPU 0 instructions: 102000001 cycles: 55358974 heartbeat IPC: 1.17155 cumulative IPC: 1.21491 (Simulation time: 0 hr 49 min 41 sec) 

Region of Interest Statistics
cpu0_DTLB TOTAL     ACCESS:    8928665  HIT:    8915372  MISS:      13293
cpu0_DTLB LOAD      ACCESS:    6794319  HIT:    6781510  MISS:      12809
cpu0_DTLB RFO       ACCESS:    2134346  HIT:    2133862  MISS:        484
cpu0_DTLB PREFETCH  ACCESS:          0  HIT:          0  MISS:          0
cpu0_DTLB WRITEBACK ACCESS:          0  HIT:          0  MISS:          0
cpu0_ITLB TOTAL     ACCESS:    5453999  HIT:    5453999  MISS:          0
cpu0_ITLB LOAD      ACCESS:    5453999  HIT:    5453999  MISS:          0
cpu0_ITLB RFO       ACCESS:          0  HIT:          0  MISS:          0
cpu0_ITLB PREFETCH  ACCESS:          0  HIT:          0  MISS:          0
cpu0_ITLB WRITEBACK ACCESS:          0  HIT:          0  MISS:          0
cpu0_STLB TOTAL     ACCESS:      13293  HIT:      13174  MISS:        119
cpu0_STLB LOAD      ACCESS:      12809  HIT:      12809  MISS:          0
cpu0_STLB RFO       ACCESS:        484  HIT:        365  MISS:        119
cpu0_STLB PREFETCH  ACCESS:          0  HIT:          0  MISS:          0
cpu0_STLB WRITEBACK ACCESS:          0  HIT:          0  MISS:          0
cpu0_L1D TOTAL     ACCESS:   11856164  HIT:   11512961  MISS:     343203
cpu0_L1D LOAD      ACCESS:    6592244  HIT:    6265525  MISS:     326719
cpu0_L1D RFO       ACCESS:    5263802  HIT:    5247388  MISS:      16414
cpu0_L1D PREFETCH  ACCESS:          0  HIT:          0  MISS:          0
cpu0_L1D WRITEBACK ACCESS:          0  HIT:          0  MISS:          0
cpu0_L2C TOTAL     ACCESS:     368000  HIT:      25333  MISS:     342667
cpu0_L2C LOAD      ACCESS:     326719  HIT:       4624  MISS:     322095
cpu0_L2C RFO       ACCESS:      16414  HIT:       1324  MISS:      15090
cpu0_L2C PREFETCH  ACCESS:          0  HIT:          0  MISS:          0
cpu0_L2C WRITEBACK ACCESS:      24797  HIT:      19385  MISS:       5412
LLC TOTAL     ACCESS:     360172  HIT:     352101  MISS:       8071
LLC LOAD      ACCESS:     322095  HIT:     321719  MISS:        376
LLC RFO       ACCESS:      15090  HIT:       7395  MISS:       7695
LLC PREFETCH  ACCESS:          0  HIT:          0  MISS:          0
LLC WRITEBACK ACCESS:      22917  HIT:      22917  MISS:          0
Heartbeat CPU 0 instructions: 104000000 cycles: 57020364 heartbeat IPC: 1.20381 cumulative IPC: 1.21449 (Simulation time: 0 hr 50 min 34 sec) 

Region of Interest Statistics
cpu0_DTLB TOTAL     ACCESS:    9274373  HIT:    9260561  MISS:      13812
cpu0_DTLB LOAD      ACCESS:    7056956  HIT:    7043646  MISS:      13310
cpu0_DTLB RFO       ACCESS:    2217417  HIT:    2216915  MISS:        502
cpu0_DTLB PREFETCH  ACCESS:          0  HIT:          0  MISS:          0
cpu0_DTLB WRITEBACK ACCESS:          0  HIT:          0  MISS:          0
cpu0_ITLB TOTAL     ACCESS:    5663867  HIT:    5663867  MISS:          0
cpu0_ITLB LOAD      ACCESS:    5663867  HIT:    5663867  MISS:          0
cpu0_ITLB RFO       ACCESS:          0  HIT:          0  MISS:          0
cpu0_ITLB PREFETCH  ACCESS:          0  HIT:          0  MISS:          0
cpu0_ITLB WRITEBACK ACCESS:          0  HIT:          0  MISS:          0
cpu0_STLB TOTAL     ACCESS:      13812  HIT:      13689  MISS:        123
cpu0_STLB LOAD      ACCESS:      13310  HIT:      13310  MISS:          0
cpu0_STLB RFO       ACCESS:        502  HIT:        379  MISS:        123
cpu0_STLB PREFETCH  ACCESS:          0  HIT:          0  MISS:          0
cpu0_STLB WRITEBACK ACCESS:          0  HIT:          0  MISS:          0
cpu0_L1D TOTAL     ACCESS:   12317828  HIT:   11961207  MISS:     356621
cpu0_L1D LOAD      ACCESS:    6848596  HIT:    6509068  MISS:     339528
cpu0_L1D RFO       ACCESS:    5469110  HIT:    5452090  MISS:      17020
cpu0_L1D PREFETCH  ACCESS:          0  HIT:          0  MISS:          0
cpu0_L1D WRITEBACK ACCESS:          0  HIT:          0  MISS:          0
cpu0_L2C TOTAL     ACCESS:     382200  HIT:      26134  MISS:     356066
cpu0_L2C LOAD      ACCESS:     339529  HIT:       4775  MISS:     334754
cpu0_L2C RFO       ACCESS:      17020  HIT:       1373  MISS:      15647
cpu0_L2C PREFETCH  ACCESS:          0  HIT:          0  MISS:          0
cpu0_L2C WRITEBACK ACCESS:      25578  HIT:      19986  MISS:       5592
LLC TOTAL     ACCESS:     374100  HIT:     365737  MISS:       8363
LLC LOAD      ACCESS:     334754  HIT:     334378  MISS:        376
LLC RFO       ACCESS:      15647  HIT:       7660  MISS:       7987
LLC PREFETCH  ACCESS:          0  HIT:          0  MISS:          0
LLC WRITEBACK ACCESS:      23626  HIT:      23626  MISS:          0
Heartbeat CPU 0 instructions: 106000001 cycles: 58709083 heartbeat IPC: 1.18433 cumulative IPC: 1.21339 (Simulation time: 0 hr 51 min 29 sec) 

Region of Interest Statistics
cpu0_DTLB TOTAL     ACCESS:    9620405  HIT:    9606083  MISS:      14322
cpu0_DTLB LOAD      ACCESS:    7318658  HIT:    7304853  MISS:      13805
cpu0_DTLB RFO       ACCESS:    2301747  HIT:    2301230  MISS:        517
cpu0_DTLB PREFETCH  ACCESS:          0  HIT:          0  MISS:          0
cpu0_DTLB WRITEBACK ACCESS:          0  HIT:          0  MISS:          0
cpu0_ITLB TOTAL     ACCESS:    5874670  HIT:    5874670  MISS:          0
cpu0_ITLB LOAD      ACCESS:    5874670  HIT:    5874670  MISS:          0
cpu0_ITLB RFO       ACCESS:          0  HIT:          0  MISS:          0
cpu0_ITLB PREFETCH  ACCESS:          0  HIT:          0  MISS:          0
cpu0_ITLB WRITEBACK ACCESS:          0  HIT:          0  MISS:          0
cpu0_STLB TOTAL     ACCESS:      14322  HIT:      14196  MISS:        126
cpu0_STLB LOAD      ACCESS:      13805  HIT:      13805  MISS:          0
cpu0_STLB RFO       ACCESS:        517  HIT:        391  MISS:        126
cpu0_STLB PREFETCH  ACCESS:          0  HIT:          0  MISS:          0
cpu0_STLB WRITEBACK ACCESS:          0  HIT:          0  MISS:          0
cpu0_L1D TOTAL     ACCESS:   12786078  HIT:   12415646  MISS:     370432
cpu0_L1D LOAD      ACCESS:    7107606  HIT:    6754763  MISS:     352843
cpu0_L1D RFO       ACCESS:    5678347  HIT:    5660833  MISS:      17514
cpu0_L1D PREFETCH  ACCESS:          0  HIT:          0  MISS:          0
cpu0_L1D WRITEBACK ACCESS:          0  HIT:          0  MISS:          0
cpu0_L2C TOTAL     ACCESS:     396869  HIT:      27033  MISS:     369836
cpu0_L2C LOAD      ACCESS:     352843  HIT:       4950  MISS:     347893
cpu0_L2C RFO       ACCESS:      17514  HIT:       1428  MISS:      16086
cpu0_L2C PREFETCH  ACCESS:          0  HIT:          0  MISS:          0
cpu0_L2C WRITEBACK ACCESS:      26437  HIT:      20655  MISS:       5782
LLC TOTAL     ACCESS:     388523  HIT:     379935  MISS:       8588
LLC LOAD      ACCESS:     347893  HIT:     347481  MISS:        412
LLC RFO       ACCESS:      16086  HIT:       7910  MISS:       8176
LLC PREFETCH  ACCESS:          0  HIT:          0  MISS:          0
LLC WRITEBACK ACCESS:      24469  HIT:      24469  MISS:          0
Heartbeat CPU 0 instructions: 108000000 cycles: 60400250 heartbeat IPC: 1.18261 cumulative IPC: 1.2123 (Simulation time: 0 hr 52 min 26 sec) 

Region of Interest Statistics
cpu0_DTLB TOTAL     ACCESS:    9970610  HIT:    9955679  MISS:      14931
cpu0_DTLB LOAD      ACCESS:    7584418  HIT:    7570029  MISS:      14389
cpu0_DTLB RFO       ACCESS:    2386192  HIT:    2385650  MISS:        542
cpu0_DTLB PREFETCH  ACCESS:          0  HIT:          0  MISS:          0
cpu0_DTLB WRITEBACK ACCESS:          0  HIT:          0  MISS:          0
cpu0_ITLB TOTAL     ACCESS:    6083602  HIT:    6083602  MISS:          0
cpu0_ITLB LOAD      ACCESS:    6083602  HIT:    6083602  MISS:          0
cpu0_ITLB RFO       ACCESS:          0  HIT:          0  MISS:          0
cpu0_ITLB PREFETCH  ACCESS:          0  HIT:          0  MISS:          0
cpu0_ITLB WRITEBACK ACCESS:          0  HIT:          0  MISS:          0
cpu0_STLB TOTAL     ACCESS:      14931  HIT:      14799  MISS:        132
cpu0_STLB LOAD      ACCESS:      14389  HIT:      14389  MISS:          0
cpu0_STLB RFO       ACCESS:        542  HIT:        410  MISS:        132
cpu0_STLB PREFETCH  ACCESS:          0  HIT:          0  MISS:          0
cpu0_STLB WRITEBACK ACCESS:          0  HIT:          0  MISS:          0
cpu0_L1D TOTAL     ACCESS:   13253242  HIT:   12868566  MISS:     384676
cpu0_L1D LOAD      ACCESS:    7364717  HIT:    6998320  MISS:     366397
cpu0_L1D RFO       ACCESS:    5888394  HIT:    5870194  MISS:      18200
cpu0_L1D PREFETCH  ACCESS:          0  HIT:          0  MISS:          0
cpu0_L1D WRITEBACK ACCESS:          0  HIT:          0  MISS:          0
cpu0_L2C TOTAL     ACCESS:     412158  HIT:      28131  MISS:     384027
cpu0_L2C LOAD      ACCESS:     366397  HIT:       5122  MISS:     361275
cpu0_L2C RFO       ACCESS:      18200  HIT:       1507  MISS:      16693
cpu0_L2C PREFETCH  ACCESS:          0  HIT:          0  MISS:          0
cpu0_L2C WRITEBACK ACCESS:      27482  HIT:      21502  MISS:       5980
LLC TOTAL     ACCESS:     403451  HIT:     394503  MISS:       8948
LLC LOAD      ACCESS:     361275  HIT:     360862  MISS:        413
LLC RFO       ACCESS:      16693  HIT:       8158  MISS:       8535
LLC PREFETCH  ACCESS:          0  HIT:          0  MISS:          0
LLC WRITEBACK ACCESS:      25404  HIT:      25404  MISS:          0
Heartbeat CPU 0 instructions: 110000000 cycles: 62094072 heartbeat IPC: 1.18076 cumulative IPC: 1.21122 (Simulation time: 0 hr 54 min 21 sec) 

Region of Interest Statistics
cpu0_DTLB TOTAL     ACCESS:   10316576  HIT:   10301023  MISS:      15553
cpu0_DTLB LOAD      ACCESS:    7847375  HIT:    7832383  MISS:      14992
cpu0_DTLB RFO       ACCESS:    2469201  HIT:    2468640  MISS:        561
cpu0_DTLB PREFETCH  ACCESS:          0  HIT:          0  MISS:          0
cpu0_DTLB WRITEBACK ACCESS:          0  HIT:          0  MISS:          0
cpu0_ITLB TOTAL     ACCESS:    6293357  HIT:    6293357  MISS:          0
cpu0_ITLB LOAD      ACCESS:    6293357  HIT:    6293357  MISS:          0
cpu0_ITLB RFO       ACCESS:          0  HIT:          0  MISS:          0
cpu0_ITLB PREFETCH  ACCESS:          0  HIT:          0  MISS:          0
cpu0_ITLB WRITEBACK ACCESS:          0  HIT:          0  MISS:          0
cpu0_STLB TOTAL     ACCESS:      15553  HIT:      15417  MISS:        136
cpu0_STLB LOAD      ACCESS:      14992  HIT:      14992  MISS:          0
cpu0_STLB RFO       ACCESS:        561  HIT:        425  MISS:        136
cpu0_STLB PREFETCH  ACCESS:          0  HIT:          0  MISS:          0
cpu0_STLB WRITEBACK ACCESS:          0  HIT:          0  MISS:          0
cpu0_L1D TOTAL     ACCESS:   13718151  HIT:   13319759  MISS:     398392
cpu0_L1D LOAD      ACCESS:    7622242  HIT:    7242715  MISS:     379527
cpu0_L1D RFO       ACCESS:    6095774  HIT:    6076992  MISS:      18782
cpu0_L1D PREFETCH  ACCESS:          0  HIT:          0  MISS:          0
cpu0_L1D WRITEBACK ACCESS:          0  HIT:          0  MISS:          0
cpu0_L2C TOTAL     ACCESS:     426716  HIT:      29035  MISS:     397681
cpu0_L2C LOAD      ACCESS:     379527  HIT:       5279  MISS:     374248
cpu0_L2C RFO       ACCESS:      18782  HIT:       1570  MISS:      17212
cpu0_L2C PREFETCH  ACCESS:          0  HIT:          0  MISS:          0
cpu0_L2C WRITEBACK ACCESS:      28324  HIT:      22186  MISS:       6138
LLC TOTAL     ACCESS:     417641  HIT:     408274  MISS:       9367
LLC LOAD      ACCESS:     374248  HIT:     373711  MISS:        537
LLC RFO       ACCESS:      17212  HIT:       8382  MISS:       8830
LLC PREFETCH  ACCESS:          0  HIT:          0  MISS:          0
LLC WRITEBACK ACCESS:      26098  HIT:      26098  MISS:          0
Heartbeat CPU 0 instructions: 112000000 cycles: 63796232 heartbeat IPC: 1.17498 cumulative IPC: 1.21002 (Simulation time: 0 hr 55 min 21 sec) 

Region of Interest Statistics
cpu0_DTLB TOTAL     ACCESS:   10662232  HIT:   10646023  MISS:      16209
cpu0_DTLB LOAD      ACCESS:    8110874  HIT:    8095248  MISS:      15626
cpu0_DTLB RFO       ACCESS:    2551358  HIT:    2550775  MISS:        583
cpu0_DTLB PREFETCH  ACCESS:          0  HIT:          0  MISS:          0
cpu0_DTLB WRITEBACK ACCESS:          0  HIT:          0  MISS:          0
cpu0_ITLB TOTAL     ACCESS:    6503922  HIT:    6503922  MISS:          0
cpu0_ITLB LOAD      ACCESS:    6503922  HIT:    6503922  MISS:          0
cpu0_ITLB RFO       ACCESS:          0  HIT:          0  MISS:          0
cpu0_ITLB PREFETCH  ACCESS:          0  HIT:          0  MISS:          0
cpu0_ITLB WRITEBACK ACCESS:          0  HIT:          0  MISS:          0
cpu0_STLB TOTAL     ACCESS:      16209  HIT:      16069  MISS:        140
cpu0_STLB LOAD      ACCESS:      15626  HIT:      15626  MISS:          0
cpu0_STLB RFO       ACCESS:        583  HIT:        443  MISS:        140
cpu0_STLB PREFETCH  ACCESS:          0  HIT:          0  MISS:          0
cpu0_STLB WRITEBACK ACCESS:          0  HIT:          0  MISS:          0
cpu0_L1D TOTAL     ACCESS:   14186917  HIT:   13774006  MISS:     412911
cpu0_L1D LOAD      ACCESS:    7876916  HIT:    7483438  MISS:     393478
cpu0_L1D RFO       ACCESS:    6309863  HIT:    6290516  MISS:      19347
cpu0_L1D PREFETCH  ACCESS:          0  HIT:          0  MISS:          0
cpu0_L1D WRITEBACK ACCESS:          0  HIT:          0  MISS:          0
cpu0_L2C TOTAL     ACCESS:     442128  HIT:      29994  MISS:     412134
cpu0_L2C LOAD      ACCESS:     393478  HIT:       5454  MISS:     388024
cpu0_L2C RFO       ACCESS:      19347  HIT:       1638  MISS:      17709
cpu0_L2C PREFETCH  ACCESS:          0  HIT:          0  MISS:          0
cpu0_L2C WRITEBACK ACCESS:      29217  HIT:      22902  MISS:       6315
LLC TOTAL     ACCESS:     432688  HIT:     423051  MISS:       9637
LLC LOAD      ACCESS:     388024  HIT:     387486  MISS:        538
LLC RFO       ACCESS:      17709  HIT:       8610  MISS:       9099
LLC PREFETCH  ACCESS:          0  HIT:          0  MISS:          0
LLC WRITEBACK ACCESS:      26869  HIT:      26869  MISS:          0
Heartbeat CPU 0 instructions: 114000000 cycles: 65484270 heartbeat IPC: 1.18481 cumulative IPC: 1.20921 (Simulation time: 0 hr 56 min 18 sec) 

Region of Interest Statistics
cpu0_DTLB TOTAL     ACCESS:   11006361  HIT:   10989542  MISS:      16819
cpu0_DTLB LOAD      ACCESS:    8373107  HIT:    8356890  MISS:      16217
cpu0_DTLB RFO       ACCESS:    2633254  HIT:    2632652  MISS:        602
cpu0_DTLB PREFETCH  ACCESS:          0  HIT:          0  MISS:          0
cpu0_DTLB WRITEBACK ACCESS:          0  HIT:          0  MISS:          0
cpu0_ITLB TOTAL     ACCESS:    6715204  HIT:    6715204  MISS:          0
cpu0_ITLB LOAD      ACCESS:    6715204  HIT:    6715204  MISS:          0
cpu0_ITLB RFO       ACCESS:          0  HIT:          0  MISS:          0
cpu0_ITLB PREFETCH  ACCESS:          0  HIT:          0  MISS:          0
cpu0_ITLB WRITEBACK ACCESS:          0  HIT:          0  MISS:          0
cpu0_STLB TOTAL     ACCESS:      16819  HIT:      16675  MISS:        144
cpu0_STLB LOAD      ACCESS:      16217  HIT:      16217  MISS:          0
cpu0_STLB RFO       ACCESS:        602  HIT:        458  MISS:        144
cpu0_STLB PREFETCH  ACCESS:          0  HIT:          0  MISS:          0
cpu0_STLB WRITEBACK ACCESS:          0  HIT:          0  MISS:          0
cpu0_L1D TOTAL     ACCESS:   14657640  HIT:   14230758  MISS:     426882
cpu0_L1D LOAD      ACCESS:    8136641  HIT:    7729737  MISS:     406904
cpu0_L1D RFO       ACCESS:    6520857  HIT:    6500968  MISS:      19889
cpu0_L1D PREFETCH  ACCESS:          0  HIT:          0  MISS:          0
cpu0_L1D WRITEBACK ACCESS:          0  HIT:          0  MISS:          0
cpu0_L2C TOTAL     ACCESS:     456904  HIT:      30872  MISS:     426032
cpu0_L2C LOAD      ACCESS:     406904  HIT:       5625  MISS:     401279
cpu0_L2C RFO       ACCESS:      19889  HIT:       1715  MISS:      18174
cpu0_L2C PREFETCH  ACCESS:          0  HIT:          0  MISS:          0
cpu0_L2C WRITEBACK ACCESS:      30022  HIT:      23532  MISS:       6490
LLC TOTAL     ACCESS:     447188  HIT:     437329  MISS:       9859
LLC LOAD      ACCESS:     401279  HIT:     400740  MISS:        539
LLC RFO       ACCESS:      18174  HIT:       8854  MISS:       9320
LLC PREFETCH  ACCESS:          0  HIT:          0  MISS:          0
LLC WRITEBACK ACCESS:      27646  HIT:      27646  MISS:          0
Heartbeat CPU 0 instructions: 116000002 cycles: 67218647 heartbeat IPC: 1.15315 cumulative IPC: 1.20744 (Simulation time: 0 hr 57 min 20 sec) 

Region of Interest Statistics
cpu0_DTLB TOTAL     ACCESS:   11358721  HIT:   11341253  MISS:      17468
cpu0_DTLB LOAD      ACCESS:    8640981  HIT:    8624137  MISS:      16844
cpu0_DTLB RFO       ACCESS:    2717740  HIT:    2717116  MISS:        624
cpu0_DTLB PREFETCH  ACCESS:          0  HIT:          0  MISS:          0
[...]
LLC WRITEBACK ACCESS:     636890  HIT:     636870  MISS:         20
Finished CPU 0 instructions: 1500000001 cycles: 1263083705 cumulative IPC: 1.18757 (Simulation time: 12 hr 11 min 46 sec) 

ChampSim completed all CPUs

Region of Interest Statistics

CPU 0 cumulative IPC: 1.18757 instructions: 1500000001 cycles: 1263083705
cpu0_DTLB TOTAL     ACCESS:  263046604  HIT:  262523565  MISS:     523039
cpu0_DTLB LOAD      ACCESS:  196474862  HIT:  195966559  MISS:     508303
cpu0_DTLB RFO       ACCESS:   66571742  HIT:   66557006  MISS:      14736
cpu0_DTLB PREFETCH  ACCESS:          0  HIT:          0  MISS:          0
cpu0_DTLB WRITEBACK ACCESS:          0  HIT:          0  MISS:          0
cpu0_DTLB TRANSLATION ACCESS:          0  HIT:          0  MISS:          0
cpu0_DTLB PREFETCH  REQUESTED:          0  ISSUED:          0  USEFUL:          0  USELESS:          0
cpu0_DTLB AVERAGE MISS LATENCY: 10.4551 cycles
cpu0_ITLB TOTAL     ACCESS:  157074254  HIT:  157074254  MISS:          0
cpu0_ITLB LOAD      ACCESS:  157074254  HIT:  157074254  MISS:          0
cpu0_ITLB RFO       ACCESS:          0  HIT:          0  MISS:          0
cpu0_ITLB PREFETCH  ACCESS:          0  HIT:          0  MISS:          0
cpu0_ITLB WRITEBACK ACCESS:          0  HIT:          0  MISS:          0
cpu0_ITLB TRANSLATION ACCESS:          0  HIT:          0  MISS:          0
cpu0_ITLB PREFETCH  REQUESTED:          0  ISSUED:          0  USEFUL:          0  USELESS:          0
cpu0_ITLB AVERAGE MISS LATENCY: -nan cycles
cpu0_L1I TOTAL     ACCESS:        353  HIT:        350  MISS:          3
cpu0_L1I LOAD      ACCESS:        353  HIT:        350  MISS:          3
cpu0_L1I RFO       ACCESS:          0  HIT:          0  MISS:          0
cpu0_L1I PREFETCH  ACCESS:          0  HIT:          0  MISS:          0
cpu0_L1I WRITEBACK ACCESS:          0  HIT:          0  MISS:          0
cpu0_L1I TRANSLATION ACCESS:          0  HIT:          0  MISS:          0
cpu0_L1I PREFETCH  REQUESTED:          0  ISSUED:          0  USEFUL:          0  USELESS:          0
cpu0_L1I AVERAGE MISS LATENCY: 194.333 cycles
cpu0_STLB TOTAL     ACCESS:     523039  HIT:     519657  MISS:       3382
cpu0_STLB LOAD      ACCESS:     508303  HIT:     508156  MISS:        147
cpu0_STLB RFO       ACCESS:      14736  HIT:      11501  MISS:       3235
cpu0_STLB PREFETCH  ACCESS:          0  HIT:          0  MISS:          0
cpu0_STLB WRITEBACK ACCESS:          0  HIT:          0  MISS:          0
cpu0_STLB TRANSLATION ACCESS:          0  HIT:          0  MISS:          0
cpu0_STLB PREFETCH  REQUESTED:          0  ISSUED:          0  USEFUL:          0  USELESS:          0
cpu0_STLB AVERAGE MISS LATENCY: 224.378 cycles
cpu0_L1D TOTAL     ACCESS:  350719837  HIT:  340049197  MISS:   10670640
cpu0_L1D LOAD      ACCESS:  193306419  HIT:  183062137  MISS:   10244282
cpu0_L1D RFO       ACCESS:  157410050  HIT:  156985801  MISS:     424249
cpu0_L1D PREFETCH  ACCESS:          0  HIT:          0  MISS:          0
cpu0_L1D WRITEBACK ACCESS:          0  HIT:          0  MISS:          0
cpu0_L1D TRANSLATION ACCESS:       3368  HIT:       1259  MISS:       2109
cpu0_L1D PREFETCH  REQUESTED:          0  ISSUED:          0  USEFUL:          0  USELESS:          0
cpu0_L1D AVERAGE MISS LATENCY: 35.9746 cycles
cpu0_L2C TOTAL     ACCESS:   11341996  HIT:     651241  MISS:   10690755
cpu0_L2C LOAD      ACCESS:   10244285  HIT:      88102  MISS:   10156183
cpu0_L2C RFO       ACCESS:     424247  HIT:      37704  MISS:     386543
cpu0_L2C PREFETCH  ACCESS:          0  HIT:          0  MISS:          0
cpu0_L2C WRITEBACK ACCESS:     671355  HIT:     525435  MISS:     145920
cpu0_L2C TRANSLATION ACCESS:       2109  HIT:          0  MISS:       2109
cpu0_L2C PREFETCH  REQUESTED:          0  ISSUED:          0  USEFUL:          0  USELESS:          0
cpu0_L2C AVERAGE MISS LATENCY: 24.9065 cycles
LLC TOTAL     ACCESS:   11181724  HIT:   10965038  MISS:     216686
LLC LOAD      ACCESS:   10156182  HIT:   10146582  MISS:       9600
LLC RFO       ACCESS:     386543  HIT:     179477  MISS:     207066
LLC PREFETCH  ACCESS:          0  HIT:          0  MISS:          0
LLC WRITEBACK ACCESS:     636890  HIT:     636870  MISS:         20
LLC TRANSLATION ACCESS:       2109  HIT:       2109  MISS:          0
LLC PREFETCH  REQUESTED:          0  ISSUED:          0  USEFUL:          0  USELESS:          0
LLC AVERAGE MISS LATENCY: 206.879 cycles
~~~~~~~~~~Reuse Distance Profiler output~~~~~~~~~~
0	96716752	10122832
1	30957536	17536816
2	33318128	24771344
3	26927536	10872672
4	10168416	7203696
5	10410928	5765392
6	9740608	5744768
7	11202704	5840960
8	9054496	7657584
9	7375504	6766464
10	4820752	4661088
11	4014384	3768656
12	4359696	3853232
13	4229440	3671824
14	3601120	3233792
15	2975296	2725520
16	2353904	2181936
17	2032352	1850224
18	2241904	2074240
19	1729712	1530192
20	2054064	1788576
21	1968240	1693776
22	2211024	1935616
23	1986416	1680000
24	1401776	1101456
25	1333184	1069184
26	1133120	905600
27	1031280	844032
28	934960	763424
29	1034272	851840
30	1183056	991488
31	1057744	866224
32	904912	681728
33	1054688	807504
34	1081280	856912
35	927312	734064
36	821872	659232
37	662048	508896
38	851888	701744
39	809840	675120
40	605552	479280
41	512672	346352
42	573728	354816
43	477168	314080
44	678368	546432
45	645440	542864
46	566400	473968
47	509680	432208
48	396736	333600
49	399776	329312
50	412368	320176
51	545984	462688
52	728256	643936
53	727872	647696
54	611664	537648
55	574992	489984
56	492480	415552
57	536816	457968
58	585648	510592
59	607616	503600
60	567296	460640
61	505520	403248
62	451552	366528
63	430960	349536
64	818864	591264
66	737920	483008
68	720640	483136
70	686208	438944
72	556240	293872
74	518992	273360
76	571152	351808
78	788768	589376
80	838768	657280
82	908816	730096
84	922688	765472
86	881504	736864
88	761552	601264
90	786976	588048
92	796960	601824
94	681264	510912
96	586048	449664
98	453840	330272
100	377712	263584
102	344480	235664
104	341072	233904
106	333248	226464
108	297456	194000
110	314208	210512
112	297552	197792
114	328176	232896
116	268944	183312
118	228480	149488
120	221072	158976
122	223120	172496
124	208224	161360
126	186992	126400
128	330576	201392
132	273744	155856
136	329296	186672
140	325952	170768
144	277040	121280
148	231872	91824
152	236912	100304
156	261504	122448
160	283968	167504
164	254624	164656
168	251520	188384
172	270224	222144
176	288768	245360
180	226960	186112
184	240864	201712
188	216464	177520
192	223248	188208
196	228128	197280
200	285456	252624
204	249424	221088
208	213616	195632
212	173872	157712
216	148432	132480
220	131232	106736
224	123712	98336
228	123664	104960
232	141072	111632
236	173312	145088
240	154496	132704
244	149056	134080
248	134976	119712
252	114656	96704
256	227248	193968
264	205840	161648
272	165664	130336
280	161168	124480
288	177872	133472
296	191664	139696
304	208592	143568
312	212896	157488
320	210688	159168
328	192800	144176
336	186896	140288
344	191824	136208
352	196672	126256
360	209120	135792
368	242448	165520
376	214240	151344
384	160608	130880
392	117856	96032
400	104912	94912
408	104800	96512
416	88576	82304
424	82688	76960
432	83056	77312
440	72768	67936
448	66272	61440
456	59664	55296
464	59056	54752
472	68992	64384
480	86240	81088
488	73872	66032
496	84784	75472
504	96256	80208
512	172384	137328
528	141056	116368
544	131360	107360
560	133712	109952
576	127104	107200
592	114176	94384
608	110336	89408
624	116224	89312
640	117152	87648
656	121968	93856
672	110848	86048
688	111584	87856
704	101744	79248
720	103680	77488
736	119200	78752
752	126048	84880
768	107904	83712
784	100096	85712
800	80736	75040
816	73408	69440
832	53088	48992
848	46112	42784
864	36048	32960
880	40784	38112
896	32560	30368
912	34176	31376
928	32400	30016
944	36160	32896
960	39760	36688
976	72032	66912
992	58880	53520
1008	61984	52160
1024	102848	85120
1056	84016	67920
1088	68048	57808
1120	61968	53520
1152	60544	52000
1184	68096	57120
1216	60336	50128
1248	63024	50592
1280	57920	47200
1312	62128	50336
1344	55888	45536
1376	58224	47216
1408	57328	45824
1440	53136	42768
1472	58736	46592
1504	59712	44176
1536	65472	51824
1568	78736	68816
1600	45648	39840
1632	44016	39760
1664	28160	24624
1696	24080	21728
1728	22896	20224
1760	19328	16848
1792	20192	17248
1824	21008	18256
1856	19712	16944
1888	21168	17744
1920	18016	15040
1952	18320	15392
1984	18800	16208
2016	20416	17600
2048	46464	39264
2112	38976	32880
2176	34976	29056
2240	34976	29280
2304	32224	27776
2368	30928	26400
2432	30752	25808
2496	29520	24832
2560	29968	24432
2624	31184	24944
2688	28208	23216
2752	29024	22800
2816	26368	21904
2880	28112	22928
2944	25824	20448
3008	28032	21488
3072	30992	23344
3136	29872	22704
3200	23824	19392
3264	22256	18896
3328	17488	15360
3392	17968	15808
3456	17440	15072
3520	16112	14080
3584	17024	14608
3648	17312	14480
3712	15104	12208
3776	15792	13680
3840	14528	12384
3904	15008	12976
3968	14272	12496
4032	13248	11680
4096	27360	22864
4224	25312	21728
4352	25264	22496
4480	24560	21392
4608	21872	19216
4736	21344	18800
4864	20912	18768
4992	21376	19120
5120	20560	18608
5248	20048	18128
5376	21104	19152
5504	20640	18352
5632	19184	16688
5760	18752	16320
5888	18896	16576
6016	16544	13872
6144	16720	13296
6272	15776	13408
6400	12192	10688
6528	11312	9904
6656	10544	9312
6784	10608	9392
6912	10496	9280
7040	11024	9680
7168	10864	9904
7296	10944	9872
7424	10848	9792
7552	10896	9920
7680	9632	8560
7808	9968	8832
7936	9296	8256
8064	9552	8544
8192	19344	17152
8448	17424	15248
8704	16880	14944
8960	15968	13872
9216	15776	13712
9472	15776	13872
9728	15568	13968
9984	16384	14912
10240	16048	14608
10496	15232	13456
10752	14992	13472
11008	15600	14240
11264	14736	13440
11520	13856	12352
11776	12768	11648
12032	10912	9952
12288	10832	9840
12544	9328	8224
12800	8480	7616
13056	8704	7888
13312	7376	6496
13568	7504	6672
13824	6800	6160
14080	6464	5664
14336	7616	6528
14592	7392	6336
14848	6848	6000
15104	6768	5696
15360	6416	5408
15616	6576	5616
15872	6176	5216
16128	6640	5792
16384	11904	10000
16896	11904	9952
17408	11248	9376
17920	11056	9296
18432	11056	9392
18944	10672	8736
19456	10992	9056
19968	10912	9008
20480	10336	8432
20992	9712	7968
21504	9296	7728
22016	9168	7456
22528	9504	7824
23040	8688	7216
23552	9392	7536
24064	9408	7312
24576	8608	6832
25088	9072	7584
25600	9136	7040
26112	8496	6528
26624	8752	6720
27136	9136	6896
27648	8656	6848
28160	9376	7088
28672	8624	6496
29184	8448	6464
29696	8960	6816
30208	9152	6928
30720	7840	6384
31232	8656	6464
31744	9056	6784
32256	9088	7120
32768	16832	12720
33792	17840	12976
34816	18320	13488
35840	16640	12528
36864	16208	12288
37888	16368	12512
38912	15584	11552
39936	16256	11872
40960	16176	12208
41984	15008	10688
43008	13776	10192
44032	13824	9584
45056	12144	8416
46080	11808	7904
47104	11120	7424
48128	9424	5728
49152	10656	6464
50176	9408	5472
51200	10336	6032
52224	9536	5440
53248	9584	5296
54272	8928	4912
55296	9440	5152
56320	8816	4576
57344	9152	4720
58368	8848	4656
59392	8800	4096
60416	7840	4000
61440	7472	3872
62464	7216	3552
63488	7136	3824
64512	6752	3856
65536	13696	7408
67584	12784	6512
69632	12752	6864
71680	12096	6464
73728	12208	6320
75776	12192	6880
77824	10992	6432
79872	10896	6864
81920	10208	6752
83968	10240	7008
86016	9712	6608
88064	9968	7200
90112	11920	9168
92160	20848	17984
94208	29104	26688
96256	29328	26752
98304	30704	28528
100352	25760	23376
102400	32928	30704
104448	41856	39680
106496	48512	46608
108544	37968	36160
110592	41200	39648
112640	46832	45232
114688	58912	57424
116736	79456	78160
118784	102944	101952
120832	102320	101280
122880	116032	115296
124928	139920	139056
126976	132928	132368
129024	119408	118816
131072	232784	231760
135168	254352	253360
139264	360960	360272
143360	359456	358624
147456	324256	323712
151552	300528	299904
155648	376144	375584
159744	358208	357696
163840	342096	341600
167936	387488	387024
172032	402688	402160
176128	455744	455152
180224	441696	441216
184320	373408	372896
188416	378288	377936
192512	378400	377968
196608	336016	335632
200704	330768	330448
204800	366096	365696
208896	340064	339760
212992	356224	356096
217088	310496	310192
221184	267840	267456
225280	176560	176336
229376	157936	157712
233472	123920	123728
237568	52912	52800
241664	27808	27664
245760	11424	11280
249856	1968	1856
253952	1664	1584
258048	2336	2224
262144	2800	2672
270336	2992	2896
278528	4304	4192
286720	3312	3200
294912	3680	3600
303104	3728	3584
311296	5936	5808
319488	4944	4848
327680	4736	4624
335872	5904	5744
344064	6800	6752
352256	6368	6288
360448	4352	4320
368640	4512	4496
376832	4704	4656
385024	6592	6576
393216	4512	4512
401408	3376	3248
409600	4080	4064
417792	4224	4208
425984	4928	4880
434176	5088	5040
442368	4192	4160
450560	2688	2656
458752	2560	2560
466944	2288	2240
475136	2576	2560
483328	1376	1344
491520	1552	1472
499712	1568	1552
507904	976	944
516096	1248	1248
524288	4320	4320
540672	3264	3248
557056	3232	3184
573440	4240	4192
589824	2576	2496
606208	3376	3344
622592	3152	3152
638976	3168	3136
655360	4016	4000
671744	1696	1664
688128	3264	3248
704512	1392	1360
720896	2224	2176
737280	2368	2368
753664	1680	1664
770048	1968	1952
786432	1648	1616
802816	2592	2528
819200	1952	1888
835584	2032	2016
851968	2688	2672
868352	2704	2640
884736	1600	1600
901120	1600	1552
917504	1408	1392
933888	1312	1280
950272	768	672
966656	1536	1536
983040	1472	1456
999424	1072	1056
1015808	1920	1856
1032192	2048	2048
1048576	3504	3440
1081344	1600	1584
1114112	2608	2576
1146880	1152	1072
1179648	2080	2064
1212416	1456	1424
1245184	1728	1696
1277952	1264	1232
1310720	1984	1920
1343488	1520	1472
1376256	912	896
1409024	2064	2048
1441792	1424	1408
1474560	1728	1696
1507328	720	704
1540096	1776	1760
1572864	1616	1600
1605632	800	768
1638400	880	848
1671168	960	896
1703936	640	608
1736704	1456	1440
1769472	2032	2000
1802240	2048	2016
1835008	864	832
1867776	1536	1520
1900544	896	880
1933312	832	832
1966080	624	624
1998848	544	528
2031616	624	624
2064384	1056	1056
2097152	1424	1408
2162688	496	480
2228224	1664	1600
2293760	1632	1616
2359296	1312	1232
2424832	1632	1616
2490368	1136	1088
2555904	1200	1184
2621440	608	576
2686976	880	800
2752512	736	688
2818048	1616	1568
2883584	1520	1504
2949120	1760	1744
3014656	1360	1344
3080192	1296	1264
3145728	384	384
3211264	816	816
3276800	672	656
3342336	368	368
3407872	1264	1264
3473408	656	656
3538944	736	736
3604480	384	368
3670016	432	432
3735552	480	480
3801088	224	224
3866624	560	528
3932160	624	576
3997696	544	544
4063232	384	368
4128768	272	272
4194304	832	768
4325376	896	896
4456448	752	736
4587520	448	432
4718592	640	640
4849664	800	784
4980736	1456	1424
5111808	1200	1168
5242880	816	816
5373952	1568	1504
5505024	288	288
5636096	256	256
5767168	1040	1040
5898240	608	592
6029312	480	464
6160384	576	576
6291456	528	528
6422528	896	896
6553600	608	592
6684672	672	672
6815744	672	656
6946816	448	448
7077888	400	320
7208960	736	720
7340032	704	688
7471104	272	272
7602176	256	256
7733248	272	272
7864320	592	592
7995392	368	368
8126464	176	176
8257536	496	496
8388608	576	576
8650752	960	944
8912896	1696	1648
9175040	816	816
9437184	448	416
9699328	464	464
9961472	240	240
10223616	528	528
10485760	336	336
10747904	176	176
11010048	208	144
11272192	112	112
11534336	160	160
11796480	272	272
12058624	64	64
12320768	224	224
12582912	336	336
12845056	160	160
13107200	144	144
13369344	304	304
13631488	288	288
13893632	0	0
14155776	64	64
14417920	64	64
14680064	256	256
14942208	96	96
15204352	128	128
15466496	336	336
15728640	272	272
15990784	256	256
16252928	176	176
16515072	112	112
16777216	48	48
17301504	176	176
17825792	416	416
18350080	224	224
18874368	432	432
19398656	800	800
19922944	176	176
20447232	176	176
20971520	256	256
21495808	80	80
22020096	192	192
22544384	176	176
23068672	96	96
23592960	144	144
24117248	352	352
24641536	224	208
25165824	112	112
25690112	416	416
26214400	192	192
26738688	176	160
27262976	144	144
27787264	80	80
28311552	48	32
28835840	64	64
29360128	64	64
29884416	208	208
30408704	80	48
30932992	96	96
31457280	16	16
31981568	192	192
32505856	48	48
33030144	0	0
33554432	288	288
34603008	48	48
35651584	80	80
36700160	96	96
37748736	272	272
38797312	480	480
39845888	176	176
40894464	256	256
41943040	80	80
42991616	32	32
44040192	0	0
45088768	0	0
46137344	32	32
47185920	176	176
48234496	16	0
49283072	448	432
50331648	48	48
51380224	48	48
52428800	80	80
53477376	64	64
54525952	80	80
55574528	48	48
56623104	128	112
57671680	176	176
58720256	112	96
59768832	144	144
60817408	160	160
61865984	144	96
62914560	848	848
63963136	176	176
65011712	96	96
66060288	160	160
67108864	112	112
69206016	176	176
71303168	80	48
73400320	48	32
75497472	32	32
77594624	16	16
79691776	240	240
81788928	48	48
83886080	48	48
85983232	96	96
88080384	160	160
90177536	0	0
92274688	96	96
94371840	16	16
96468992	128	128
98566144	16	16
100663296	16	16
102760448	128	128
104857600	0	0
106954752	0	0
109051904	80	80
111149056	0	0
113246208	0	0
115343360	64	48
117440512	80	80
119537664	48	48
121634816	48	48
123731968	16	16
125829120	16	16
127926272	0	0
130023424	16	16
132120576	16	16
134217728	32	32
138412032	48	48
142606336	0	0
146800640	16	16
150994944	64	64
155189248	0	0
159383552	0	0
163577856	48	48
167772160	112	112
171966464	16	16
176160768	16	16
180355072	16	16
184549376	48	48
188743680	16	16
192937984	0	0
197132288	16	16
201326592	240	240
205520896	80	80
209715200	80	80
213909504	32	32
218103808	48	48
222298112	32	32
226492416	32	32
230686720	0	0
234881024	0	0
239075328	0	0
243269632	0	0
247463936	0	0
251658240	0	0
255852544	32	16
260046848	144	144
264241152	0	0
268435456	96	96
276824064	0	0
285212672	16	16
293601280	0	0
301989888	0	0
310378496	0	0
318767104	0	0
327155712	0	0
335544320	0	0
343932928	0	0
352321536	0	0
360710144	0	0
369098752	0	0
377487360	0	0
385875968	0	0
394264576	0	0
402653184	0	0
411041792	0	0
419430400	0	0
427819008	0	0
436207616	0	0
444596224	0	0
452984832	0	0
461373440	0	0
469762048	0	0
478150656	0	0
486539264	0	0
494927872	0	0
503316480	0	0
511705088	0	0
520093696	0	0
528482304	0	0
536870912	0	0
553648128	0	0
570425344	0	0
587202560	0	0
603979776	0	0
620756992	0	0
637534208	0	0
654311424	0	0
671088640	0	0
687865856	0	0
704643072	0	0
721420288	0	0
738197504	0	0
754974720	0	0
771751936	0	0
788529152	0	0
805306368	0	0
822083584	0	0
838860800	0	0
855638016	0	0
872415232	0	0
889192448	0	0
905969664	0	0
922746880	0	0
939524096	0	0
956301312	0	0
973078528	0	0
989855744	0	0
1006632960	0	0
1023410176	0	0
1040187392	0	0
1056964608	0	0
1073741824	0	0
1107296256	0	0
1140850688	0	0
1174405120	0	0
1207959552	0	0
1241513984	0	0
1275068416	0	0
1308622848	0	0
1342177280	0	0
1375731712	0	0
1409286144	0	0
1442840576	0	0
1476395008	0	0
1509949440	0	0
1543503872	0	0
1577058304	0	0
1610612736	0	0
1644167168	0	0
1677721600	0	0
1711276032	0	0
1744830464	0	0
1778384896	0	0
1811939328	0	0
1845493760	0	0
1879048192	0	0
1912602624	0	0
1946157056	0	0
1979711488	0	0
2013265920	0	0
2046820352	0	0
2080374784	0	0
2113929216	0	0
2147483648	0	0
2214592512	0	0
2281701376	0	0
2348810240	0	0
2415919104	0	0
2483027968	0	0
2550136832	0	0
2617245696	0	0
2684354560	0	0
2751463424	0	0
2818572288	0	0
2885681152	0	0
2952790016	0	0
3019898880	0	0
3087007744	0	0
3154116608	0	0
3221225472	0	0
3288334336	0	0
3355443200	0	0
3422552064	0	0
3489660928	0	0
3556769792	0	0
3623878656	0	0
3690987520	0	0
3758096384	0	0
3825205248	0	0
3892314112	0	0
3959422976	0	0
4026531840	0	0
4093640704	0	0
4160749568	0	0
4227858432	0	0
~~~~~~~~~~Reuse Distance Profiler output end~~~~~~~~~~

Sampler size:14275

DRAM Statistics
 CHANNEL 0
 RQ ROW_BUFFER_HIT:     120909  ROW_BUFFER_MISS:      95757
 DBUS AVG_CONGESTED_CYCLE:    3.94499
 WQ ROW_BUFFER_HIT:      31754  ROW_BUFFER_MISS:     126030  FULL:          0


CPU 0 Branch Prediction Accuracy: 89.3348% MPKI: 14.7667 Average ROB Occupancy at Mispredict: 45.1565
Branch type MPKI
BRANCH_DIRECT_JUMP: 1.33333e-06
BRANCH_INDIRECT: 0
BRANCH_CONDITIONAL: 14.7667
BRANCH_DIRECT_CALL: 0
BRANCH_INDIRECT_CALL: 0
BRANCH_RETURN: 0

