
*** ChampSim Multicore Out-of-Order Simulator ***

Warmup Instructions: 50000000
Simulation Instructions: 1500000000
Number of CPUs: 1
Off-chip DRAM Size: 4 GiB Channels: 1 Width: 64-bit Data Rate: 3200 MT/s

VirtualMemory physical capacity: 8588881920 num_ppages: 2096895
VirtualMemory page size: 4096 log2_page_size: 12

CPU 0 runs /s/traces/champsim_traces/654.roms_s-294B.champsimtrace.xz
CPU 0 Bimodal branch predictor
Basic BTB sets: 1024 ways: 8 indirect buffer size: 4096 RAS size: 64
Initializing LRU.
Initializing LRU.
Initializing LRU.
Initializing LRU.
Initializing rdLRU.
Initializing LRU.
Initializing LRU.
Heartbeat CPU 0 instructions: 2000000 cycles: 766182 heartbeat IPC: 2.61035 cumulative IPC: 2.61035 (Simulation time: 0 hr 1 min 46 sec) 
Heartbeat CPU 0 instructions: 4000003 cycles: 1531492 heartbeat IPC: 2.61332 cumulative IPC: 2.61183 (Simulation time: 0 hr 3 min 37 sec) 
Heartbeat CPU 0 instructions: 6000000 cycles: 2297534 heartbeat IPC: 2.61082 cumulative IPC: 2.6115 (Simulation time: 0 hr 5 min 14 sec) 
Heartbeat CPU 0 instructions: 8000001 cycles: 3062842 heartbeat IPC: 2.61333 cumulative IPC: 2.61195 (Simulation time: 0 hr 7 min 0 sec) 
Heartbeat CPU 0 instructions: 10000000 cycles: 3828153 heartbeat IPC: 2.61332 cumulative IPC: 2.61223 (Simulation time: 0 hr 8 min 41 sec) 
Heartbeat CPU 0 instructions: 12000003 cycles: 4594201 heartbeat IPC: 2.61081 cumulative IPC: 2.61199 (Simulation time: 0 hr 10 min 26 sec) 
Heartbeat CPU 0 instructions: 14000000 cycles: 5359513 heartbeat IPC: 2.61331 cumulative IPC: 2.61218 (Simulation time: 0 hr 12 min 10 sec) 
Heartbeat CPU 0 instructions: 16000000 cycles: 6125555 heartbeat IPC: 2.61082 cumulative IPC: 2.61201 (Simulation time: 0 hr 13 min 57 sec) 
Heartbeat CPU 0 instructions: 18000000 cycles: 6890865 heartbeat IPC: 2.61332 cumulative IPC: 2.61215 (Simulation time: 0 hr 15 min 40 sec) 
Heartbeat CPU 0 instructions: 20000001 cycles: 7656176 heartbeat IPC: 2.61332 cumulative IPC: 2.61227 (Simulation time: 0 hr 17 min 25 sec) 
Heartbeat CPU 0 instructions: 22000004 cycles: 8422224 heartbeat IPC: 2.61081 cumulative IPC: 2.61214 (Simulation time: 0 hr 19 min 9 sec) 
Heartbeat CPU 0 instructions: 24000000 cycles: 9187532 heartbeat IPC: 2.61332 cumulative IPC: 2.61224 (Simulation time: 0 hr 20 min 50 sec) 
Heartbeat CPU 0 instructions: 26000004 cycles: 9952844 heartbeat IPC: 2.61332 cumulative IPC: 2.61232 (Simulation time: 0 hr 22 min 30 sec) 
Heartbeat CPU 0 instructions: 28000002 cycles: 10718891 heartbeat IPC: 2.6108 cumulative IPC: 2.61221 (Simulation time: 0 hr 24 min 9 sec) 
Heartbeat CPU 0 instructions: 30000001 cycles: 11484201 heartbeat IPC: 2.61332 cumulative IPC: 2.61228 (Simulation time: 0 hr 25 min 51 sec) 
Heartbeat CPU 0 instructions: 32000001 cycles: 12250244 heartbeat IPC: 2.61082 cumulative IPC: 2.61219 (Simulation time: 0 hr 27 min 31 sec) 
Heartbeat CPU 0 instructions: 34000000 cycles: 13015556 heartbeat IPC: 2.61331 cumulative IPC: 2.61226 (Simulation time: 0 hr 29 min 8 sec) 
Heartbeat CPU 0 instructions: 36000002 cycles: 13780869 heartbeat IPC: 2.61331 cumulative IPC: 2.61232 (Simulation time: 0 hr 30 min 43 sec) 
Heartbeat CPU 0 instructions: 38000001 cycles: 14546913 heartbeat IPC: 2.61081 cumulative IPC: 2.61224 (Simulation time: 0 hr 32 min 24 sec) 
Heartbeat CPU 0 instructions: 40000003 cycles: 15312230 heartbeat IPC: 2.6133 cumulative IPC: 2.61229 (Simulation time: 0 hr 34 min 0 sec) 
Heartbeat CPU 0 instructions: 42000000 cycles: 16077538 heartbeat IPC: 2.61332 cumulative IPC: 2.61234 (Simulation time: 0 hr 35 min 38 sec) 
Heartbeat CPU 0 instructions: 44000001 cycles: 16843583 heartbeat IPC: 2.61081 cumulative IPC: 2.61227 (Simulation time: 0 hr 37 min 17 sec) 
Heartbeat CPU 0 instructions: 46000001 cycles: 17608893 heartbeat IPC: 2.61332 cumulative IPC: 2.61232 (Simulation time: 0 hr 38 min 56 sec) 
Heartbeat CPU 0 instructions: 48000001 cycles: 18374940 heartbeat IPC: 2.61081 cumulative IPC: 2.61225 (Simulation time: 0 hr 40 min 29 sec) 
Heartbeat CPU 0 instructions: 50000004 cycles: 19140255 heartbeat IPC: 2.61331 cumulative IPC: 2.6123 (Simulation time: 0 hr 42 min 2 sec) 

Warmup complete CPU 0 instructions: 50000004 cycles: 19140255 (Simulation time: 0 hr 42 min 2 sec) 

Heartbeat CPU 0 instructions: 52000004 cycles: 21765212 heartbeat IPC: 0.761917 cumulative IPC: 0.761917 (Simulation time: 0 hr 45 min 21 sec) 

Region of Interest Statistics
cpu0_DTLB TOTAL     ACCESS:     547206  HIT:     546420  MISS:        786
cpu0_DTLB LOAD      ACCESS:     483892  HIT:     483110  MISS:        782
cpu0_DTLB RFO       ACCESS:      63314  HIT:      63310  MISS:          4
cpu0_DTLB PREFETCH  ACCESS:          0  HIT:          0  MISS:          0
cpu0_DTLB WRITEBACK ACCESS:          0  HIT:          0  MISS:          0
cpu0_ITLB TOTAL     ACCESS:       3110  HIT:       3110  MISS:          0
cpu0_ITLB LOAD      ACCESS:       3110  HIT:       3110  MISS:          0
cpu0_ITLB RFO       ACCESS:          0  HIT:          0  MISS:          0
cpu0_ITLB PREFETCH  ACCESS:          0  HIT:          0  MISS:          0
cpu0_ITLB WRITEBACK ACCESS:          0  HIT:          0  MISS:          0
cpu0_STLB TOTAL     ACCESS:        786  HIT:        131  MISS:        655
cpu0_STLB LOAD      ACCESS:        782  HIT:        131  MISS:        651
cpu0_STLB RFO       ACCESS:          4  HIT:          0  MISS:          4
cpu0_STLB PREFETCH  ACCESS:          0  HIT:          0  MISS:          0
cpu0_STLB WRITEBACK ACCESS:          0  HIT:          0  MISS:          0
cpu0_L1D TOTAL     ACCESS:     473259  HIT:     447080  MISS:      26179
cpu0_L1D LOAD      ACCESS:     405642  HIT:     379897  MISS:      25745
cpu0_L1D RFO       ACCESS:      66963  HIT:      66702  MISS:        261
cpu0_L1D PREFETCH  ACCESS:          0  HIT:          0  MISS:          0
cpu0_L1D WRITEBACK ACCESS:          0  HIT:          0  MISS:          0
cpu0_L2C TOTAL     ACCESS:      26603  HIT:        217  MISS:      26386
cpu0_L2C LOAD      ACCESS:      25744  HIT:        181  MISS:      25563
cpu0_L2C RFO       ACCESS:        261  HIT:          0  MISS:        261
cpu0_L2C PREFETCH  ACCESS:          0  HIT:          0  MISS:          0
cpu0_L2C WRITEBACK ACCESS:        425  HIT:         36  MISS:        389
LLC TOTAL     ACCESS:      26378  HIT:       4839  MISS:      21539
LLC LOAD      ACCESS:      25563  HIT:       4284  MISS:      21279
LLC RFO       ACCESS:        261  HIT:          2  MISS:        259
LLC PREFETCH  ACCESS:          0  HIT:          0  MISS:          0
LLC WRITEBACK ACCESS:        381  HIT:        380  MISS:          1
Heartbeat CPU 0 instructions: 54000003 cycles: 24382305 heartbeat IPC: 0.764206 cumulative IPC: 0.76306 (Simulation time: 0 hr 48 min 38 sec) 

Region of Interest Statistics
cpu0_DTLB TOTAL     ACCESS:    1095328  HIT:    1093755  MISS:       1573
cpu0_DTLB LOAD      ACCESS:     968764  HIT:     967197  MISS:       1567
cpu0_DTLB RFO       ACCESS:     126564  HIT:     126558  MISS:          6
cpu0_DTLB PREFETCH  ACCESS:          0  HIT:          0  MISS:          0
cpu0_DTLB WRITEBACK ACCESS:          0  HIT:          0  MISS:          0
cpu0_ITLB TOTAL     ACCESS:       6171  HIT:       6171  MISS:          0
cpu0_ITLB LOAD      ACCESS:       6171  HIT:       6171  MISS:          0
cpu0_ITLB RFO       ACCESS:          0  HIT:          0  MISS:          0
cpu0_ITLB PREFETCH  ACCESS:          0  HIT:          0  MISS:          0
cpu0_ITLB WRITEBACK ACCESS:          0  HIT:          0  MISS:          0
cpu0_STLB TOTAL     ACCESS:       1573  HIT:        265  MISS:       1308
cpu0_STLB LOAD      ACCESS:       1567  HIT:        265  MISS:       1302
cpu0_STLB RFO       ACCESS:          6  HIT:          0  MISS:          6
cpu0_STLB PREFETCH  ACCESS:          0  HIT:          0  MISS:          0
cpu0_STLB WRITEBACK ACCESS:          0  HIT:          0  MISS:          0
cpu0_L1D TOTAL     ACCESS:     947741  HIT:     895571  MISS:      52170
cpu0_L1D LOAD      ACCESS:     812474  HIT:     761039  MISS:      51435
cpu0_L1D RFO       ACCESS:     133960  HIT:     133568  MISS:        392
cpu0_L1D PREFETCH  ACCESS:          0  HIT:          0  MISS:          0
cpu0_L1D WRITEBACK ACCESS:          0  HIT:          0  MISS:          0
cpu0_L2C TOTAL     ACCESS:      52897  HIT:        428  MISS:      52469
cpu0_L2C LOAD      ACCESS:      51433  HIT:        367  MISS:      51066
cpu0_L2C RFO       ACCESS:        392  HIT:          0  MISS:        392
cpu0_L2C PREFETCH  ACCESS:          0  HIT:          0  MISS:          0
cpu0_L2C WRITEBACK ACCESS:        729  HIT:         61  MISS:        668
LLC TOTAL     ACCESS:      52471  HIT:       9601  MISS:      42870
LLC LOAD      ACCESS:      51066  HIT:       8586  MISS:      42480
LLC RFO       ACCESS:        392  HIT:          3  MISS:        389
LLC PREFETCH  ACCESS:          0  HIT:          0  MISS:          0
LLC WRITEBACK ACCESS:        670  HIT:        669  MISS:          1
Heartbeat CPU 0 instructions: 56000000 cycles: 27008247 heartbeat IPC: 0.76163 cumulative IPC: 0.762583 (Simulation time: 0 hr 51 min 55 sec) 

Region of Interest Statistics
cpu0_DTLB TOTAL     ACCESS:    1642614  HIT:    1640244  MISS:       2370
cpu0_DTLB LOAD      ACCESS:    1452729  HIT:    1450369  MISS:       2360
cpu0_DTLB RFO       ACCESS:     189885  HIT:     189875  MISS:         10
cpu0_DTLB PREFETCH  ACCESS:          0  HIT:          0  MISS:          0
cpu0_DTLB WRITEBACK ACCESS:          0  HIT:          0  MISS:          0
cpu0_ITLB TOTAL     ACCESS:       9310  HIT:       9310  MISS:          0
cpu0_ITLB LOAD      ACCESS:       9310  HIT:       9310  MISS:          0
cpu0_ITLB RFO       ACCESS:          0  HIT:          0  MISS:          0
cpu0_ITLB PREFETCH  ACCESS:          0  HIT:          0  MISS:          0
cpu0_ITLB WRITEBACK ACCESS:          0  HIT:          0  MISS:          0
cpu0_STLB TOTAL     ACCESS:       2370  HIT:        397  MISS:       1973
cpu0_STLB LOAD      ACCESS:       2360  HIT:        397  MISS:       1963
cpu0_STLB RFO       ACCESS:         10  HIT:          0  MISS:         10
cpu0_STLB PREFETCH  ACCESS:          0  HIT:          0  MISS:          0
cpu0_STLB WRITEBACK ACCESS:          0  HIT:          0  MISS:          0
cpu0_L1D TOTAL     ACCESS:    1421075  HIT:    1342719  MISS:      78356
cpu0_L1D LOAD      ACCESS:    1218174  HIT:    1140989  MISS:      77185
cpu0_L1D RFO       ACCESS:     200930  HIT:     200279  MISS:        651
cpu0_L1D PREFETCH  ACCESS:          0  HIT:          0  MISS:          0
cpu0_L1D WRITEBACK ACCESS:          0  HIT:          0  MISS:          0
cpu0_L2C TOTAL     ACCESS:      79501  HIT:        631  MISS:      78870
cpu0_L2C LOAD      ACCESS:      77183  HIT:        541  MISS:      76642
cpu0_L2C RFO       ACCESS:        651  HIT:          0  MISS:        651
cpu0_L2C PREFETCH  ACCESS:          0  HIT:          0  MISS:          0
cpu0_L2C WRITEBACK ACCESS:       1147  HIT:         90  MISS:       1057
LLC TOTAL     ACCESS:      78876  HIT:      14463  MISS:      64413
LLC LOAD      ACCESS:      76642  HIT:      12877  MISS:      63765
LLC RFO       ACCESS:        651  HIT:          5  MISS:        646
LLC PREFETCH  ACCESS:          0  HIT:          0  MISS:          0
LLC WRITEBACK ACCESS:       1063  HIT:       1061  MISS:          2
Heartbeat CPU 0 instructions: 58000003 cycles: 29627013 heartbeat IPC: 0.76372 cumulative IPC: 0.762867 (Simulation time: 0 hr 55 min 21 sec) 

Region of Interest Statistics
cpu0_DTLB TOTAL     ACCESS:    2190740  HIT:    2187584  MISS:       3156
cpu0_DTLB LOAD      ACCESS:    1937579  HIT:    1934435  MISS:       3144
cpu0_DTLB RFO       ACCESS:     253161  HIT:     253149  MISS:         12
cpu0_DTLB PREFETCH  ACCESS:          0  HIT:          0  MISS:          0
cpu0_DTLB WRITEBACK ACCESS:          0  HIT:          0  MISS:          0
cpu0_ITLB TOTAL     ACCESS:      12364  HIT:      12364  MISS:          0
cpu0_ITLB LOAD      ACCESS:      12364  HIT:      12364  MISS:          0
cpu0_ITLB RFO       ACCESS:          0  HIT:          0  MISS:          0
cpu0_ITLB PREFETCH  ACCESS:          0  HIT:          0  MISS:          0
cpu0_ITLB WRITEBACK ACCESS:          0  HIT:          0  MISS:          0
cpu0_STLB TOTAL     ACCESS:       3156  HIT:        529  MISS:       2627
cpu0_STLB LOAD      ACCESS:       3144  HIT:        529  MISS:       2615
cpu0_STLB RFO       ACCESS:         12  HIT:          0  MISS:         12
cpu0_STLB PREFETCH  ACCESS:          0  HIT:          0  MISS:          0
cpu0_STLB WRITEBACK ACCESS:          0  HIT:          0  MISS:          0
cpu0_L1D TOTAL     ACCESS:    1895670  HIT:    1791335  MISS:     104335
cpu0_L1D LOAD      ACCESS:    1625118  HIT:    1522254  MISS:     102864
cpu0_L1D RFO       ACCESS:     267927  HIT:     267145  MISS:        782
cpu0_L1D PREFETCH  ACCESS:          0  HIT:          0  MISS:          0
cpu0_L1D WRITEBACK ACCESS:          0  HIT:          0  MISS:          0
cpu0_L2C TOTAL     ACCESS:     105769  HIT:        835  MISS:     104934
cpu0_L2C LOAD      ACCESS:     102862  HIT:        717  MISS:     102145
cpu0_L2C RFO       ACCESS:        782  HIT:          0  MISS:        782
cpu0_L2C PREFETCH  ACCESS:          0  HIT:          0  MISS:          0
cpu0_L2C WRITEBACK ACCESS:       1436  HIT:        118  MISS:       1318
LLC TOTAL     ACCESS:     104937  HIT:      19188  MISS:      85749
LLC LOAD      ACCESS:     102145  HIT:      17175  MISS:      84970
LLC RFO       ACCESS:        782  HIT:          6  MISS:        776
LLC PREFETCH  ACCESS:          0  HIT:          0  MISS:          0
LLC WRITEBACK ACCESS:       1321  HIT:       1318  MISS:          3
Heartbeat CPU 0 instructions: 60000004 cycles: 32251385 heartbeat IPC: 0.762087 cumulative IPC: 0.762711 (Simulation time: 0 hr 58 min 36 sec) 

Region of Interest Statistics
cpu0_DTLB TOTAL     ACCESS:    2738001  HIT:    2734054  MISS:       3947
cpu0_DTLB LOAD      ACCESS:    2421490  HIT:    2417559  MISS:       3931
cpu0_DTLB RFO       ACCESS:     316511  HIT:     316495  MISS:         16
cpu0_DTLB PREFETCH  ACCESS:          0  HIT:          0  MISS:          0
cpu0_DTLB WRITEBACK ACCESS:          0  HIT:          0  MISS:          0
cpu0_ITLB TOTAL     ACCESS:      15511  HIT:      15511  MISS:          0
cpu0_ITLB LOAD      ACCESS:      15511  HIT:      15511  MISS:          0
cpu0_ITLB RFO       ACCESS:          0  HIT:          0  MISS:          0
cpu0_ITLB PREFETCH  ACCESS:          0  HIT:          0  MISS:          0
cpu0_ITLB WRITEBACK ACCESS:          0  HIT:          0  MISS:          0
cpu0_STLB TOTAL     ACCESS:       3947  HIT:        661  MISS:       3286
cpu0_STLB LOAD      ACCESS:       3931  HIT:        661  MISS:       3270
cpu0_STLB RFO       ACCESS:         16  HIT:          0  MISS:         16
cpu0_STLB PREFETCH  ACCESS:          0  HIT:          0  MISS:          0
cpu0_STLB WRITEBACK ACCESS:          0  HIT:          0  MISS:          0
cpu0_L1D TOTAL     ACCESS:    2369060  HIT:    2238551  MISS:     130509
cpu0_L1D LOAD      ACCESS:    2030879  HIT:    1902279  MISS:     128600
cpu0_L1D RFO       ACCESS:     334898  HIT:     333856  MISS:       1042
cpu0_L1D PREFETCH  ACCESS:          0  HIT:          0  MISS:          0
cpu0_L1D WRITEBACK ACCESS:          0  HIT:          0  MISS:          0
cpu0_L2C TOTAL     ACCESS:     132361  HIT:       1041  MISS:     131320
cpu0_L2C LOAD      ACCESS:     128598  HIT:        891  MISS:     127707
cpu0_L2C RFO       ACCESS:       1042  HIT:          0  MISS:       1042
cpu0_L2C PREFETCH  ACCESS:          0  HIT:          0  MISS:          0
cpu0_L2C WRITEBACK ACCESS:       1854  HIT:        149  MISS:       1705
LLC TOTAL     ACCESS:     131329  HIT:      24045  MISS:     107284
LLC LOAD      ACCESS:     127707  HIT:      21460  MISS:     106247
LLC RFO       ACCESS:       1042  HIT:          8  MISS:       1034
LLC PREFETCH  ACCESS:          0  HIT:          0  MISS:          0
LLC WRITEBACK ACCESS:       1714  HIT:       1711  MISS:          3
Heartbeat CPU 0 instructions: 62000000 cycles: 34875917 heartbeat IPC: 0.762039 cumulative IPC: 0.762599 (Simulation time: 1 hr 1 min 50 sec) 

Region of Interest Statistics
cpu0_DTLB TOTAL     ACCESS:    3285302  HIT:    3280571  MISS:       4731
cpu0_DTLB LOAD      ACCESS:    2905472  HIT:    2900761  MISS:       4711
cpu0_DTLB RFO       ACCESS:     379830  HIT:     379810  MISS:         20
cpu0_DTLB PREFETCH  ACCESS:          0  HIT:          0  MISS:          0
cpu0_DTLB WRITEBACK ACCESS:          0  HIT:          0  MISS:          0
cpu0_ITLB TOTAL     ACCESS:      18611  HIT:      18611  MISS:          0
cpu0_ITLB LOAD      ACCESS:      18611  HIT:      18611  MISS:          0
cpu0_ITLB RFO       ACCESS:          0  HIT:          0  MISS:          0
cpu0_ITLB PREFETCH  ACCESS:          0  HIT:          0  MISS:          0
cpu0_ITLB WRITEBACK ACCESS:          0  HIT:          0  MISS:          0
cpu0_STLB TOTAL     ACCESS:       4731  HIT:        790  MISS:       3941
cpu0_STLB LOAD      ACCESS:       4711  HIT:        790  MISS:       3921
cpu0_STLB RFO       ACCESS:         20  HIT:          0  MISS:         20
cpu0_STLB PREFETCH  ACCESS:          0  HIT:          0  MISS:          0
cpu0_STLB WRITEBACK ACCESS:          0  HIT:          0  MISS:          0
cpu0_L1D TOTAL     ACCESS:    2842451  HIT:    2685767  MISS:     156684
cpu0_L1D LOAD      ACCESS:    2436652  HIT:    2282311  MISS:     154341
cpu0_L1D RFO       ACCESS:     401861  HIT:     400558  MISS:       1303
cpu0_L1D PREFETCH  ACCESS:          0  HIT:          0  MISS:          0
cpu0_L1D WRITEBACK ACCESS:          0  HIT:          0  MISS:          0
cpu0_L2C TOTAL     ACCESS:     158953  HIT:       1245  MISS:     157708
cpu0_L2C LOAD      ACCESS:     154338  HIT:       1064  MISS:     153274
cpu0_L2C RFO       ACCESS:       1303  HIT:          0  MISS:       1303
cpu0_L2C PREFETCH  ACCESS:          0  HIT:          0  MISS:          0
cpu0_L2C WRITEBACK ACCESS:       2272  HIT:        180  MISS:       2092
LLC TOTAL     ACCESS:     157720  HIT:      28897  MISS:     128823
LLC LOAD      ACCESS:     153274  HIT:      25748  MISS:     127526
LLC RFO       ACCESS:       1303  HIT:         10  MISS:       1293
LLC PREFETCH  ACCESS:          0  HIT:          0  MISS:          0
LLC WRITEBACK ACCESS:       2104  HIT:       2100  MISS:          4
Heartbeat CPU 0 instructions: 64000003 cycles: 37493728 heartbeat IPC: 0.763998 cumulative IPC: 0.762798 (Simulation time: 1 hr 5 min 6 sec) 

Region of Interest Statistics
cpu0_DTLB TOTAL     ACCESS:    3833499  HIT:    3827980  MISS:       5519
cpu0_DTLB LOAD      ACCESS:    3390376  HIT:    3384879  MISS:       5497
cpu0_DTLB RFO       ACCESS:     443123  HIT:     443101  MISS:         22
cpu0_DTLB PREFETCH  ACCESS:          0  HIT:          0  MISS:          0
cpu0_DTLB WRITEBACK ACCESS:          0  HIT:          0  MISS:          0
cpu0_ITLB TOTAL     ACCESS:      21672  HIT:      21672  MISS:          0
cpu0_ITLB LOAD      ACCESS:      21672  HIT:      21672  MISS:          0
cpu0_ITLB RFO       ACCESS:          0  HIT:          0  MISS:          0
cpu0_ITLB PREFETCH  ACCESS:          0  HIT:          0  MISS:          0
cpu0_ITLB WRITEBACK ACCESS:          0  HIT:          0  MISS:          0
cpu0_STLB TOTAL     ACCESS:       5519  HIT:        922  MISS:       4597
cpu0_STLB LOAD      ACCESS:       5497  HIT:        922  MISS:       4575
cpu0_STLB RFO       ACCESS:         22  HIT:          0  MISS:         22
cpu0_STLB PREFETCH  ACCESS:          0  HIT:          0  MISS:          0
cpu0_STLB WRITEBACK ACCESS:          0  HIT:          0  MISS:          0
cpu0_L1D TOTAL     ACCESS:    3317045  HIT:    3134370  MISS:     182675
cpu0_L1D LOAD      ACCESS:    2843594  HIT:    2663563  MISS:     180031
cpu0_L1D RFO       ACCESS:     468858  HIT:     467424  MISS:       1434
cpu0_L1D PREFETCH  ACCESS:          0  HIT:          0  MISS:          0
cpu0_L1D WRITEBACK ACCESS:          0  HIT:          0  MISS:          0
cpu0_L2C TOTAL     ACCESS:     185247  HIT:       1472  MISS:     183775
cpu0_L2C LOAD      ACCESS:     180028  HIT:       1254  MISS:     178774
cpu0_L2C RFO       ACCESS:       1434  HIT:          0  MISS:       1434
cpu0_L2C PREFETCH  ACCESS:          0  HIT:          0  MISS:          0
cpu0_L2C WRITEBACK ACCESS:       2575  HIT:        217  MISS:       2358
LLC TOTAL     ACCESS:     183787  HIT:      33633  MISS:     150154
LLC LOAD      ACCESS:     178774  HIT:      30047  MISS:     148727
LLC RFO       ACCESS:       1434  HIT:         11  MISS:       1423
LLC PREFETCH  ACCESS:          0  HIT:          0  MISS:          0
LLC WRITEBACK ACCESS:       2370  HIT:       2366  MISS:          4
Heartbeat CPU 0 instructions: 66000004 cycles: 40118440 heartbeat IPC: 0.761989 cumulative IPC: 0.762697 (Simulation time: 1 hr 8 min 17 sec) 

Region of Interest Statistics
cpu0_DTLB TOTAL     ACCESS:    4380705  HIT:    4374391  MISS:       6314
cpu0_DTLB LOAD      ACCESS:    3874268  HIT:    3867980  MISS:       6288
cpu0_DTLB RFO       ACCESS:     506437  HIT:     506411  MISS:         26
cpu0_DTLB PREFETCH  ACCESS:          0  HIT:          0  MISS:          0
cpu0_DTLB WRITEBACK ACCESS:          0  HIT:          0  MISS:          0
cpu0_ITLB TOTAL     ACCESS:      24814  HIT:      24814  MISS:          0
cpu0_ITLB LOAD      ACCESS:      24814  HIT:      24814  MISS:          0
cpu0_ITLB RFO       ACCESS:          0  HIT:          0  MISS:          0
cpu0_ITLB PREFETCH  ACCESS:          0  HIT:          0  MISS:          0
cpu0_ITLB WRITEBACK ACCESS:          0  HIT:          0  MISS:          0
cpu0_STLB TOTAL     ACCESS:       6314  HIT:       1055  MISS:       5259
cpu0_STLB LOAD      ACCESS:       6288  HIT:       1055  MISS:       5233
cpu0_STLB RFO       ACCESS:         26  HIT:          0  MISS:         26
cpu0_STLB PREFETCH  ACCESS:          0  HIT:          0  MISS:          0
cpu0_STLB WRITEBACK ACCESS:          0  HIT:          0  MISS:          0
cpu0_L1D TOTAL     ACCESS:    3790247  HIT:    3581377  MISS:     208870
cpu0_L1D LOAD      ACCESS:    3249165  HIT:    3043376  MISS:     205789
cpu0_L1D RFO       ACCESS:     535828  HIT:     534135  MISS:       1693
cpu0_L1D PREFETCH  ACCESS:          0  HIT:          0  MISS:          0
cpu0_L1D WRITEBACK ACCESS:          0  HIT:          0  MISS:          0
cpu0_L2C TOTAL     ACCESS:     211870  HIT:       1692  MISS:     210178
cpu0_L2C LOAD      ACCESS:     205786  HIT:       1436  MISS:     204350
cpu0_L2C RFO       ACCESS:       1693  HIT:          0  MISS:       1693
cpu0_L2C PREFETCH  ACCESS:          0  HIT:          0  MISS:          0
cpu0_L2C WRITEBACK ACCESS:       3003  HIT:        255  MISS:       2748
LLC TOTAL     ACCESS:     210196  HIT:      38503  MISS:     171693
LLC LOAD      ACCESS:     204350  HIT:      34343  MISS:     170007
LLC RFO       ACCESS:       1693  HIT:         13  MISS:       1680
LLC PREFETCH  ACCESS:          0  HIT:          0  MISS:          0
LLC WRITEBACK ACCESS:       2766  HIT:       2761  MISS:          5
Heartbeat CPU 0 instructions: 68000000 cycles: 42742393 heartbeat IPC: 0.762207 cumulative IPC: 0.762643 (Simulation time: 1 hr 11 min 29 sec) 

Region of Interest Statistics
cpu0_DTLB TOTAL     ACCESS:    4927873  HIT:    4920777  MISS:       7096
cpu0_DTLB LOAD      ACCESS:    4358120  HIT:    4351054  MISS:       7066
cpu0_DTLB RFO       ACCESS:     569753  HIT:     569723  MISS:         30
cpu0_DTLB PREFETCH  ACCESS:          0  HIT:          0  MISS:          0
cpu0_DTLB WRITEBACK ACCESS:          0  HIT:          0  MISS:          0
cpu0_ITLB TOTAL     ACCESS:      27917  HIT:      27917  MISS:          0
cpu0_ITLB LOAD      ACCESS:      27917  HIT:      27917  MISS:          0
cpu0_ITLB RFO       ACCESS:          0  HIT:          0  MISS:          0
cpu0_ITLB PREFETCH  ACCESS:          0  HIT:          0  MISS:          0
cpu0_ITLB WRITEBACK ACCESS:          0  HIT:          0  MISS:          0
cpu0_STLB TOTAL     ACCESS:       7096  HIT:       1185  MISS:       5911
cpu0_STLB LOAD      ACCESS:       7066  HIT:       1185  MISS:       5881
cpu0_STLB RFO       ACCESS:         30  HIT:          0  MISS:         30
cpu0_STLB PREFETCH  ACCESS:          0  HIT:          0  MISS:          0
cpu0_STLB WRITEBACK ACCESS:          0  HIT:          0  MISS:          0
cpu0_L1D TOTAL     ACCESS:    4263555  HIT:    4028495  MISS:     235060
cpu0_L1D LOAD      ACCESS:    3654856  HIT:    3423312  MISS:     231544
cpu0_L1D RFO       ACCESS:     602793  HIT:     600838  MISS:       1955
cpu0_L1D PREFETCH  ACCESS:          0  HIT:          0  MISS:          0
cpu0_L1D WRITEBACK ACCESS:          0  HIT:          0  MISS:          0
cpu0_L2C TOTAL     ACCESS:     238490  HIT:       1927  MISS:     236563
cpu0_L2C LOAD      ACCESS:     231540  HIT:       1624  MISS:     229916
cpu0_L2C RFO       ACCESS:       1955  HIT:          0  MISS:       1955
cpu0_L2C PREFETCH  ACCESS:          0  HIT:          0  MISS:          0
cpu0_L2C WRITEBACK ACCESS:       3434  HIT:        302  MISS:       3132
LLC TOTAL     ACCESS:     236470  HIT:      43237  MISS:     193233
LLC LOAD      ACCESS:     229916  HIT:      38629  MISS:     191287
LLC RFO       ACCESS:       1955  HIT:         15  MISS:       1940
LLC PREFETCH  ACCESS:          0  HIT:          0  MISS:          0
LLC WRITEBACK ACCESS:       3039  HIT:       3034  MISS:          5
Heartbeat CPU 0 instructions: 70000003 cycles: 45360981 heartbeat IPC: 0.763772 cumulative IPC: 0.762755 (Simulation time: 1 hr 14 min 41 sec) 

Region of Interest Statistics
cpu0_DTLB TOTAL     ACCESS:    5475994  HIT:    5468104  MISS:       7890
cpu0_DTLB LOAD      ACCESS:    4843002  HIT:    4835144  MISS:       7858
cpu0_DTLB RFO       ACCESS:     632992  HIT:     632960  MISS:         32
cpu0_DTLB PREFETCH  ACCESS:          0  HIT:          0  MISS:          0
cpu0_DTLB WRITEBACK ACCESS:          0  HIT:          0  MISS:          0
cpu0_ITLB TOTAL     ACCESS:      30978  HIT:      30978  MISS:          0
cpu0_ITLB LOAD      ACCESS:      30978  HIT:      30978  MISS:          0
cpu0_ITLB RFO       ACCESS:          0  HIT:          0  MISS:          0
cpu0_ITLB PREFETCH  ACCESS:          0  HIT:          0  MISS:          0
cpu0_ITLB WRITEBACK ACCESS:          0  HIT:          0  MISS:          0
cpu0_STLB TOTAL     ACCESS:       7890  HIT:       1321  MISS:       6569
cpu0_STLB LOAD      ACCESS:       7858  HIT:       1321  MISS:       6537
cpu0_STLB RFO       ACCESS:         32  HIT:          0  MISS:         32
cpu0_STLB PREFETCH  ACCESS:          0  HIT:          0  MISS:          0
cpu0_STLB WRITEBACK ACCESS:          0  HIT:          0  MISS:          0
cpu0_L1D TOTAL     ACCESS:    4738123  HIT:    4477101  MISS:     261022
cpu0_L1D LOAD      ACCESS:    4061769  HIT:    3804564  MISS:     257205
cpu0_L1D RFO       ACCESS:     669791  HIT:     667707  MISS:       2084
cpu0_L1D PREFETCH  ACCESS:          0  HIT:          0  MISS:          0
cpu0_L1D WRITEBACK ACCESS:          0  HIT:          0  MISS:          0
cpu0_L2C TOTAL     ACCESS:     264738  HIT:       2126  MISS:     262612
cpu0_L2C LOAD      ACCESS:     257201  HIT:       1790  MISS:     255411
cpu0_L2C RFO       ACCESS:       2084  HIT:          0  MISS:       2084
cpu0_L2C PREFETCH  ACCESS:          0  HIT:          0  MISS:          0
cpu0_L2C WRITEBACK ACCESS:       3720  HIT:        335  MISS:       3385
LLC TOTAL     ACCESS:     262640  HIT:      48076  MISS:     214564
LLC LOAD      ACCESS:     255411  HIT:      42923  MISS:     212488
LLC RFO       ACCESS:       2084  HIT:         16  MISS:       2068
LLC PREFETCH  ACCESS:          0  HIT:          0  MISS:          0
LLC WRITEBACK ACCESS:       3413  HIT:       3407  MISS:          6
Heartbeat CPU 0 instructions: 72000000 cycles: 47986653 heartbeat IPC: 0.761709 cumulative IPC: 0.76266 (Simulation time: 1 hr 17 min 54 sec) 

Region of Interest Statistics
cpu0_DTLB TOTAL     ACCESS:    6023152  HIT:    6014465  MISS:       8687
cpu0_DTLB LOAD      ACCESS:    5326869  HIT:    5318218  MISS:       8651
cpu0_DTLB RFO       ACCESS:     696283  HIT:     696247  MISS:         36
cpu0_DTLB PREFETCH  ACCESS:          0  HIT:          0  MISS:          0
cpu0_DTLB WRITEBACK ACCESS:          0  HIT:          0  MISS:          0
cpu0_ITLB TOTAL     ACCESS:      34120  HIT:      34120  MISS:          0
cpu0_ITLB LOAD      ACCESS:      34120  HIT:      34120  MISS:          0
cpu0_ITLB RFO       ACCESS:          0  HIT:          0  MISS:          0
cpu0_ITLB PREFETCH  ACCESS:          0  HIT:          0  MISS:          0
cpu0_ITLB WRITEBACK ACCESS:          0  HIT:          0  MISS:          0
cpu0_STLB TOTAL     ACCESS:       8687  HIT:       1455  MISS:       7232
cpu0_STLB LOAD      ACCESS:       8651  HIT:       1455  MISS:       7196
cpu0_STLB RFO       ACCESS:         36  HIT:          0  MISS:         36
cpu0_STLB PREFETCH  ACCESS:          0  HIT:          0  MISS:          0
cpu0_STLB WRITEBACK ACCESS:          0  HIT:          0  MISS:          0
cpu0_L1D TOTAL     ACCESS:    5211445  HIT:    4924234  MISS:     287211
cpu0_L1D LOAD      ACCESS:    4467460  HIT:    4184504  MISS:     282956
cpu0_L1D RFO       ACCESS:     736759  HIT:     734414  MISS:       2345
cpu0_L1D PREFETCH  ACCESS:          0  HIT:          0  MISS:          0
cpu0_L1D WRITEBACK ACCESS:          0  HIT:          0  MISS:          0
cpu0_L2C TOTAL     ACCESS:     291354  HIT:       2353  MISS:     289001
cpu0_L2C LOAD      ACCESS:     282951  HIT:       1969  MISS:     280982
cpu0_L2C RFO       ACCESS:       2345  HIT:          0  MISS:       2345
cpu0_L2C PREFETCH  ACCESS:          0  HIT:          0  MISS:          0
cpu0_L2C WRITEBACK ACCESS:       4148  HIT:        383  MISS:       3765
LLC TOTAL     ACCESS:     289028  HIT:      52923  MISS:     236105
LLC LOAD      ACCESS:     280982  HIT:      47212  MISS:     233770
LLC RFO       ACCESS:       2345  HIT:         18  MISS:       2327
LLC PREFETCH  ACCESS:          0  HIT:          0  MISS:          0
LLC WRITEBACK ACCESS:       3792  HIT:       3786  MISS:          6
Heartbeat CPU 0 instructions: 74000002 cycles: 50605231 heartbeat IPC: 0.763774 cumulative IPC: 0.762753 (Simulation time: 1 hr 21 min 7 sec) 

Region of Interest Statistics
cpu0_DTLB TOTAL     ACCESS:    6571316  HIT:    6561836  MISS:       9480
cpu0_DTLB LOAD      ACCESS:    5811794  HIT:    5802352  MISS:       9442
cpu0_DTLB RFO       ACCESS:     759522  HIT:     759484  MISS:         38
cpu0_DTLB PREFETCH  ACCESS:          0  HIT:          0  MISS:          0
cpu0_DTLB WRITEBACK ACCESS:          0  HIT:          0  MISS:          0
cpu0_ITLB TOTAL     ACCESS:      37177  HIT:      37177  MISS:          0
cpu0_ITLB LOAD      ACCESS:      37177  HIT:      37177  MISS:          0
cpu0_ITLB RFO       ACCESS:          0  HIT:          0  MISS:          0
cpu0_ITLB PREFETCH  ACCESS:          0  HIT:          0  MISS:          0
cpu0_ITLB WRITEBACK ACCESS:          0  HIT:          0  MISS:          0
cpu0_STLB TOTAL     ACCESS:       9480  HIT:       1592  MISS:       7888
cpu0_STLB LOAD      ACCESS:       9442  HIT:       1592  MISS:       7850
cpu0_STLB RFO       ACCESS:         38  HIT:          0  MISS:         38
cpu0_STLB PREFETCH  ACCESS:          0  HIT:          0  MISS:          0
cpu0_STLB WRITEBACK ACCESS:          0  HIT:          0  MISS:          0
cpu0_L1D TOTAL     ACCESS:    5685996  HIT:    5372812  MISS:     313184
cpu0_L1D LOAD      ACCESS:    4874359  HIT:    4565730  MISS:     308629
cpu0_L1D RFO       ACCESS:     803756  HIT:     801280  MISS:       2476
cpu0_L1D PREFETCH  ACCESS:          0  HIT:          0  MISS:          0
cpu0_L1D WRITEBACK ACCESS:          0  HIT:          0  MISS:          0
cpu0_L2C TOTAL     ACCESS:     317624  HIT:       2563  MISS:     315061
cpu0_L2C LOAD      ACCESS:     308623  HIT:       2145  MISS:     306478
cpu0_L2C RFO       ACCESS:       2476  HIT:          0  MISS:       2476
cpu0_L2C PREFETCH  ACCESS:          0  HIT:          0  MISS:          0
cpu0_L2C WRITEBACK ACCESS:       4446  HIT:        417  MISS:       4029
LLC TOTAL     ACCESS:     315087  HIT:      57647  MISS:     257440
LLC LOAD      ACCESS:     306478  HIT:      51504  MISS:     254974
LLC RFO       ACCESS:       2476  HIT:         19  MISS:       2457
LLC PREFETCH  ACCESS:          0  HIT:          0  MISS:          0
LLC WRITEBACK ACCESS:       4055  HIT:       4048  MISS:          7
Heartbeat CPU 0 instructions: 76000000 cycles: 53228808 heartbeat IPC: 0.762317 cumulative IPC: 0.762719 (Simulation time: 1 hr 24 min 20 sec) 

Region of Interest Statistics
cpu0_DTLB TOTAL     ACCESS:    7118550  HIT:    7108281  MISS:      10269
cpu0_DTLB LOAD      ACCESS:    6295732  HIT:    6285505  MISS:      10227
cpu0_DTLB RFO       ACCESS:     822818  HIT:     822776  MISS:         42
cpu0_DTLB PREFETCH  ACCESS:          0  HIT:          0  MISS:          0
cpu0_DTLB WRITEBACK ACCESS:          0  HIT:          0  MISS:          0
cpu0_ITLB TOTAL     ACCESS:      40282  HIT:      40282  MISS:          0
cpu0_ITLB LOAD      ACCESS:      40282  HIT:      40282  MISS:          0
cpu0_ITLB RFO       ACCESS:          0  HIT:          0  MISS:          0
cpu0_ITLB PREFETCH  ACCESS:          0  HIT:          0  MISS:          0
cpu0_ITLB WRITEBACK ACCESS:          0  HIT:          0  MISS:          0
cpu0_STLB TOTAL     ACCESS:      10269  HIT:       1727  MISS:       8542
cpu0_STLB LOAD      ACCESS:      10227  HIT:       1727  MISS:       8500
cpu0_STLB RFO       ACCESS:         42  HIT:          0  MISS:         42
cpu0_STLB PREFETCH  ACCESS:          0  HIT:          0  MISS:          0
cpu0_STLB WRITEBACK ACCESS:          0  HIT:          0  MISS:          0
cpu0_L1D TOTAL     ACCESS:    6159253  HIT:    5819877  MISS:     339376
cpu0_L1D LOAD      ACCESS:    5279998  HIT:    4945610  MISS:     334388
cpu0_L1D RFO       ACCESS:     870720  HIT:     867985  MISS:       2735
cpu0_L1D PREFETCH  ACCESS:          0  HIT:          0  MISS:          0
cpu0_L1D WRITEBACK ACCESS:          0  HIT:          0  MISS:          0
cpu0_L2C TOTAL     ACCESS:     344246  HIT:       2794  MISS:     341452
cpu0_L2C LOAD      ACCESS:     334381  HIT:       2335  MISS:     332046
cpu0_L2C RFO       ACCESS:       2735  HIT:          0  MISS:       2735
cpu0_L2C PREFETCH  ACCESS:          0  HIT:          0  MISS:          0
cpu0_L2C WRITEBACK ACCESS:       4877  HIT:        458  MISS:       4419
LLC TOTAL     ACCESS:     341485  HIT:      62510  MISS:     278975
LLC LOAD      ACCESS:     332047  HIT:      55796  MISS:     276251
LLC RFO       ACCESS:       2735  HIT:         21  MISS:       2714
LLC PREFETCH  ACCESS:          0  HIT:          0  MISS:          0
LLC WRITEBACK ACCESS:       4451  HIT:       4443  MISS:          8
Heartbeat CPU 0 instructions: 78000004 cycles: 55852847 heartbeat IPC: 0.762185 cumulative IPC: 0.762681 (Simulation time: 1 hr 27 min 32 sec) 

Region of Interest Statistics
cpu0_DTLB TOTAL     ACCESS:    7665739  HIT:    7654675  MISS:      11064
cpu0_DTLB LOAD      ACCESS:    6779644  HIT:    6768627  MISS:      11017
cpu0_DTLB RFO       ACCESS:     886095  HIT:     886048  MISS:         47
cpu0_DTLB PREFETCH  ACCESS:          0  HIT:          0  MISS:          0
cpu0_DTLB WRITEBACK ACCESS:          0  HIT:          0  MISS:          0
cpu0_ITLB TOTAL     ACCESS:      43421  HIT:      43421  MISS:          0
cpu0_ITLB LOAD      ACCESS:      43421  HIT:      43421  MISS:          0
cpu0_ITLB RFO       ACCESS:          0  HIT:          0  MISS:          0
cpu0_ITLB PREFETCH  ACCESS:          0  HIT:          0  MISS:          0
cpu0_ITLB WRITEBACK ACCESS:          0  HIT:          0  MISS:          0
cpu0_STLB TOTAL     ACCESS:      11064  HIT:       1862  MISS:       9202
cpu0_STLB LOAD      ACCESS:      11017  HIT:       1862  MISS:       9155
cpu0_STLB RFO       ACCESS:         47  HIT:          0  MISS:         47
cpu0_STLB PREFETCH  ACCESS:          0  HIT:          0  MISS:          0
cpu0_STLB WRITEBACK ACCESS:          0  HIT:          0  MISS:          0
cpu0_L1D TOTAL     ACCESS:    6632658  HIT:    6267107  MISS:     365551
cpu0_L1D LOAD      ACCESS:    5685774  HIT:    5325649  MISS:     360125
cpu0_L1D RFO       ACCESS:     937690  HIT:     934693  MISS:       2997
cpu0_L1D PREFETCH  ACCESS:          0  HIT:          0  MISS:          0
cpu0_L1D WRITEBACK ACCESS:          0  HIT:          0  MISS:          0
cpu0_L2C TOTAL     ACCESS:     370836  HIT:       2979  MISS:     367857
cpu0_L2C LOAD      ACCESS:     360118  HIT:       2498  MISS:     357620
cpu0_L2C RFO       ACCESS:       2997  HIT:          0  MISS:       2997
cpu0_L2C PREFETCH  ACCESS:          0  HIT:          0  MISS:          0
cpu0_L2C WRITEBACK ACCESS:       5292  HIT:        480  MISS:       4812
LLC TOTAL     ACCESS:     367890  HIT:      67372  MISS:     300518
LLC LOAD      ACCESS:     357620  HIT:      60086  MISS:     297534
LLC RFO       ACCESS:       2997  HIT:         23  MISS:       2974
LLC PREFETCH  ACCESS:          0  HIT:          0  MISS:          0
LLC WRITEBACK ACCESS:       4845  HIT:       4837  MISS:          8
Heartbeat CPU 0 instructions: 80000002 cycles: 58470983 heartbeat IPC: 0.763901 cumulative IPC: 0.762762 (Simulation time: 1 hr 30 min 48 sec) 

Region of Interest Statistics
cpu0_DTLB TOTAL     ACCESS:    8213916  HIT:    8202065  MISS:      11851
cpu0_DTLB LOAD      ACCESS:    7264528  HIT:    7252726  MISS:      11802
cpu0_DTLB RFO       ACCESS:     949388  HIT:     949339  MISS:         49
cpu0_DTLB PREFETCH  ACCESS:          0  HIT:          0  MISS:          0
cpu0_DTLB WRITEBACK ACCESS:          0  HIT:          0  MISS:          0
cpu0_ITLB TOTAL     ACCESS:      46483  HIT:      46483  MISS:          0
cpu0_ITLB LOAD      ACCESS:      46483  HIT:      46483  MISS:          0
cpu0_ITLB RFO       ACCESS:          0  HIT:          0  MISS:          0
cpu0_ITLB PREFETCH  ACCESS:          0  HIT:          0  MISS:          0
cpu0_ITLB WRITEBACK ACCESS:          0  HIT:          0  MISS:          0
cpu0_STLB TOTAL     ACCESS:      11851  HIT:       1992  MISS:       9859
cpu0_STLB LOAD      ACCESS:      11802  HIT:       1992  MISS:       9810
cpu0_STLB RFO       ACCESS:         49  HIT:          0  MISS:         49
cpu0_STLB PREFETCH  ACCESS:          0  HIT:          0  MISS:          0
cpu0_STLB WRITEBACK ACCESS:          0  HIT:          0  MISS:          0
cpu0_L1D TOTAL     ACCESS:    7107203  HIT:    6715659  MISS:     391544
cpu0_L1D LOAD      ACCESS:    6092664  HIT:    5706846  MISS:     385818
cpu0_L1D RFO       ACCESS:    1004688  HIT:    1001562  MISS:       3126
cpu0_L1D PREFETCH  ACCESS:          0  HIT:          0  MISS:          0
cpu0_L1D WRITEBACK ACCESS:          0  HIT:          0  MISS:          0
cpu0_L2C TOTAL     ACCESS:     397132  HIT:       3198  MISS:     393934
cpu0_L2C LOAD      ACCESS:     385811  HIT:       2686  MISS:     383125
cpu0_L2C RFO       ACCESS:       3126  HIT:          0  MISS:       3126
cpu0_L2C PREFETCH  ACCESS:          0  HIT:          0  MISS:          0
cpu0_L2C WRITEBACK ACCESS:       5595  HIT:        511  MISS:       5084
LLC TOTAL     ACCESS:     393975  HIT:      72126  MISS:     321849
LLC LOAD      ACCESS:     383125  HIT:      64390  MISS:     318735
LLC RFO       ACCESS:       3126  HIT:         24  MISS:       3102
LLC PREFETCH  ACCESS:          0  HIT:          0  MISS:          0
LLC WRITEBACK ACCESS:       5125  HIT:       5116  MISS:          9
Heartbeat CPU 0 instructions: 82000000 cycles: 61096183 heartbeat IPC: 0.761846 cumulative IPC: 0.762705 (Simulation time: 1 hr 34 min 0 sec) 

Region of Interest Statistics
cpu0_DTLB TOTAL     ACCESS:    8761030  HIT:    8748390  MISS:      12640
cpu0_DTLB LOAD      ACCESS:    7748374  HIT:    7735787  MISS:      12587
cpu0_DTLB RFO       ACCESS:    1012656  HIT:    1012603  MISS:         53
cpu0_DTLB PREFETCH  ACCESS:          0  HIT:          0  MISS:          0
cpu0_DTLB WRITEBACK ACCESS:          0  HIT:          0  MISS:          0
cpu0_ITLB TOTAL     ACCESS:      49628  HIT:      49628  MISS:          0
cpu0_ITLB LOAD      ACCESS:      49628  HIT:      49628  MISS:          0
cpu0_ITLB RFO       ACCESS:          0  HIT:          0  MISS:          0
cpu0_ITLB PREFETCH  ACCESS:          0  HIT:          0  MISS:          0
cpu0_ITLB WRITEBACK ACCESS:          0  HIT:          0  MISS:          0
cpu0_STLB TOTAL     ACCESS:      12640  HIT:       2121  MISS:      10519
cpu0_STLB LOAD      ACCESS:      12587  HIT:       2121  MISS:      10466
cpu0_STLB RFO       ACCESS:         53  HIT:          0  MISS:         53
cpu0_STLB PREFETCH  ACCESS:          0  HIT:          0  MISS:          0
cpu0_STLB WRITEBACK ACCESS:          0  HIT:          0  MISS:          0
cpu0_L1D TOTAL     ACCESS:    7580420  HIT:    7162665  MISS:     417755
cpu0_L1D LOAD      ACCESS:    6498253  HIT:    6086662  MISS:     411591
cpu0_L1D RFO       ACCESS:    1071657  HIT:    1068270  MISS:       3387
cpu0_L1D PREFETCH  ACCESS:          0  HIT:          0  MISS:          0
cpu0_L1D WRITEBACK ACCESS:          0  HIT:          0  MISS:          0
cpu0_L2C TOTAL     ACCESS:     423781  HIT:       3439  MISS:     420342
cpu0_L2C LOAD      ACCESS:     411583  HIT:       2888  MISS:     408695
cpu0_L2C RFO       ACCESS:       3387  HIT:          0  MISS:       3387
cpu0_L2C PREFETCH  ACCESS:          0  HIT:          0  MISS:          0
cpu0_L2C WRITEBACK ACCESS:       6034  HIT:        550  MISS:       5484
LLC TOTAL     ACCESS:     420374  HIT:      76986  MISS:     343388
LLC LOAD      ACCESS:     408695  HIT:      68680  MISS:     340015
LLC RFO       ACCESS:       3387  HIT:         26  MISS:       3361
LLC PREFETCH  ACCESS:          0  HIT:          0  MISS:          0
LLC WRITEBACK ACCESS:       5516  HIT:       5507  MISS:          9
Heartbeat CPU 0 instructions: 84000004 cycles: 63713872 heartbeat IPC: 0.764034 cumulative IPC: 0.762783 (Simulation time: 1 hr 37 min 13 sec) 

Region of Interest Statistics
cpu0_DTLB TOTAL     ACCESS:    9309085  HIT:    9295660  MISS:      13425
cpu0_DTLB LOAD      ACCESS:    8233182  HIT:    8219812  MISS:      13370
cpu0_DTLB RFO       ACCESS:    1075903  HIT:    1075848  MISS:         55
cpu0_DTLB PREFETCH  ACCESS:          0  HIT:          0  MISS:          0
cpu0_DTLB WRITEBACK ACCESS:          0  HIT:          0  MISS:          0
cpu0_ITLB TOTAL     ACCESS:      52642  HIT:      52642  MISS:          0
cpu0_ITLB LOAD      ACCESS:      52642  HIT:      52642  MISS:          0
cpu0_ITLB RFO       ACCESS:          0  HIT:          0  MISS:          0
cpu0_ITLB PREFETCH  ACCESS:          0  HIT:          0  MISS:          0
cpu0_ITLB WRITEBACK ACCESS:          0  HIT:          0  MISS:          0
cpu0_STLB TOTAL     ACCESS:      13425  HIT:       2255  MISS:      11170
cpu0_STLB LOAD      ACCESS:      13370  HIT:       2255  MISS:      11115
cpu0_STLB RFO       ACCESS:         55  HIT:          0  MISS:         55
cpu0_STLB PREFETCH  ACCESS:          0  HIT:          0  MISS:          0
cpu0_STLB WRITEBACK ACCESS:          0  HIT:          0  MISS:          0
cpu0_L1D TOTAL     ACCESS:    8054837  HIT:    7611115  MISS:     443722
cpu0_L1D LOAD      ACCESS:    6905027  HIT:    6467767  MISS:     437260
cpu0_L1D RFO       ACCESS:    1138649  HIT:    1135131  MISS:       3518
cpu0_L1D PREFETCH  ACCESS:          0  HIT:          0  MISS:          0
cpu0_L1D WRITEBACK ACCESS:          0  HIT:          0  MISS:          0
cpu0_L2C TOTAL     ACCESS:     450039  HIT:       3635  MISS:     446404
cpu0_L2C LOAD      ACCESS:     437252  HIT:       3061  MISS:     434191
cpu0_L2C RFO       ACCESS:       3518  HIT:          0  MISS:       3518
cpu0_L2C PREFETCH  ACCESS:          0  HIT:          0  MISS:          0
cpu0_L2C WRITEBACK ACCESS:       6325  HIT:        573  MISS:       5752
LLC TOTAL     ACCESS:     446441  HIT:      81722  MISS:     364719
LLC LOAD      ACCESS:     434191  HIT:      72976  MISS:     361215
LLC RFO       ACCESS:       3518  HIT:         27  MISS:       3491
LLC PREFETCH  ACCESS:          0  HIT:          0  MISS:          0
LLC WRITEBACK ACCESS:       5789  HIT:       5779  MISS:         10
Heartbeat CPU 0 instructions: 86000002 cycles: 66339013 heartbeat IPC: 0.761863 cumulative IPC: 0.762732 (Simulation time: 1 hr 40 min 26 sec) 

Region of Interest Statistics
cpu0_DTLB TOTAL     ACCESS:    9856284  HIT:    9842050  MISS:      14234
cpu0_DTLB LOAD      ACCESS:    8717094  HIT:    8702919  MISS:      14175
cpu0_DTLB RFO       ACCESS:    1139190  HIT:    1139131  MISS:         59
cpu0_DTLB PREFETCH  ACCESS:          0  HIT:          0  MISS:          0
cpu0_DTLB WRITEBACK ACCESS:          0  HIT:          0  MISS:          0
cpu0_ITLB TOTAL     ACCESS:      55783  HIT:      55783  MISS:          0
cpu0_ITLB LOAD      ACCESS:      55783  HIT:      55783  MISS:          0
cpu0_ITLB RFO       ACCESS:          0  HIT:          0  MISS:          0
cpu0_ITLB PREFETCH  ACCESS:          0  HIT:          0  MISS:          0
cpu0_ITLB WRITEBACK ACCESS:          0  HIT:          0  MISS:          0
cpu0_STLB TOTAL     ACCESS:      14234  HIT:       2400  MISS:      11834
cpu0_STLB LOAD      ACCESS:      14175  HIT:       2400  MISS:      11775
cpu0_STLB RFO       ACCESS:         59  HIT:          0  MISS:         59
cpu0_STLB PREFETCH  ACCESS:          0  HIT:          0  MISS:          0
cpu0_STLB WRITEBACK ACCESS:          0  HIT:          0  MISS:          0
cpu0_L1D TOTAL     ACCESS:    8528198  HIT:    8058273  MISS:     469925
cpu0_L1D LOAD      ACCESS:    7310759  HIT:    6847732  MISS:     463027
cpu0_L1D RFO       ACCESS:    1205615  HIT:    1201838  MISS:       3777
cpu0_L1D PREFETCH  ACCESS:          0  HIT:          0  MISS:          0
cpu0_L1D WRITEBACK ACCESS:          0  HIT:          0  MISS:          0
cpu0_L2C TOTAL     ACCESS:     476681  HIT:       3877  MISS:     472804
cpu0_L2C LOAD      ACCESS:     463018  HIT:       3260  MISS:     459758
cpu0_L2C RFO       ACCESS:       3777  HIT:          0  MISS:       3777
cpu0_L2C PREFETCH  ACCESS:          0  HIT:          0  MISS:          0
cpu0_L2C WRITEBACK ACCESS:       6765  HIT:        616  MISS:       6149
LLC TOTAL     ACCESS:     472846  HIT:      86588  MISS:     386258
LLC LOAD      ACCESS:     459758  HIT:      77262  MISS:     382496
LLC RFO       ACCESS:       3777  HIT:         29  MISS:       3748
LLC PREFETCH  ACCESS:          0  HIT:          0  MISS:          0
LLC WRITEBACK ACCESS:       6191  HIT:       6180  MISS:         11
Heartbeat CPU 0 instructions: 88000004 cycles: 68963303 heartbeat IPC: 0.762112 cumulative IPC: 0.762699 (Simulation time: 1 hr 43 min 39 sec) 

Region of Interest Statistics
cpu0_DTLB TOTAL     ACCESS:   10403467  HIT:   10388439  MISS:      15028
cpu0_DTLB LOAD      ACCESS:    9200976  HIT:    9186011  MISS:      14965
cpu0_DTLB RFO       ACCESS:    1202491  HIT:    1202428  MISS:         63
cpu0_DTLB PREFETCH  ACCESS:          0  HIT:          0  MISS:          0
cpu0_DTLB WRITEBACK ACCESS:          0  HIT:          0  MISS:          0
cpu0_ITLB TOTAL     ACCESS:      58931  HIT:      58931  MISS:          0
cpu0_ITLB LOAD      ACCESS:      58931  HIT:      58931  MISS:          0
cpu0_ITLB RFO       ACCESS:          0  HIT:          0  MISS:          0
cpu0_ITLB PREFETCH  ACCESS:          0  HIT:          0  MISS:          0
cpu0_ITLB WRITEBACK ACCESS:          0  HIT:          0  MISS:          0
cpu0_STLB TOTAL     ACCESS:      15028  HIT:       2536  MISS:      12492
cpu0_STLB LOAD      ACCESS:      14965  HIT:       2536  MISS:      12429
cpu0_STLB RFO       ACCESS:         63  HIT:          0  MISS:         63
cpu0_STLB PREFETCH  ACCESS:          0  HIT:          0  MISS:          0
cpu0_STLB WRITEBACK ACCESS:          0  HIT:          0  MISS:          0
cpu0_L1D TOTAL     ACCESS:    9001525  HIT:    8505389  MISS:     496136
cpu0_L1D LOAD      ACCESS:    7716458  HIT:    7227661  MISS:     488797
cpu0_L1D RFO       ACCESS:    1272585  HIT:    1268546  MISS:       4039
cpu0_L1D PREFETCH  ACCESS:          0  HIT:          0  MISS:          0
cpu0_L1D WRITEBACK ACCESS:          0  HIT:          0  MISS:          0
cpu0_L2C TOTAL     ACCESS:     503328  HIT:       4112  MISS:     499216
cpu0_L2C LOAD      ACCESS:     488788  HIT:       3451  MISS:     485337
cpu0_L2C RFO       ACCESS:       4039  HIT:          0  MISS:       4039
cpu0_L2C PREFETCH  ACCESS:          0  HIT:          0  MISS:          0
cpu0_L2C WRITEBACK ACCESS:       7201  HIT:        660  MISS:       6541
LLC TOTAL     ACCESS:     499266  HIT:      91463  MISS:     407803
LLC LOAD      ACCESS:     485337  HIT:      81558  MISS:     403779
LLC RFO       ACCESS:       4039  HIT:         31  MISS:       4008
LLC PREFETCH  ACCESS:          0  HIT:          0  MISS:          0
LLC WRITEBACK ACCESS:       6591  HIT:       6580  MISS:         11
Heartbeat CPU 0 instructions: 90000004 cycles: 71580475 heartbeat IPC: 0.764184 cumulative IPC: 0.762773 (Simulation time: 1 hr 46 min 57 sec) 

Region of Interest Statistics
cpu0_DTLB TOTAL     ACCESS:   10951634  HIT:   10935804  MISS:      15830
cpu0_DTLB LOAD      ACCESS:    9685872  HIT:    9670107  MISS:      15765
cpu0_DTLB RFO       ACCESS:    1265762  HIT:    1265697  MISS:         65
cpu0_DTLB PREFETCH  ACCESS:          0  HIT:          0  MISS:          0
cpu0_DTLB WRITEBACK ACCESS:          0  HIT:          0  MISS:          0
cpu0_ITLB TOTAL     ACCESS:      61993  HIT:      61993  MISS:          0
cpu0_ITLB LOAD      ACCESS:      61993  HIT:      61993  MISS:          0
cpu0_ITLB RFO       ACCESS:          0  HIT:          0  MISS:          0
cpu0_ITLB PREFETCH  ACCESS:          0  HIT:          0  MISS:          0
cpu0_ITLB WRITEBACK ACCESS:          0  HIT:          0  MISS:          0
cpu0_STLB TOTAL     ACCESS:      15830  HIT:       2681  MISS:      13149
cpu0_STLB LOAD      ACCESS:      15765  HIT:       2681  MISS:      13084
cpu0_STLB RFO       ACCESS:         65  HIT:          0  MISS:         65
cpu0_STLB PREFETCH  ACCESS:          0  HIT:          0  MISS:          0
cpu0_STLB WRITEBACK ACCESS:          0  HIT:          0  MISS:          0
cpu0_L1D TOTAL     ACCESS:    9475916  HIT:    8953799  MISS:     522117
cpu0_L1D LOAD      ACCESS:    8123196  HIT:    7608719  MISS:     514477
cpu0_L1D RFO       ACCESS:    1339582  HIT:    1335414  MISS:       4168
cpu0_L1D PREFETCH  ACCESS:          0  HIT:          0  MISS:          0
cpu0_L1D WRITEBACK ACCESS:          0  HIT:          0  MISS:          0
cpu0_L2C TOTAL     ACCESS:     529611  HIT:       4331  MISS:     525280
cpu0_L2C LOAD      ACCESS:     514467  HIT:       3634  MISS:     510833
cpu0_L2C RFO       ACCESS:       4168  HIT:          0  MISS:       4168
cpu0_L2C PREFETCH  ACCESS:          0  HIT:          0  MISS:          0
cpu0_L2C WRITEBACK ACCESS:       7504  HIT:        696  MISS:       6808
LLC TOTAL     ACCESS:     525332  HIT:      96197  MISS:     429135
LLC LOAD      ACCESS:     510833  HIT:      85851  MISS:     424982
LLC RFO       ACCESS:       4168  HIT:         32  MISS:       4136
LLC PREFETCH  ACCESS:          0  HIT:          0  MISS:          0
LLC WRITEBACK ACCESS:       6860  HIT:       6848  MISS:         12
Heartbeat CPU 0 instructions: 92000002 cycles: 74204383 heartbeat IPC: 0.762221 cumulative IPC: 0.762747 (Simulation time: 1 hr 50 min 11 sec) 

Region of Interest Statistics
cpu0_DTLB TOTAL     ACCESS:   11498776  HIT:   11482150  MISS:      16626
cpu0_DTLB LOAD      ACCESS:   10169694  HIT:   10153137  MISS:      16557
cpu0_DTLB RFO       ACCESS:    1329082  HIT:    1329013  MISS:         69
cpu0_DTLB PREFETCH  ACCESS:          0  HIT:          0  MISS:          0
cpu0_DTLB WRITEBACK ACCESS:          0  HIT:          0  MISS:          0
cpu0_ITLB TOTAL     ACCESS:      65094  HIT:      65094  MISS:          0
cpu0_ITLB LOAD      ACCESS:      65094  HIT:      65094  MISS:          0
cpu0_ITLB RFO       ACCESS:          0  HIT:          0  MISS:          0
cpu0_ITLB PREFETCH  ACCESS:          0  HIT:          0  MISS:          0
cpu0_ITLB WRITEBACK ACCESS:          0  HIT:          0  MISS:          0
cpu0_STLB TOTAL     ACCESS:      16626  HIT:       2822  MISS:      13804
cpu0_STLB LOAD      ACCESS:      16557  HIT:       2822  MISS:      13735
cpu0_STLB RFO       ACCESS:         69  HIT:          0  MISS:         69
cpu0_STLB PREFETCH  ACCESS:          0  HIT:          0  MISS:          0
cpu0_STLB WRITEBACK ACCESS:          0  HIT:          0  MISS:          0
cpu0_L1D TOTAL     ACCESS:    9949198  HIT:    9400891  MISS:     548307
cpu0_L1D LOAD      ACCESS:    8528860  HIT:    7988630  MISS:     540230
cpu0_L1D RFO       ACCESS:    1406545  HIT:    1402116  MISS:       4429
cpu0_L1D PREFETCH  ACCESS:          0  HIT:          0  MISS:          0
cpu0_L1D WRITEBACK ACCESS:          0  HIT:          0  MISS:          0
cpu0_L2C TOTAL     ACCESS:     556232  HIT:       4563  MISS:     551669
cpu0_L2C LOAD      ACCESS:     540220  HIT:       3827  MISS:     536393
cpu0_L2C RFO       ACCESS:       4429  HIT:          0  MISS:       4429
cpu0_L2C PREFETCH  ACCESS:          0  HIT:          0  MISS:          0
cpu0_L2C WRITEBACK ACCESS:       7935  HIT:        735  MISS:       7200
LLC TOTAL     ACCESS:     551714  HIT:     101045  MISS:     450669
LLC LOAD      ACCESS:     536393  HIT:      90136  MISS:     446257
LLC RFO       ACCESS:       4429  HIT:         34  MISS:       4395
LLC PREFETCH  ACCESS:          0  HIT:          0  MISS:          0
LLC WRITEBACK ACCESS:       7245  HIT:       7233  MISS:         12
Heartbeat CPU 0 instructions: 94000000 cycles: 76829073 heartbeat IPC: 0.761994 cumulative IPC: 0.762713 (Simulation time: 1 hr 53 min 24 sec) 

Region of Interest Statistics
cpu0_DTLB TOTAL     ACCESS:   12046037  HIT:   12028615  MISS:      17422
cpu0_DTLB LOAD      ACCESS:   10653580  HIT:   10636231  MISS:      17349
cpu0_DTLB RFO       ACCESS:    1392457  HIT:    1392384  MISS:         73
cpu0_DTLB PREFETCH  ACCESS:          0  HIT:          0  MISS:          0
cpu0_DTLB WRITEBACK ACCESS:          0  HIT:          0  MISS:          0
cpu0_ITLB TOTAL     ACCESS:      68239  HIT:      68239  MISS:          0
cpu0_ITLB LOAD      ACCESS:      68239  HIT:      68239  MISS:          0
cpu0_ITLB RFO       ACCESS:          0  HIT:          0  MISS:          0
cpu0_ITLB PREFETCH  ACCESS:          0  HIT:          0  MISS:          0
cpu0_ITLB WRITEBACK ACCESS:          0  HIT:          0  MISS:          0
cpu0_STLB TOTAL     ACCESS:      17422  HIT:       2957  MISS:      14465
cpu0_STLB LOAD      ACCESS:      17349  HIT:       2957  MISS:      14392
cpu0_STLB RFO       ACCESS:         73  HIT:          0  MISS:         73
cpu0_STLB PREFETCH  ACCESS:          0  HIT:          0  MISS:          0
cpu0_STLB WRITEBACK ACCESS:          0  HIT:          0  MISS:          0
cpu0_L1D TOTAL     ACCESS:   10422653  HIT:    9848165  MISS:     574488
cpu0_L1D LOAD      ACCESS:    8934683  HIT:    8368710  MISS:     565973
cpu0_L1D RFO       ACCESS:    1473517  HIT:    1468828  MISS:       4689
cpu0_L1D PREFETCH  ACCESS:          0  HIT:          0  MISS:          0
cpu0_L1D WRITEBACK ACCESS:          0  HIT:          0  MISS:          0
cpu0_L2C TOTAL     ACCESS:     582830  HIT:       4768  MISS:     578062
cpu0_L2C LOAD      ACCESS:     565963  HIT:       4001  MISS:     561962
cpu0_L2C RFO       ACCESS:       4689  HIT:          0  MISS:       4689
cpu0_L2C PREFETCH  ACCESS:          0  HIT:          0  MISS:          0
cpu0_L2C WRITEBACK ACCESS:       8352  HIT:        766  MISS:       7586
LLC TOTAL     ACCESS:     578092  HIT:     105882  MISS:     472210
LLC LOAD      ACCESS:     561962  HIT:      94423  MISS:     467539
LLC RFO       ACCESS:       4689  HIT:         36  MISS:       4653
LLC PREFETCH  ACCESS:          0  HIT:          0  MISS:          0
LLC WRITEBACK ACCESS:       7616  HIT:       7603  MISS:         13
Heartbeat CPU 0 instructions: 96000004 cycles: 79448541 heartbeat IPC: 0.763515 cumulative IPC: 0.762748 (Simulation time: 1 hr 56 min 41 sec) 

Region of Interest Statistics
cpu0_DTLB TOTAL     ACCESS:   12594167  HIT:   12575935  MISS:      18232
cpu0_DTLB LOAD      ACCESS:   11138453  HIT:   11120296  MISS:      18157
cpu0_DTLB RFO       ACCESS:    1455714  HIT:    1455639  MISS:         75
cpu0_DTLB PREFETCH  ACCESS:          0  HIT:          0  MISS:          0
cpu0_DTLB WRITEBACK ACCESS:          0  HIT:          0  MISS:          0
cpu0_ITLB TOTAL     ACCESS:      71299  HIT:      71299  MISS:          0
cpu0_ITLB LOAD      ACCESS:      71299  HIT:      71299  MISS:          0
cpu0_ITLB RFO       ACCESS:          0  HIT:          0  MISS:          0
cpu0_ITLB PREFETCH  ACCESS:          0  HIT:          0  MISS:          0
cpu0_ITLB WRITEBACK ACCESS:          0  HIT:          0  MISS:          0
cpu0_STLB TOTAL     ACCESS:      18232  HIT:       3110  MISS:      15122
cpu0_STLB LOAD      ACCESS:      18157  HIT:       3110  MISS:      15047
cpu0_STLB RFO       ACCESS:         75  HIT:          0  MISS:         75
cpu0_STLB PREFETCH  ACCESS:          0  HIT:          0  MISS:          0
cpu0_STLB WRITEBACK ACCESS:          0  HIT:          0  MISS:          0
cpu0_L1D TOTAL     ACCESS:   10897103  HIT:   10296619  MISS:     600484
cpu0_L1D LOAD      ACCESS:    9341481  HIT:    8749814  MISS:     591667
cpu0_L1D RFO       ACCESS:    1540513  HIT:    1535694  MISS:       4819
cpu0_L1D PREFETCH  ACCESS:          0  HIT:          0  MISS:          0
cpu0_L1D WRITEBACK ACCESS:          0  HIT:          0  MISS:          0
cpu0_L2C TOTAL     ACCESS:     609128  HIT:       4993  MISS:     604135
cpu0_L2C LOAD      ACCESS:     591657  HIT:       4191  MISS:     587466
cpu0_L2C RFO       ACCESS:       4819  HIT:          0  MISS:       4819
cpu0_L2C PREFETCH  ACCESS:          0  HIT:          0  MISS:          0
cpu0_L2C WRITEBACK ACCESS:       8654  HIT:        801  MISS:       7853
LLC TOTAL     ACCESS:     604199  HIT:     110655  MISS:     493544
LLC LOAD      ACCESS:     587466  HIT:      98723  MISS:     488743
LLC RFO       ACCESS:       4819  HIT:         37  MISS:       4782
LLC PREFETCH  ACCESS:          0  HIT:          0  MISS:          0
LLC WRITEBACK ACCESS:       7917  HIT:       7904  MISS:         13
Heartbeat CPU 0 instructions: 98000003 cycles: 82071244 heartbeat IPC: 0.762572 cumulative IPC: 0.76274 (Simulation time: 1 hr 59 min 57 sec) 

Region of Interest Statistics
cpu0_DTLB TOTAL     ACCESS:   13141314  HIT:   13122280  MISS:      19034
cpu0_DTLB LOAD      ACCESS:   11622297  HIT:   11603343  MISS:      18954
cpu0_DTLB RFO       ACCESS:    1519017  HIT:    1518937  MISS:         80
cpu0_DTLB PREFETCH  ACCESS:          0  HIT:          0  MISS:          0
cpu0_DTLB WRITEBACK ACCESS:          0  HIT:          0  MISS:          0
cpu0_ITLB TOTAL     ACCESS:      74393  HIT:      74393  MISS:          0
cpu0_ITLB LOAD      ACCESS:      74393  HIT:      74393  MISS:          0
cpu0_ITLB RFO       ACCESS:          0  HIT:          0  MISS:          0
cpu0_ITLB PREFETCH  ACCESS:          0  HIT:          0  MISS:          0
cpu0_ITLB WRITEBACK ACCESS:          0  HIT:          0  MISS:          0
cpu0_STLB TOTAL     ACCESS:      19034  HIT:       3260  MISS:      15774
cpu0_STLB LOAD      ACCESS:      18954  HIT:       3259  MISS:      15695
cpu0_STLB RFO       ACCESS:         80  HIT:          1  MISS:         79
cpu0_STLB PREFETCH  ACCESS:          0  HIT:          0  MISS:          0
cpu0_STLB WRITEBACK ACCESS:          0  HIT:          0  MISS:          0
cpu0_L1D TOTAL     ACCESS:   11370300  HIT:   10743627  MISS:     626673
cpu0_L1D LOAD      ACCESS:    9747061  HIT:    9129643  MISS:     617418
cpu0_L1D RFO       ACCESS:    1607478  HIT:    1602397  MISS:       5081
cpu0_L1D PREFETCH  ACCESS:          0  HIT:          0  MISS:          0
cpu0_L1D WRITEBACK ACCESS:          0  HIT:          0  MISS:          0
cpu0_L2C TOTAL     ACCESS:     635744  HIT:       5215  MISS:     630529
cpu0_L2C LOAD      ACCESS:     617408  HIT:       4379  MISS:     613029
cpu0_L2C RFO       ACCESS:       5081  HIT:          0  MISS:       5081
cpu0_L2C PREFETCH  ACCESS:          0  HIT:          0  MISS:          0
cpu0_L2C WRITEBACK ACCESS:       9081  HIT:        835  MISS:       8246
LLC TOTAL     ACCESS:     630597  HIT:     115520  MISS:     515077
LLC LOAD      ACCESS:     613029  HIT:     103013  MISS:     510016
LLC RFO       ACCESS:       5081  HIT:         39  MISS:       5042
LLC PREFETCH  ACCESS:          0  HIT:          0  MISS:          0
LLC WRITEBACK ACCESS:       8314  HIT:       8301  MISS:         13
Heartbeat CPU 0 instructions: 100000001 cycles: 84690268 heartbeat IPC: 0.763642 cumulative IPC: 0.762776 (Simulation time: 2 hr 3 min 15 sec) 

Region of Interest Statistics
cpu0_DTLB TOTAL     ACCESS:   13689441  HIT:   13669615  MISS:      19826
cpu0_DTLB LOAD      ACCESS:   12107178  HIT:   12087434  MISS:      19744
cpu0_DTLB RFO       ACCESS:    1582263  HIT:    1582181  MISS:         82
cpu0_DTLB PREFETCH  ACCESS:          0  HIT:          0  MISS:          0
cpu0_DTLB WRITEBACK ACCESS:          0  HIT:          0  MISS:          0
cpu0_ITLB TOTAL     ACCESS:      77450  HIT:      77450  MISS:          0
cpu0_ITLB LOAD      ACCESS:      77450  HIT:      77450  MISS:          0
cpu0_ITLB RFO       ACCESS:          0  HIT:          0  MISS:          0
cpu0_ITLB PREFETCH  ACCESS:          0  HIT:          0  MISS:          0
cpu0_ITLB WRITEBACK ACCESS:          0  HIT:          0  MISS:          0
cpu0_STLB TOTAL     ACCESS:      19826  HIT:       3395  MISS:      16431
cpu0_STLB LOAD      ACCESS:      19744  HIT:       3394  MISS:      16350
cpu0_STLB RFO       ACCESS:         82  HIT:          1  MISS:         81
cpu0_STLB PREFETCH  ACCESS:          0  HIT:          0  MISS:          0
cpu0_STLB WRITEBACK ACCESS:          0  HIT:          0  MISS:          0
cpu0_L1D TOTAL     ACCESS:   11844836  HIT:   11192181  MISS:     652655
cpu0_L1D LOAD      ACCESS:   10153944  HIT:    9510845  MISS:     643099
cpu0_L1D RFO       ACCESS:    1674475  HIT:    1669265  MISS:       5210
cpu0_L1D PREFETCH  ACCESS:          0  HIT:          0  MISS:          0
cpu0_L1D WRITEBACK ACCESS:          0  HIT:          0  MISS:          0
cpu0_L2C TOTAL     ACCESS:     662013  HIT:       5416  MISS:     656597
cpu0_L2C LOAD      ACCESS:     643089  HIT:       4553  MISS:     638536
cpu0_L2C RFO       ACCESS:       5210  HIT:          0  MISS:       5210
cpu0_L2C PREFETCH  ACCESS:          0  HIT:          0  MISS:          0
cpu0_L2C WRITEBACK ACCESS:       9368  HIT:        862  MISS:       8506
LLC TOTAL     ACCESS:     656668  HIT:     120255  MISS:     536413
LLC LOAD      ACCESS:     638536  HIT:     107312  MISS:     531224
LLC RFO       ACCESS:       5210  HIT:         40  MISS:       5170
LLC PREFETCH  ACCESS:          0  HIT:          0  MISS:          0
LLC WRITEBACK ACCESS:       8577  HIT:       8564  MISS:         13
Heartbeat CPU 0 instructions: 102000004 cycles: 87316051 heartbeat IPC: 0.761679 cumulative IPC: 0.762734 (Simulation time: 2 hr 6 min 29 sec) 

Region of Interest Statistics
cpu0_DTLB TOTAL     ACCESS:   14236562  HIT:   14215940  MISS:      20622
cpu0_DTLB LOAD      ACCESS:   12590996  HIT:   12570460  MISS:      20536
cpu0_DTLB RFO       ACCESS:    1645566  HIT:    1645480  MISS:         86
cpu0_DTLB PREFETCH  ACCESS:          0  HIT:          0  MISS:          0
cpu0_DTLB WRITEBACK ACCESS:          0  HIT:          0  MISS:          0
cpu0_ITLB TOTAL     ACCESS:      80590  HIT:      80590  MISS:          0
cpu0_ITLB LOAD      ACCESS:      80590  HIT:      80590  MISS:          0
cpu0_ITLB RFO       ACCESS:          0  HIT:          0  MISS:          0
cpu0_ITLB PREFETCH  ACCESS:          0  HIT:          0  MISS:          0
cpu0_ITLB WRITEBACK ACCESS:          0  HIT:          0  MISS:          0
cpu0_STLB TOTAL     ACCESS:      20622  HIT:       3528  MISS:      17094
cpu0_STLB LOAD      ACCESS:      20536  HIT:       3527  MISS:      17009
cpu0_STLB RFO       ACCESS:         86  HIT:          1  MISS:         85
cpu0_STLB PREFETCH  ACCESS:          0  HIT:          0  MISS:          0
cpu0_STLB WRITEBACK ACCESS:          0  HIT:          0  MISS:          0
cpu0_L1D TOTAL     ACCESS:   12318166  HIT:   11639310  MISS:     678856
cpu0_L1D LOAD      ACCESS:   10559643  HIT:    9890782  MISS:     668861
cpu0_L1D RFO       ACCESS:    1741443  HIT:    1735972  MISS:       5471
cpu0_L1D PREFETCH  ACCESS:          0  HIT:          0  MISS:          0
cpu0_L1D WRITEBACK ACCESS:          0  HIT:          0  MISS:          0
cpu0_L2C TOTAL     ACCESS:     688639  HIT:       5632  MISS:     683007
cpu0_L2C LOAD      ACCESS:     668850  HIT:       4736  MISS:     664114
cpu0_L2C RFO       ACCESS:       5471  HIT:          0  MISS:       5471
cpu0_L2C PREFETCH  ACCESS:          0  HIT:          0  MISS:          0
cpu0_L2C WRITEBACK ACCESS:       9794  HIT:        895  MISS:       8899
LLC TOTAL     ACCESS:     683086  HIT:     125133  MISS:     557953
LLC LOAD      ACCESS:     664114  HIT:     111610  MISS:     552504
LLC RFO       ACCESS:       5471  HIT:         42  MISS:       5429
LLC PREFETCH  ACCESS:          0  HIT:          0  MISS:          0
LLC WRITEBACK ACCESS:       8978  HIT:       8964  MISS:         14
Heartbeat CPU 0 instructions: 104000003 cycles: 89940503 heartbeat IPC: 0.762063 cumulative IPC: 0.762709 (Simulation time: 2 hr 9 min 48 sec) 

Region of Interest Statistics
cpu0_DTLB TOTAL     ACCESS:   14783745  HIT:   14762328  MISS:      21417
cpu0_DTLB LOAD      ACCESS:   13074846  HIT:   13053519  MISS:      21327
cpu0_DTLB RFO       ACCESS:    1708899  HIT:    1708809  MISS:         90
cpu0_DTLB PREFETCH  ACCESS:          0  HIT:          0  MISS:          0
cpu0_DTLB WRITEBACK ACCESS:          0  HIT:          0  MISS:          0
cpu0_ITLB TOTAL     ACCESS:      83726  HIT:      83726  MISS:          0
cpu0_ITLB LOAD      ACCESS:      83726  HIT:      83726  MISS:          0
cpu0_ITLB RFO       ACCESS:          0  HIT:          0  MISS:          0
cpu0_ITLB PREFETCH  ACCESS:          0  HIT:          0  MISS:          0
cpu0_ITLB WRITEBACK ACCESS:          0  HIT:          0  MISS:          0
cpu0_STLB TOTAL     ACCESS:      21417  HIT:       3663  MISS:      17754
cpu0_STLB LOAD      ACCESS:      21327  HIT:       3662  MISS:      17665
cpu0_STLB RFO       ACCESS:         90  HIT:          1  MISS:         89
cpu0_STLB PREFETCH  ACCESS:          0  HIT:          0  MISS:          0
cpu0_STLB WRITEBACK ACCESS:          0  HIT:          0  MISS:          0
cpu0_L1D TOTAL     ACCESS:   12791492  HIT:   12086458  MISS:     705034
cpu0_L1D LOAD      ACCESS:   10965339  HIT:   10270739  MISS:     694600
cpu0_L1D RFO       ACCESS:    1808414  HIT:    1802683  MISS:       5731
cpu0_L1D PREFETCH  ACCESS:          0  HIT:          0  MISS:          0
cpu0_L1D WRITEBACK ACCESS:          0  HIT:          0  MISS:          0
cpu0_L2C TOTAL     ACCESS:     715234  HIT:       5837  MISS:     709397
cpu0_L2C LOAD      ACCESS:     694588  HIT:       4908  MISS:     689680
cpu0_L2C RFO       ACCESS:       5731  HIT:          0  MISS:       5731
cpu0_L2C PREFETCH  ACCESS:          0  HIT:          0  MISS:          0
cpu0_L2C WRITEBACK ACCESS:      10212  HIT:        928  MISS:       9284
LLC TOTAL     ACCESS:     709476  HIT:     129986  MISS:     579490
LLC LOAD      ACCESS:     689680  HIT:     115899  MISS:     573781
LLC RFO       ACCESS:       5731  HIT:         44  MISS:       5687
LLC PREFETCH  ACCESS:          0  HIT:          0  MISS:          0
LLC WRITEBACK ACCESS:       9363  HIT:       9348  MISS:         15
Heartbeat CPU 0 instructions: 106000002 cycles: 92559130 heartbeat IPC: 0.763759 cumulative IPC: 0.762747 (Simulation time: 2 hr 13 min 5 sec) 

Region of Interest Statistics
cpu0_DTLB TOTAL     ACCESS:   15331887  HIT:   15309676  MISS:      22211
cpu0_DTLB LOAD      ACCESS:   13559710  HIT:   13537591  MISS:      22119
cpu0_DTLB RFO       ACCESS:    1772177  HIT:    1772085  MISS:         92
cpu0_DTLB PREFETCH  ACCESS:          0  HIT:          0  MISS:          0
cpu0_DTLB WRITEBACK ACCESS:          0  HIT:          0  MISS:          0
cpu0_ITLB TOTAL     ACCESS:      86734  HIT:      86734  MISS:          0
cpu0_ITLB LOAD      ACCESS:      86734  HIT:      86734  MISS:          0
cpu0_ITLB RFO       ACCESS:          0  HIT:          0  MISS:          0
cpu0_ITLB PREFETCH  ACCESS:          0  HIT:          0  MISS:          0
cpu0_ITLB WRITEBACK ACCESS:          0  HIT:          0  MISS:          0
cpu0_STLB TOTAL     ACCESS:      22211  HIT:       3806  MISS:      18405
cpu0_STLB LOAD      ACCESS:      22119  HIT:       3805  MISS:      18314
cpu0_STLB RFO       ACCESS:         92  HIT:          1  MISS:         91
cpu0_STLB PREFETCH  ACCESS:          0  HIT:          0  MISS:          0
cpu0_STLB WRITEBACK ACCESS:          0  HIT:          0  MISS:          0
cpu0_L1D TOTAL     ACCESS:   13265929  HIT:   12534916  MISS:     731013
cpu0_L1D LOAD      ACCESS:   11372135  HIT:   10651855  MISS:     720280
cpu0_L1D RFO       ACCESS:    1875404  HIT:    1869543  MISS:       5861
cpu0_L1D PREFETCH  ACCESS:          0  HIT:          0  MISS:          0
cpu0_L1D WRITEBACK ACCESS:          0  HIT:          0  MISS:          0
cpu0_L2C TOTAL     ACCESS:     741508  HIT:       6045  MISS:     735463
cpu0_L2C LOAD      ACCESS:     720267  HIT:       5086  MISS:     715181
cpu0_L2C RFO       ACCESS:       5861  HIT:          0  MISS:       5861
cpu0_L2C PREFETCH  ACCESS:          0  HIT:          0  MISS:          0
cpu0_L2C WRITEBACK ACCESS:      10508  HIT:        958  MISS:       9550
LLC TOTAL     ACCESS:     735540  HIT:     134717  MISS:     600823
LLC LOAD      ACCESS:     715181  HIT:     120196  MISS:     594985
LLC RFO       ACCESS:       5861  HIT:         45  MISS:       5816
LLC PREFETCH  ACCESS:          0  HIT:          0  MISS:          0
LLC WRITEBACK ACCESS:       9627  HIT:       9612  MISS:         15
Heartbeat CPU 0 instructions: 108000004 cycles: 95183676 heartbeat IPC: 0.762037 cumulative IPC: 0.762722 (Simulation time: 2 hr 16 min 30 sec) 

Region of Interest Statistics
cpu0_DTLB TOTAL     ACCESS:   15879148  HIT:   15856136  MISS:      23012
cpu0_DTLB LOAD      ACCESS:   14043637  HIT:   14020721  MISS:      22916
cpu0_DTLB RFO       ACCESS:    1835511  HIT:    1835415  MISS:         96
cpu0_DTLB PREFETCH  ACCESS:          0  HIT:          0  MISS:          0
cpu0_DTLB WRITEBACK ACCESS:          0  HIT:          0  MISS:          0
cpu0_ITLB TOTAL     ACCESS:      89877  HIT:      89877  MISS:          0
cpu0_ITLB LOAD      ACCESS:      89877  HIT:      89877  MISS:          0
cpu0_ITLB RFO       ACCESS:          0  HIT:          0  MISS:          0
cpu0_ITLB PREFETCH  ACCESS:          0  HIT:          0  MISS:          0
cpu0_ITLB WRITEBACK ACCESS:          0  HIT:          0  MISS:          0
cpu0_STLB TOTAL     ACCESS:      23012  HIT:       3944  MISS:      19068
cpu0_STLB LOAD      ACCESS:      22916  HIT:       3943  MISS:      18973
cpu0_STLB RFO       ACCESS:         96  HIT:          1  MISS:         95
cpu0_STLB PREFETCH  ACCESS:          0  HIT:          0  MISS:          0
cpu0_STLB WRITEBACK ACCESS:          0  HIT:          0  MISS:          0
cpu0_L1D TOTAL     ACCESS:   13739296  HIT:   12982083  MISS:     757213
cpu0_L1D LOAD      ACCESS:   11777869  HIT:   11031830  MISS:     746039
cpu0_L1D RFO       ACCESS:    1942375  HIT:    1936252  MISS:       6123
cpu0_L1D PREFETCH  ACCESS:          0  HIT:          0  MISS:          0
cpu0_L1D WRITEBACK ACCESS:          0  HIT:          0  MISS:          0
cpu0_L2C TOTAL     ACCESS:     768143  HIT:       6269  MISS:     761874
cpu0_L2C LOAD      ACCESS:     746026  HIT:       5275  MISS:     740751
cpu0_L2C RFO       ACCESS:       6123  HIT:          0  MISS:       6123
cpu0_L2C PREFETCH  ACCESS:          0  HIT:          0  MISS:          0
cpu0_L2C WRITEBACK ACCESS:      10943  HIT:        993  MISS:       9950
LLC TOTAL     ACCESS:     761959  HIT:     139599  MISS:     622360
LLC LOAD      ACCESS:     740751  HIT:     124490  MISS:     616261
LLC RFO       ACCESS:       6123  HIT:         47  MISS:       6076
LLC PREFETCH  ACCESS:          0  HIT:          0  MISS:          0
LLC WRITEBACK ACCESS:      10035  HIT:      10020  MISS:         15
Heartbeat CPU 0 instructions: 110000003 cycles: 97808648 heartbeat IPC: 0.761913 cumulative IPC: 0.762695 (Simulation time: 2 hr 19 min 49 sec) 

Region of Interest Statistics
cpu0_DTLB TOTAL     ACCESS:   16426425  HIT:   16402606  MISS:      23819
cpu0_DTLB LOAD      ACCESS:   14527559  HIT:   14503840  MISS:      23719
cpu0_DTLB RFO       ACCESS:    1898866  HIT:    1898766  MISS:        100
cpu0_DTLB PREFETCH  ACCESS:          0  HIT:          0  MISS:          0
cpu0_DTLB WRITEBACK ACCESS:          0  HIT:          0  MISS:          0
cpu0_ITLB TOTAL     ACCESS:      93011  HIT:      93011  MISS:          0
cpu0_ITLB LOAD      ACCESS:      93011  HIT:      93011  MISS:          0
cpu0_ITLB RFO       ACCESS:          0  HIT:          0  MISS:          0
cpu0_ITLB PREFETCH  ACCESS:          0  HIT:          0  MISS:          0
cpu0_ITLB WRITEBACK ACCESS:          0  HIT:          0  MISS:          0
cpu0_STLB TOTAL     ACCESS:      23819  HIT:       4092  MISS:      19727
cpu0_STLB LOAD      ACCESS:      23719  HIT:       4091  MISS:      19628
cpu0_STLB RFO       ACCESS:        100  HIT:          1  MISS:         99
cpu0_STLB PREFETCH  ACCESS:          0  HIT:          0  MISS:          0
cpu0_STLB WRITEBACK ACCESS:          0  HIT:          0  MISS:          0
cpu0_L1D TOTAL     ACCESS:   14212601  HIT:   13429194  MISS:     783407
cpu0_L1D LOAD      ACCESS:   12183546  HIT:   11411750  MISS:     771796
cpu0_L1D RFO       ACCESS:    2009344  HIT:    2002962  MISS:       6382
cpu0_L1D PREFETCH  ACCESS:          0  HIT:          0  MISS:          0
cpu0_L1D WRITEBACK ACCESS:          0  HIT:          0  MISS:          0
cpu0_L2C TOTAL     ACCESS:     794762  HIT:       6482  MISS:     788280
cpu0_L2C LOAD      ACCESS:     771783  HIT:       5457  MISS:     766326
cpu0_L2C RFO       ACCESS:       6382  HIT:          0  MISS:       6382
cpu0_L2C PREFETCH  ACCESS:          0  HIT:          0  MISS:          0
cpu0_L2C WRITEBACK ACCESS:      11368  HIT:       1024  MISS:      10344
LLC TOTAL     ACCESS:     788243  HIT:     144343  MISS:     643900
LLC LOAD      ACCESS:     766326  HIT:     128783  MISS:     637543
LLC RFO       ACCESS:       6382  HIT:         49  MISS:       6333
LLC PREFETCH  ACCESS:          0  HIT:          0  MISS:          0
LLC WRITEBACK ACCESS:      10307  HIT:      10291  MISS:         16
Heartbeat CPU 0 instructions: 112000001 cycles: 100427483 heartbeat IPC: 0.763698 cumulative IPC: 0.762727 (Simulation time: 2 hr 23 min 9 sec) 

Region of Interest Statistics
cpu0_DTLB TOTAL     ACCESS:   16974503  HIT:   16949742  MISS:      24761
cpu0_DTLB LOAD      ACCESS:   15012371  HIT:   14987723  MISS:      24648
cpu0_DTLB RFO       ACCESS:    1962132  HIT:    1962019  MISS:        113
cpu0_DTLB PREFETCH  ACCESS:          0  HIT:          0  MISS:          0
cpu0_DTLB WRITEBACK ACCESS:          0  HIT:          0  MISS:          0
cpu0_ITLB TOTAL     ACCESS:      96061  HIT:      96061  MISS:          0
cpu0_ITLB LOAD      ACCESS:      96061  HIT:      96061  MISS:          0
cpu0_ITLB RFO       ACCESS:          0  HIT:          0  MISS:          0
cpu0_ITLB PREFETCH  ACCESS:          0  HIT:          0  MISS:          0
cpu0_ITLB WRITEBACK ACCESS:          0  HIT:          0  MISS:          0
cpu0_STLB TOTAL     ACCESS:      24761  HIT:       4379  MISS:      20382
cpu0_STLB LOAD      ACCESS:      24648  HIT:       4367  MISS:      20281
cpu0_STLB RFO       ACCESS:        113  HIT:         12  MISS:        101
cpu0_STLB PREFETCH  ACCESS:          0  HIT:          0  MISS:          0
cpu0_STLB WRITEBACK ACCESS:          0  HIT:          0  MISS:          0
cpu0_L1D TOTAL     ACCESS:   14687146  HIT:   13877744  MISS:     809402
cpu0_L1D LOAD      ACCESS:   12590440  HIT:   11792952  MISS:     797488
cpu0_L1D RFO       ACCESS:    2076341  HIT:    2069828  MISS:       6513
cpu0_L1D PREFETCH  ACCESS:          0  HIT:          0  MISS:          0
cpu0_L1D WRITEBACK ACCESS:          0  HIT:          0  MISS:          0
cpu0_L2C TOTAL     ACCESS:     821063  HIT:       6713  MISS:     814350
cpu0_L2C LOAD      ACCESS:     797473  HIT:       5647  MISS:     791826
cpu0_L2C RFO       ACCESS:       6513  HIT:          0  MISS:       6513
cpu0_L2C PREFETCH  ACCESS:          0  HIT:          0  MISS:          0
cpu0_L2C WRITEBACK ACCESS:      11676  HIT:       1065  MISS:      10611
LLC TOTAL     ACCESS:     814442  HIT:     149203  MISS:     665239
LLC LOAD      ACCESS:     791826  HIT:     133075  MISS:     658751
LLC RFO       ACCESS:       6513  HIT:         50  MISS:       6463
LLC PREFETCH  ACCESS:          0  HIT:          0  MISS:          0
LLC WRITEBACK ACCESS:      10703  HIT:      10686  MISS:         17
Heartbeat CPU 0 instructions: 114000004 cycles: 103051650 heartbeat IPC: 0.762148 cumulative IPC: 0.762709 (Simulation time: 2 hr 26 min 27 sec) 

Region of Interest Statistics
cpu0_DTLB TOTAL     ACCESS:   17521626  HIT:   17496074  MISS:      25552
cpu0_DTLB LOAD      ACCESS:   15496189  HIT:   15470754  MISS:      25435
cpu0_DTLB RFO       ACCESS:    2025437  HIT:    2025320  MISS:        117
cpu0_DTLB PREFETCH  ACCESS:          0  HIT:          0  MISS:          0
cpu0_DTLB WRITEBACK ACCESS:          0  HIT:          0  MISS:          0
cpu0_ITLB TOTAL     ACCESS:      99151  HIT:      99151  MISS:          0
cpu0_ITLB LOAD      ACCESS:      99151  HIT:      99151  MISS:          0
cpu0_ITLB RFO       ACCESS:          0  HIT:          0  MISS:          0
cpu0_ITLB PREFETCH  ACCESS:          0  HIT:          0  MISS:          0
cpu0_ITLB WRITEBACK ACCESS:          0  HIT:          0  MISS:          0
cpu0_STLB TOTAL     ACCESS:      25552  HIT:       4513  MISS:      21039
cpu0_STLB LOAD      ACCESS:      25435  HIT:       4501  MISS:      20934
cpu0_STLB RFO       ACCESS:        117  HIT:         12  MISS:        105
cpu0_STLB PREFETCH  ACCESS:          0  HIT:          0  MISS:          0
cpu0_STLB WRITEBACK ACCESS:          0  HIT:          0  MISS:          0
cpu0_L1D TOTAL     ACCESS:   15160444  HIT:   14324872  MISS:     835572
cpu0_L1D LOAD      ACCESS:   12996115  HIT:   12172892  MISS:     823223
cpu0_L1D RFO       ACCESS:    2143307  HIT:    2136534  MISS:       6773
cpu0_L1D PREFETCH  ACCESS:          0  HIT:          0  MISS:          0
cpu0_L1D WRITEBACK ACCESS:          0  HIT:          0  MISS:          0
cpu0_L2C TOTAL     ACCESS:     847659  HIT:       6929  MISS:     840730
cpu0_L2C LOAD      ACCESS:     823208  HIT:       5827  MISS:     817381
cpu0_L2C RFO       ACCESS:       6773  HIT:          0  MISS:       6773
cpu0_L2C PREFETCH  ACCESS:          0  HIT:          0  MISS:          0
cpu0_L2C WRITEBACK ACCESS:      12102  HIT:       1101  MISS:      11001
LLC TOTAL     ACCESS:     840830  HIT:     154062  MISS:     686768
LLC LOAD      ACCESS:     817381  HIT:     137359  MISS:     680022
LLC RFO       ACCESS:       6773  HIT:         52  MISS:       6721
LLC PREFETCH  ACCESS:          0  HIT:          0  MISS:          0
LLC WRITEBACK ACCESS:      11101  HIT:      11084  MISS:         17
Heartbeat CPU 0 instructions: 116000003 cycles: 105670850 heartbeat IPC: 0.763592 cumulative IPC: 0.762736 (Simulation time: 2 hr 29 min 46 sec) 

Region of Interest Statistics
cpu0_DTLB TOTAL     ACCESS:   18069690  HIT:   18043183  MISS:      26507
cpu0_DTLB LOAD      ACCESS:   15981019  HIT:   15954644  MISS:      26375
cpu0_DTLB RFO       ACCESS:    2088671  HIT:    2088539  MISS:        132
[...]
cpu0_STLB WRITEBACK ACCESS:          0  HIT:          0  MISS:          0
cpu0_L1D TOTAL     ACCESS:  377691502  HIT:  368586490  MISS:    9105012
cpu0_L1D LOAD      ACCESS:  261386596  HIT:  252903981  MISS:    8482615
cpu0_L1D RFO       ACCESS:  116107427  HIT:  115537524  MISS:     569903
cpu0_L1D PREFETCH  ACCESS:          0  HIT:          0  MISS:          0
cpu0_L1D WRITEBACK ACCESS:          0  HIT:          0  MISS:          0
cpu0_L2C TOTAL     ACCESS:    9900363  HIT:    1149414  MISS:    8750949
cpu0_L2C LOAD      ACCESS:    8483945  HIT:     485814  MISS:    7998131
cpu0_L2C RFO       ACCESS:     569903  HIT:      59221  MISS:     510682
cpu0_L2C PREFETCH  ACCESS:          0  HIT:          0  MISS:          0
cpu0_L2C WRITEBACK ACCESS:     794021  HIT:     604112  MISS:     189909
LLC TOTAL     ACCESS:    9178010  HIT:    2643058  MISS:    6534952
LLC LOAD      ACCESS:    7998116  HIT:    1611574  MISS:    6386542
LLC RFO       ACCESS:     510682  HIT:     362728  MISS:     147954
LLC PREFETCH  ACCESS:          0  HIT:          0  MISS:          0
LLC WRITEBACK ACCESS:     616985  HIT:     616620  MISS:        365
Finished CPU 0 instructions: 1500000000 cycles: 1548269382 cumulative IPC: 0.968824 (Simulation time: 20 hr 48 min 39 sec) 

ChampSim completed all CPUs

Region of Interest Statistics

CPU 0 cumulative IPC: 0.968824 instructions: 1500000000 cycles: 1548269382
cpu0_DTLB TOTAL     ACCESS:  348823407  HIT:  347291578  MISS:    1531829
cpu0_DTLB LOAD      ACCESS:  278651114  HIT:  277689223  MISS:     961891
cpu0_DTLB RFO       ACCESS:   70172293  HIT:   69602355  MISS:     569938
cpu0_DTLB PREFETCH  ACCESS:          0  HIT:          0  MISS:          0
cpu0_DTLB WRITEBACK ACCESS:          0  HIT:          0  MISS:          0
cpu0_DTLB TRANSLATION ACCESS:          0  HIT:          0  MISS:          0
cpu0_DTLB PREFETCH  REQUESTED:          0  ISSUED:          0  USEFUL:          0  USELESS:          0
cpu0_DTLB AVERAGE MISS LATENCY: 36.999 cycles
cpu0_ITLB TOTAL     ACCESS:   59065883  HIT:   59065797  MISS:         86
cpu0_ITLB LOAD      ACCESS:   59065883  HIT:   59065797  MISS:         86
cpu0_ITLB RFO       ACCESS:          0  HIT:          0  MISS:          0
cpu0_ITLB PREFETCH  ACCESS:          0  HIT:          0  MISS:          0
cpu0_ITLB WRITEBACK ACCESS:          0  HIT:          0  MISS:          0
cpu0_ITLB TRANSLATION ACCESS:          0  HIT:          0  MISS:          0
cpu0_ITLB PREFETCH  REQUESTED:          0  ISSUED:          0  USEFUL:          0  USELESS:          0
cpu0_ITLB AVERAGE MISS LATENCY: 191.616 cycles
cpu0_L1I TOTAL     ACCESS:  126637356  HIT:  126635913  MISS:       1443
cpu0_L1I LOAD      ACCESS:  126637356  HIT:  126635913  MISS:       1443
cpu0_L1I RFO       ACCESS:          0  HIT:          0  MISS:          0
cpu0_L1I PREFETCH  ACCESS:          0  HIT:          0  MISS:          0
cpu0_L1I WRITEBACK ACCESS:          0  HIT:          0  MISS:          0
cpu0_L1I TRANSLATION ACCESS:          0  HIT:          0  MISS:          0
cpu0_L1I PREFETCH  REQUESTED:          0  ISSUED:          0  USEFUL:          0  USELESS:          0
cpu0_L1I AVERAGE MISS LATENCY: 146.198 cycles
cpu0_STLB TOTAL     ACCESS:    1531915  HIT:    1333916  MISS:     197999
cpu0_STLB LOAD      ACCESS:     961977  HIT:     766309  MISS:     195668
cpu0_STLB RFO       ACCESS:     569938  HIT:     567607  MISS:       2331
cpu0_STLB PREFETCH  ACCESS:          0  HIT:          0  MISS:          0
cpu0_STLB WRITEBACK ACCESS:          0  HIT:          0  MISS:          0
cpu0_STLB TRANSLATION ACCESS:          0  HIT:          0  MISS:          0
cpu0_STLB PREFETCH  REQUESTED:          0  ISSUED:          0  USEFUL:          0  USELESS:          0
cpu0_STLB AVERAGE MISS LATENCY: 216.391 cycles
cpu0_L1D TOTAL     ACCESS:  377691502  HIT:  368586490  MISS:    9105012
cpu0_L1D LOAD      ACCESS:  261386596  HIT:  252903981  MISS:    8482615
cpu0_L1D RFO       ACCESS:  116107427  HIT:  115537524  MISS:     569903
cpu0_L1D PREFETCH  ACCESS:          0  HIT:          0  MISS:          0
cpu0_L1D WRITEBACK ACCESS:          0  HIT:          0  MISS:          0
cpu0_L1D TRANSLATION ACCESS:     197479  HIT:     144985  MISS:      52494
cpu0_L1D PREFETCH  REQUESTED:          0  ISSUED:          0  USEFUL:          0  USELESS:          0
cpu0_L1D AVERAGE MISS LATENCY: 269.701 cycles
cpu0_L2C TOTAL     ACCESS:    9900363  HIT:    1149414  MISS:    8750949
cpu0_L2C LOAD      ACCESS:    8483945  HIT:     485814  MISS:    7998131
cpu0_L2C RFO       ACCESS:     569903  HIT:      59221  MISS:     510682
cpu0_L2C PREFETCH  ACCESS:          0  HIT:          0  MISS:          0
cpu0_L2C WRITEBACK ACCESS:     794021  HIT:     604112  MISS:     189909
cpu0_L2C TRANSLATION ACCESS:      52494  HIT:        267  MISS:      52227
cpu0_L2C PREFETCH  REQUESTED:          0  ISSUED:          0  USEFUL:          0  USELESS:          0
cpu0_L2C AVERAGE MISS LATENCY: 269.065 cycles
LLC TOTAL     ACCESS:    9178010  HIT:    2643058  MISS:    6534952
LLC LOAD      ACCESS:    7998116  HIT:    1611574  MISS:    6386542
LLC RFO       ACCESS:     510682  HIT:     362728  MISS:     147954
LLC PREFETCH  ACCESS:          0  HIT:          0  MISS:          0
LLC WRITEBACK ACCESS:     616985  HIT:     616620  MISS:        365
LLC TRANSLATION ACCESS:      52227  HIT:      52136  MISS:         91
LLC PREFETCH  REQUESTED:          0  ISSUED:          0  USEFUL:          0  USELESS:          0
LLC AVERAGE MISS LATENCY: 332.794 cycles
~~~~~~~~~~Reuse Distance Profiler output~~~~~~~~~~
0	42441840	7630848
1	21745360	7979024
2	22063616	12225072
3	13681456	9530816
4	15199568	9727488
5	16046688	8776512
6	13975424	9996304
7	13344336	9070464
8	10618384	8618112
9	10167104	9113216
10	7477856	6834704
11	8641168	7615504
12	7687856	7173168
13	7216272	6821072
14	6492096	6342016
15	5873296	5784864
16	5618544	5460944
17	4174880	3994544
18	6815840	6252640
19	7484608	6764352
20	4511248	3747808
21	3568896	3065888
22	3004224	2276768
23	2746064	2136256
24	2078032	1636928
25	2273392	1789216
26	1959392	1550752
27	1816144	1602336
28	1858736	1375936
29	2020080	1546528
30	2213760	1557600
31	1340704	925728
32	1618048	1247744
33	1618048	992032
34	2449264	1940912
35	1745792	1434048
36	1465520	866464
37	1057472	940736
38	1385152	1031424
39	1002432	665264
40	1105680	831296
41	697840	529376
42	1150704	939424
43	1259440	1021216
44	994272	705488
45	1511200	1365008
46	977744	626448
47	1374240	1099664
48	900608	782544
49	1028400	884080
50	1198800	835984
51	1504000	1359264
52	939888	826624
53	1018576	766032
54	554240	457152
55	503424	443280
56	672816	472368
57	468624	366816
58	688480	420336
59	453632	370992
60	413456	372432
61	512928	501312
62	376192	357632
63	339920	286576
64	657296	335872
66	500992	371648
68	736208	676144
70	398304	368784
72	284896	245680
74	430720	368432
76	499152	457664
78	429712	380592
80	277792	237872
82	706848	566256
84	327632	283840
86	528000	464992
88	500144	332768
90	426240	236624
92	892224	404032
94	1451408	1168544
96	2439264	1926848
98	2124736	1974016
100	2925728	2618448
102	1264640	1158464
104	505936	431520
106	511904	448432
108	516112	334352
110	508944	370160
112	926064	809248
114	837616	726416
116	3094240	2828928
118	664016	607008
120	883088	816144
122	428128	371472
124	433312	379744
126	431728	231376
128	925168	812640
132	1022736	785264
136	771888	481552
140	367664	224896
144	553248	359328
148	729232	622576
152	686256	615296
156	596256	525968
160	510768	494240
164	343136	316432
168	419264	348144
172	240656	238976
176	310672	286240
180	323088	255568
184	367584	297168
188	413936	370112
192	270784	261440
196	284848	280208
200	212192	209888
204	279584	264944
208	417920	389888
212	648608	543648
216	690128	600528
220	847424	574784
224	510208	418768
228	558352	401616
232	279008	253872
236	426384	426112
240	175712	175424
244	83840	83680
248	71824	71632
252	81056	80864
256	75120	74848
264	38128	38032
272	60256	60016
280	166608	164032
288	625152	598624
296	527376	448624
304	262928	256112
312	115664	98464
320	335504	195072
328	1285456	705520
336	2426656	1650208
344	1183440	906112
352	975376	820688
360	524208	427008
368	398384	211072
376	457200	200752
384	819360	666832
392	752800	684192
400	397728	397296
408	336128	332352
416	974768	943248
424	1708672	1601312
432	4032064	3741824
440	2528384	2363408
448	144448	144336
456	183184	183056
464	135472	135424
472	43920	43920
480	22464	22448
488	53744	53664
496	63632	60624
504	168064	106976
512	468080	345536
528	516384	359824
544	569040	476032
560	215648	114528
576	74864	66368
592	38096	9216
608	173840	152096
624	429472	420208
640	659904	621440
656	763952	505600
672	3939984	2549520
688	130448	79952
704	896	608
720	304	272
736	192	176
752	336	320
768	192	176
784	112	112
800	288	272
816	128	128
832	80	80
848	320	320
864	352	352
880	304	304
896	192	192
912	80	80
928	160	160
944	352	352
960	144	144
976	240	240
992	128	128
1008	96	96
1024	144	128
1056	288	288
1088	400	384
1120	272	240
1152	352	352
1184	320	304
1216	448	432
1248	240	208
1280	576	576
1312	400	368
1344	176	160
1376	352	320
1408	352	352
1440	336	304
1472	144	144
1504	224	224
1536	368	368
1568	208	208
1600	368	368
1632	256	256
1664	288	288
1696	256	256
1728	384	384
1760	288	288
1792	352	336
1824	432	432
1856	352	352
1888	240	240
1920	352	352
1952	256	256
1984	224	224
2016	208	208
2048	560	560
2112	1280	1248
2176	17824	17808
2240	31584	31520
2304	48272	48272
2368	5280	5264
2432	512	480
2496	656	656
2560	608	608
2624	624	624
2688	672	656
2752	720	672
2816	640	640
2880	848	832
2944	480	480
3008	496	496
3072	624	624
3136	528	528
3200	544	544
3264	624	624
3328	608	608
3392	384	384
3456	592	592
3520	576	576
3584	624	624
3648	384	384
3712	528	528
3776	640	640
3840	480	480
3904	400	400
3968	544	544
4032	544	544
4096	1056	1056
4224	1152	1136
4352	1296	1280
4480	1072	1072
4608	1104	1072
4736	1280	1248
4864	1200	1200
4992	1200	1184
5120	1152	1136
5248	928	928
5376	1104	1104
5504	1072	1056
5632	1296	1296
5760	1072	1072
5888	1168	1168
6016	1104	1072
6144	1120	1120
6272	1264	1264
6400	1280	1248
6528	1040	1040
6656	1184	1184
6784	1056	1056
6912	3616	3616
7040	160304	160288
7168	3383232	3383232
7296	77760	77760
7424	880	880
7552	128	128
7680	144	144
7808	64	64
7936	16	0
8064	96	96
8192	160	160
8448	160	160
8704	256	256
8960	160	160
9216	96	96
9472	160	160
9728	160	160
9984	208	208
10240	205968	205952
10496	110464	110448
10752	96	96
11008	64	32
11264	64	64
11520	32	32
11776	0	0
12032	16	0
12288	0	0
12544	0	0
12800	0	0
13056	0	0
13312	0	0
13568	0	0
13824	0	0
14080	0	0
14336	0	0
14592	0	0
14848	0	0
15104	0	0
15360	0	0
15616	0	0
15872	0	0
16128	0	0
16384	0	0
16896	16	0
17408	0	0
17920	160	160
18432	0	0
18944	0	0
19456	0	0
19968	0	0
20480	0	0
20992	0	0
21504	0	0
22016	0	0
22528	0	0
23040	0	0
23552	0	0
24064	0	0
24576	0	0
25088	0	0
25600	0	0
26112	0	0
26624	0	0
27136	0	0
27648	0	0
28160	0	0
28672	0	0
29184	0	0
29696	0	0
30208	0	0
30720	0	0
31232	0	0
31744	0	0
32256	0	0
32768	0	0
33792	0	0
34816	0	0
35840	112	96
36864	0	0
37888	0	0
38912	0	0
39936	0	0
40960	0	0
41984	0	0
43008	0	0
44032	0	0
45056	0	0
46080	0	0
47104	0	0
48128	0	0
49152	0	0
50176	0	0
51200	0	0
52224	0	0
53248	0	0
54272	0	0
55296	0	0
56320	0	0
57344	0	0
58368	0	0
59392	1888	1872
60416	10864	5584
61440	1872	1552
62464	0	0
63488	1216	1216
64512	1200	416
65536	3360	1632
67584	1136	1136
69632	3008	480
71680	1552	1552
73728	4272	1616
75776	1696	1696
77824	3536	944
79872	1024	1024
81920	3632	1360
83968	1888	1440
86016	2416	1376
88064	2832	1152
90112	1232	1072
92160	3504	1072
94208	1616	1520
96256	3872	1344
98304	992	960
100352	4016	1600
102400	1360	1280
104448	3088	1312
106496	1824	1216
108544	2256	1072
110592	2928	1440
112640	1840	1408
114688	3328	1216
116736	1312	1056
118784	3504	1280
120832	1408	1200
122880	3920	1328
124928	1456	1232
126976	2528	1008
129024	2336	1376
131072	5216	2752
135168	4928	2240
139264	5392	2944
143360	4656	2256
147456	4672	2672
151552	4752	2800
155648	4080	1792
159744	4736	2608
163840	4672	2096
167936	4768	2208
172032	5120	2544
176128	4992	2624
180224	5120	2528
184320	4784	2416
188416	4592	2448
192512	4880	2464
196608	4640	2352
200704	4864	2336
204800	4736	2352
208896	5264	2960
212992	35808	29440
217088	192656	165488
221184	227968	194832
225280	14048	10384
229376	9568	6672
233472	8960	6032
237568	9424	6288
241664	8800	5968
245760	8544	5808
249856	8672	6064
253952	9424	6416
258048	8912	6272
262144	17472	11792
270336	17536	11440
278528	22864	12944
286720	1230672	1217552
294912	24416	12752
303104	24352	11920
311296	25120	12848
319488	24144	12272
327680	24880	12144
335872	23136	10880
344064	12352	4048
352256	6544	224
360448	7248	256
368640	6832	208
376832	6944	224
385024	6864	112
393216	6288	176
401408	4720	528
409600	1248	672
417792	76256	76208
425984	27664	27648
434176	16	16
442368	80	80
450560	64	64
458752	0	0
466944	0	0
475136	0	0
483328	0	0
491520	0	0
499712	48	48
507904	128	128
516096	0	0
524288	0	0
540672	0	0
557056	0	0
573440	32	32
589824	0	0
606208	624	0
622592	14848	224
638976	176	128
655360	528	384
671744	832	688
688128	0	0
704512	560	480
720896	6000	5168
737280	9120	7520
753664	7792	6160
770048	8240	6608
786432	7808	6368
802816	7584	6256
819200	7296	5872
835584	8048	6688
851968	9168	7440
868352	7904	6320
884736	8336	6816
901120	8176	6448
917504	8416	6784
933888	8272	6768
950272	7936	6352
966656	8224	6336
983040	8160	6640
999424	8400	6048
1015808	9296	3904
1032192	7808	176
1048576	14464	576
1081344	2608	928
1114112	64	32
1146880	32	32
1179648	464	384
1212416	160	16
1245184	128	0
1277952	208	128
1310720	112	32
1343488	208	32
1376256	112	32
1409024	64	16
1441792	48	0
1474560	352	240
1507328	192	80
1540096	16	16
1572864	64	64
1605632	0	0
1638400	32	32
1671168	32	32
1703936	48	48
1736704	0	0
1769472	128	128
1802240	64	64
1835008	0	0
1867776	0	0
1900544	80	80
1933312	96	96
1966080	0	0
1998848	0	0
2031616	16	16
2064384	288	288
2097152	48	48
2162688	192	192
2228224	80	64
2293760	0	0
2359296	288	272
2424832	64	64
2490368	48	16
2555904	64	64
2621440	448	432
2686976	16	16
2752512	64	64
2818048	16	16
2883584	320	320
2949120	16	16
3014656	128	128
3080192	0	0
3145728	0	0
3211264	400	400
3276800	96	96
3342336	0	0
3407872	64	32
3473408	336	320
3538944	16	16
3604480	64	32
3670016	64	64
3735552	32	32
3801088	256	256
3866624	48	48
3932160	0	0
3997696	0	0
4063232	448	448
4128768	0	0
4194304	48	48
4325376	528	528
4456448	16	16
4587520	368	272
4718592	80	64
4849664	352	352
4980736	64	64
5111808	144	144
5242880	208	208
5373952	160	160
5505024	208	144
5636096	32	16
5767168	336	304
5898240	80	80
6029312	144	144
6160384	80	80
6291456	80	80
6422528	400	352
6553600	128	112
6684672	288	272
6815744	80	64
6946816	128	128
7077888	0	0
7208960	224	224
7340032	16	16
7471104	288	288
7602176	112	112
7733248	64	64
7864320	288	272
7995392	96	96
8126464	208	208
8257536	16	16
8388608	432	432
8650752	192	192
8912896	352	336
9175040	224	224
9437184	528	528
9699328	208	144
9961472	464	384
10223616	112	112
10485760	112	112
10747904	448	448
11010048	496	448
11272192	416	368
11534336	240	240
11796480	352	352
12058624	352	272
12320768	272	256
12582912	480	480
12845056	320	304
13107200	192	16
13369344	336	336
13631488	224	224
13893632	208	208
14155776	384	384
14417920	320	288
14680064	512	512
14942208	416	416
15204352	528	496
15466496	288	224
15728640	16	16
15990784	272	272
16252928	272	256
16515072	368	336
16777216	432	432
17301504	640	624
17825792	656	656
18350080	496	400
18874368	960	944
19398656	640	560
19922944	800	784
20447232	640	560
20971520	240	224
21495808	736	736
22020096	272	256
22544384	560	512
23068672	608	592
23592960	768	720
24117248	256	240
24641536	704	688
25165824	432	352
25690112	288	272
26214400	608	608
26738688	448	448
27262976	512	496
27787264	592	592
28311552	624	544
28835840	496	496
29360128	416	336
29884416	368	368
30408704	560	528
30932992	560	560
31457280	512	480
31981568	304	304
32505856	784	720
33030144	560	560
33554432	1216	1152
34603008	688	672
35651584	976	960
36700160	1248	1200
37748736	1008	944
38797312	1280	1232
39845888	1136	880
40894464	1056	1008
41943040	784	704
42991616	880	656
44040192	1600	1392
45088768	720	608
46137344	1040	976
47185920	1440	1200
48234496	960	784
49283072	1360	1248
50331648	752	672
51380224	656	656
52428800	1200	1104
53477376	688	672
54525952	1392	1328
55574528	832	800
56623104	720	672
57671680	800	672
58720256	1136	1056
59768832	896	880
60817408	1040	1024
61865984	1088	912
62914560	1280	1232
63963136	928	896
65011712	944	912
66060288	1072	1056
67108864	1904	1808
69206016	1776	1728
71303168	1968	1792
73400320	2016	1952
75497472	2112	2016
77594624	1760	1760
79691776	2544	2368
81788928	2528	2528
83886080	1904	1808
85983232	1600	1552
88080384	1984	1824
90177536	2272	2208
92274688	1760	1696
94371840	1968	1904
96468992	2208	2064
98566144	2128	2048
100663296	2416	2288
102760448	1728	1712
104857600	1696	1552
106954752	2064	1840
109051904	2096	1888
111149056	2272	2192
113246208	2144	2016
115343360	2240	2032
117440512	2400	2256
119537664	2128	2048
121634816	1952	1808
123731968	2352	2272
125829120	2048	2032
127926272	1648	1520
130023424	1824	1776
132120576	2032	1920
134217728	2768	2576
138412032	2768	2544
142606336	2992	2512
146800640	3040	2816
150994944	1104	896
155189248	112	0
159383552	400	16
163577856	48	0
167772160	96	0
171966464	160	0
176160768	256	0
180355072	144	0
184549376	128	0
188743680	352	0
192937984	256	0
197132288	144	0
201326592	272	0
205520896	240	0
209715200	336	0
213909504	240	0
218103808	320	0
222298112	144	0
226492416	480	0
230686720	256	0
234881024	192	0
239075328	144	0
243269632	0	0
247463936	0	0
251658240	0	0
255852544	0	0
260046848	0	0
264241152	0	0
268435456	0	0
276824064	0	0
285212672	0	0
293601280	0	0
301989888	0	0
310378496	0	0
318767104	0	0
327155712	0	0
335544320	0	0
343932928	0	0
352321536	0	0
360710144	0	0
369098752	0	0
377487360	0	0
385875968	0	0
394264576	0	0
402653184	0	0
411041792	0	0
419430400	0	0
427819008	0	0
436207616	0	0
444596224	0	0
452984832	0	0
461373440	0	0
469762048	0	0
478150656	0	0
486539264	0	0
494927872	0	0
503316480	0	0
511705088	0	0
520093696	0	0
528482304	0	0
536870912	0	0
553648128	0	0
570425344	0	0
587202560	0	0
603979776	0	0
620756992	0	0
637534208	0	0
654311424	0	0
671088640	0	0
687865856	0	0
704643072	0	0
721420288	0	0
738197504	0	0
754974720	0	0
771751936	0	0
788529152	0	0
805306368	0	0
822083584	0	0
838860800	0	0
855638016	0	0
872415232	0	0
889192448	0	0
905969664	0	0
922746880	0	0
939524096	0	0
956301312	0	0
973078528	0	0
989855744	0	0
1006632960	0	0
1023410176	0	0
1040187392	0	0
1056964608	0	0
1073741824	0	0
1107296256	0	0
1140850688	0	0
1174405120	0	0
1207959552	0	0
1241513984	0	0
1275068416	0	0
1308622848	0	0
1342177280	0	0
1375731712	0	0
1409286144	0	0
1442840576	0	0
1476395008	0	0
1509949440	0	0
1543503872	0	0
1577058304	0	0
1610612736	0	0
1644167168	0	0
1677721600	0	0
1711276032	0	0
1744830464	0	0
1778384896	0	0
1811939328	0	0
1845493760	0	0
1879048192	0	0
1912602624	0	0
1946157056	0	0
1979711488	0	0
2013265920	0	0
2046820352	0	0
2080374784	0	0
2113929216	0	0
2147483648	0	0
2214592512	0	0
2281701376	0	0
2348810240	0	0
2415919104	0	0
2483027968	0	0
2550136832	0	0
2617245696	0	0
2684354560	0	0
2751463424	0	0
2818572288	0	0
2885681152	0	0
2952790016	0	0
3019898880	0	0
3087007744	0	0
3154116608	0	0
3221225472	0	0
3288334336	0	0
3355443200	0	0
3422552064	0	0
3489660928	0	0
3556769792	0	0
3623878656	0	0
3690987520	0	0
3758096384	0	0
3825205248	0	0
3892314112	0	0
3959422976	0	0
4026531840	0	0
4093640704	0	0
4160749568	0	0
4227858432	0	0
~~~~~~~~~~Reuse Distance Profiler output end~~~~~~~~~~

Sampler size:431604

DRAM Statistics
 CHANNEL 0
 RQ ROW_BUFFER_HIT:      51091  ROW_BUFFER_MISS:    6483450
 DBUS AVG_CONGESTED_CYCLE:    3.88998
 WQ ROW_BUFFER_HIT:      52070  ROW_BUFFER_MISS:      71344  FULL:          0


CPU 0 Branch Prediction Accuracy: 97.7465% MPKI: 2.09555 Average ROB Occupancy at Mispredict: 133.916
Branch type MPKI
BRANCH_DIRECT_JUMP: 0.000136667
BRANCH_INDIRECT: 4.26667e-05
BRANCH_CONDITIONAL: 2.09503
BRANCH_DIRECT_CALL: 0.000174667
BRANCH_INDIRECT_CALL: 6.66667e-06
BRANCH_RETURN: 0.000156

