
*** ChampSim Multicore Out-of-Order Simulator ***

Warmup Instructions: 50000000
Simulation Instructions: 1500000000
Number of CPUs: 1
Off-chip DRAM Size: 4 GiB Channels: 1 Width: 64-bit Data Rate: 3200 MT/s

VirtualMemory physical capacity: 8588881920 num_ppages: 2096895
VirtualMemory page size: 4096 log2_page_size: 12

CPU 0 runs /s/traces/champsim_traces/657.xz_s-2302B.champsimtrace.xz
CPU 0 Bimodal branch predictor
Basic BTB sets: 1024 ways: 8 indirect buffer size: 4096 RAS size: 64
Initializing LRU.
Initializing LRU.
Initializing LRU.
Initializing LRU.
Initializing rdLRU.
Initializing LRU.
Initializing LRU.
Heartbeat CPU 0 instructions: 2000001 cycles: 500100 heartbeat IPC: 3.9992 cumulative IPC: 3.9992 (Simulation time: 0 hr 0 min 46 sec) 
Heartbeat CPU 0 instructions: 4000001 cycles: 1000100 heartbeat IPC: 4 cumulative IPC: 3.9996 (Simulation time: 0 hr 1 min 19 sec) 
Heartbeat CPU 0 instructions: 6000001 cycles: 1500100 heartbeat IPC: 4 cumulative IPC: 3.99973 (Simulation time: 0 hr 1 min 53 sec) 
Heartbeat CPU 0 instructions: 8000002 cycles: 2003093 heartbeat IPC: 3.9762 cumulative IPC: 3.99382 (Simulation time: 0 hr 2 min 26 sec) 
Heartbeat CPU 0 instructions: 10000002 cycles: 2503093 heartbeat IPC: 4 cumulative IPC: 3.99506 (Simulation time: 0 hr 3 min 4 sec) 
Heartbeat CPU 0 instructions: 12000001 cycles: 3003110 heartbeat IPC: 3.99986 cumulative IPC: 3.99586 (Simulation time: 0 hr 3 min 42 sec) 
Heartbeat CPU 0 instructions: 14000001 cycles: 3503110 heartbeat IPC: 4 cumulative IPC: 3.99645 (Simulation time: 0 hr 4 min 26 sec) 
Heartbeat CPU 0 instructions: 16000002 cycles: 4006102 heartbeat IPC: 3.97621 cumulative IPC: 3.99391 (Simulation time: 0 hr 5 min 12 sec) 
Heartbeat CPU 0 instructions: 18000002 cycles: 4506102 heartbeat IPC: 4 cumulative IPC: 3.99458 (Simulation time: 0 hr 5 min 49 sec) 
Heartbeat CPU 0 instructions: 20000002 cycles: 5006102 heartbeat IPC: 4 cumulative IPC: 3.99512 (Simulation time: 0 hr 6 min 36 sec) 
Heartbeat CPU 0 instructions: 22000003 cycles: 5519407 heartbeat IPC: 3.89632 cumulative IPC: 3.98594 (Simulation time: 0 hr 7 min 23 sec) 
Heartbeat CPU 0 instructions: 24000003 cycles: 6019407 heartbeat IPC: 4 cumulative IPC: 3.9871 (Simulation time: 0 hr 8 min 7 sec) 
Heartbeat CPU 0 instructions: 26000000 cycles: 6520088 heartbeat IPC: 3.99455 cumulative IPC: 3.98768 (Simulation time: 0 hr 8 min 53 sec) 
Heartbeat CPU 0 instructions: 28000000 cycles: 7020088 heartbeat IPC: 4 cumulative IPC: 3.98855 (Simulation time: 0 hr 9 min 36 sec) 
Heartbeat CPU 0 instructions: 30000000 cycles: 7520088 heartbeat IPC: 4 cumulative IPC: 3.98932 (Simulation time: 0 hr 10 min 18 sec) 
Heartbeat CPU 0 instructions: 32000000 cycles: 8020088 heartbeat IPC: 4 cumulative IPC: 3.98998 (Simulation time: 0 hr 11 min 2 sec) 
Heartbeat CPU 0 instructions: 34000000 cycles: 8520088 heartbeat IPC: 4 cumulative IPC: 3.99057 (Simulation time: 0 hr 11 min 45 sec) 
Heartbeat CPU 0 instructions: 36000003 cycles: 9023090 heartbeat IPC: 3.97613 cumulative IPC: 3.98976 (Simulation time: 0 hr 12 min 28 sec) 
Heartbeat CPU 0 instructions: 38000003 cycles: 9523090 heartbeat IPC: 4 cumulative IPC: 3.9903 (Simulation time: 0 hr 13 min 12 sec) 
Heartbeat CPU 0 instructions: 40000003 cycles: 10023090 heartbeat IPC: 4 cumulative IPC: 3.99079 (Simulation time: 0 hr 13 min 55 sec) 
Heartbeat CPU 0 instructions: 42000003 cycles: 10523090 heartbeat IPC: 4 cumulative IPC: 3.99122 (Simulation time: 0 hr 14 min 39 sec) 
Heartbeat CPU 0 instructions: 44000000 cycles: 11026080 heartbeat IPC: 3.97622 cumulative IPC: 3.99054 (Simulation time: 0 hr 15 min 23 sec) 
Heartbeat CPU 0 instructions: 46000000 cycles: 11526080 heartbeat IPC: 4 cumulative IPC: 3.99095 (Simulation time: 0 hr 16 min 7 sec) 
Heartbeat CPU 0 instructions: 48000000 cycles: 12026080 heartbeat IPC: 4 cumulative IPC: 3.99133 (Simulation time: 0 hr 16 min 49 sec) 
Heartbeat CPU 0 instructions: 50000000 cycles: 12526080 heartbeat IPC: 4 cumulative IPC: 3.99167 (Simulation time: 0 hr 17 min 32 sec) 

Warmup complete CPU 0 instructions: 50000004 cycles: 12526081 (Simulation time: 0 hr 17 min 32 sec) 

Heartbeat CPU 0 instructions: 52000000 cycles: 14623449 heartbeat IPC: 0.953576 cumulative IPC: 0.953574 (Simulation time: 0 hr 18 min 22 sec) 

Region of Interest Statistics
cpu0_DTLB TOTAL     ACCESS:     388006  HIT:     374838  MISS:      13168
cpu0_DTLB LOAD      ACCESS:     302657  HIT:     291600  MISS:      11057
cpu0_DTLB RFO       ACCESS:      85349  HIT:      83238  MISS:       2111
cpu0_DTLB PREFETCH  ACCESS:          0  HIT:          0  MISS:          0
cpu0_DTLB WRITEBACK ACCESS:          0  HIT:          0  MISS:          0
cpu0_ITLB TOTAL     ACCESS:     200269  HIT:     200269  MISS:          0
cpu0_ITLB LOAD      ACCESS:     200269  HIT:     200269  MISS:          0
cpu0_ITLB RFO       ACCESS:          0  HIT:          0  MISS:          0
cpu0_ITLB PREFETCH  ACCESS:          0  HIT:          0  MISS:          0
cpu0_ITLB WRITEBACK ACCESS:          0  HIT:          0  MISS:          0
cpu0_L1I TOTAL     ACCESS:      28375  HIT:      28375  MISS:          0
cpu0_L1I LOAD      ACCESS:      28375  HIT:      28375  MISS:          0
cpu0_L1I RFO       ACCESS:          0  HIT:          0  MISS:          0
cpu0_L1I PREFETCH  ACCESS:          0  HIT:          0  MISS:          0
cpu0_L1I WRITEBACK ACCESS:          0  HIT:          0  MISS:          0
cpu0_STLB TOTAL     ACCESS:      13168  HIT:      11181  MISS:       1987
cpu0_STLB LOAD      ACCESS:      11057  HIT:       9117  MISS:       1940
cpu0_STLB RFO       ACCESS:       2111  HIT:       2064  MISS:         47
cpu0_STLB PREFETCH  ACCESS:          0  HIT:          0  MISS:          0
cpu0_STLB WRITEBACK ACCESS:          0  HIT:          0  MISS:          0
cpu0_L1D TOTAL     ACCESS:     442509  HIT:     428727  MISS:      13782
cpu0_L1D LOAD      ACCESS:     285616  HIT:     273304  MISS:      12312
cpu0_L1D RFO       ACCESS:     154912  HIT:     153459  MISS:       1453
cpu0_L1D PREFETCH  ACCESS:          0  HIT:          0  MISS:          0
cpu0_L1D WRITEBACK ACCESS:          0  HIT:          0  MISS:          0
cpu0_L2C TOTAL     ACCESS:      22645  HIT:       8018  MISS:      14627
cpu0_L2C LOAD      ACCESS:      12312  HIT:        976  MISS:      11336
cpu0_L2C RFO       ACCESS:       1453  HIT:        314  MISS:       1139
cpu0_L2C PREFETCH  ACCESS:          0  HIT:          0  MISS:          0
cpu0_L2C WRITEBACK ACCESS:       8863  HIT:       6724  MISS:       2139
LLC TOTAL     ACCESS:      20843  HIT:      17294  MISS:       3549
LLC LOAD      ACCESS:      11335  HIT:       8088  MISS:       3247
LLC RFO       ACCESS:       1139  HIT:        842  MISS:        297
LLC PREFETCH  ACCESS:          0  HIT:          0  MISS:          0
LLC WRITEBACK ACCESS:       8356  HIT:       8351  MISS:          5
Heartbeat CPU 0 instructions: 54000000 cycles: 16855122 heartbeat IPC: 0.896189 cumulative IPC: 0.923991 (Simulation time: 0 hr 19 min 16 sec) 

Region of Interest Statistics
cpu0_DTLB TOTAL     ACCESS:     784250  HIT:     758417  MISS:      25833
cpu0_DTLB LOAD      ACCESS:     612882  HIT:     591050  MISS:      21832
cpu0_DTLB RFO       ACCESS:     171368  HIT:     167367  MISS:       4001
cpu0_DTLB PREFETCH  ACCESS:          0  HIT:          0  MISS:          0
cpu0_DTLB WRITEBACK ACCESS:          0  HIT:          0  MISS:          0
cpu0_ITLB TOTAL     ACCESS:     393348  HIT:     393348  MISS:          0
cpu0_ITLB LOAD      ACCESS:     393348  HIT:     393348  MISS:          0
cpu0_ITLB RFO       ACCESS:          0  HIT:          0  MISS:          0
cpu0_ITLB PREFETCH  ACCESS:          0  HIT:          0  MISS:          0
cpu0_ITLB WRITEBACK ACCESS:          0  HIT:          0  MISS:          0
cpu0_L1I TOTAL     ACCESS:      58672  HIT:      58660  MISS:         12
cpu0_L1I LOAD      ACCESS:      58672  HIT:      58660  MISS:         12
cpu0_L1I RFO       ACCESS:          0  HIT:          0  MISS:          0
cpu0_L1I PREFETCH  ACCESS:          0  HIT:          0  MISS:          0
cpu0_L1I WRITEBACK ACCESS:          0  HIT:          0  MISS:          0
cpu0_STLB TOTAL     ACCESS:      25833  HIT:      21737  MISS:       4096
cpu0_STLB LOAD      ACCESS:      21832  HIT:      17838  MISS:       3994
cpu0_STLB RFO       ACCESS:       4001  HIT:       3899  MISS:        102
cpu0_STLB PREFETCH  ACCESS:          0  HIT:          0  MISS:          0
cpu0_STLB WRITEBACK ACCESS:          0  HIT:          0  MISS:          0
cpu0_L1D TOTAL     ACCESS:     883767  HIT:     855884  MISS:      27883
cpu0_L1D LOAD      ACCESS:     572637  HIT:     547925  MISS:      24712
cpu0_L1D RFO       ACCESS:     307042  HIT:     303907  MISS:       3135
cpu0_L1D PREFETCH  ACCESS:          0  HIT:          0  MISS:          0
cpu0_L1D WRITEBACK ACCESS:          0  HIT:          0  MISS:          0
cpu0_L2C TOTAL     ACCESS:      45726  HIT:      15760  MISS:      29966
cpu0_L2C LOAD      ACCESS:      24724  HIT:       1966  MISS:      22758
cpu0_L2C RFO       ACCESS:       3135  HIT:        639  MISS:       2496
cpu0_L2C PREFETCH  ACCESS:          0  HIT:          0  MISS:          0
cpu0_L2C WRITEBACK ACCESS:      17831  HIT:      13147  MISS:       4684
LLC TOTAL     ACCESS:      42111  HIT:      34257  MISS:       7854
LLC LOAD      ACCESS:      22757  HIT:      15731  MISS:       7026
LLC RFO       ACCESS:       2495  HIT:       1680  MISS:        815
LLC PREFETCH  ACCESS:          0  HIT:          0  MISS:          0
LLC WRITEBACK ACCESS:      16831  HIT:      16820  MISS:         11
Heartbeat CPU 0 instructions: 56000000 cycles: 18933817 heartbeat IPC: 0.962142 cumulative IPC: 0.936368 (Simulation time: 0 hr 20 min 5 sec) 

Region of Interest Statistics
cpu0_DTLB TOTAL     ACCESS:    1173580  HIT:    1135502  MISS:      38078
cpu0_DTLB LOAD      ACCESS:     918412  HIT:     886020  MISS:      32392
cpu0_DTLB RFO       ACCESS:     255168  HIT:     249482  MISS:       5686
cpu0_DTLB PREFETCH  ACCESS:          0  HIT:          0  MISS:          0
cpu0_DTLB WRITEBACK ACCESS:          0  HIT:          0  MISS:          0
cpu0_ITLB TOTAL     ACCESS:     594634  HIT:     594634  MISS:          0
cpu0_ITLB LOAD      ACCESS:     594634  HIT:     594634  MISS:          0
cpu0_ITLB RFO       ACCESS:          0  HIT:          0  MISS:          0
cpu0_ITLB PREFETCH  ACCESS:          0  HIT:          0  MISS:          0
cpu0_ITLB WRITEBACK ACCESS:          0  HIT:          0  MISS:          0
cpu0_L1I TOTAL     ACCESS:      84997  HIT:      84985  MISS:         12
cpu0_L1I LOAD      ACCESS:      84997  HIT:      84985  MISS:         12
cpu0_L1I RFO       ACCESS:          0  HIT:          0  MISS:          0
cpu0_L1I PREFETCH  ACCESS:          0  HIT:          0  MISS:          0
cpu0_L1I WRITEBACK ACCESS:          0  HIT:          0  MISS:          0
cpu0_STLB TOTAL     ACCESS:      38078  HIT:      32115  MISS:       5963
cpu0_STLB LOAD      ACCESS:      32392  HIT:      26587  MISS:       5805
cpu0_STLB RFO       ACCESS:       5686  HIT:       5528  MISS:        158
cpu0_STLB PREFETCH  ACCESS:          0  HIT:          0  MISS:          0
cpu0_STLB WRITEBACK ACCESS:          0  HIT:          0  MISS:          0
cpu0_L1D TOTAL     ACCESS:    1329515  HIT:    1287806  MISS:      41709
cpu0_L1D LOAD      ACCESS:     863439  HIT:     826348  MISS:      37091
cpu0_L1D RFO       ACCESS:     460124  HIT:     455555  MISS:       4569
cpu0_L1D PREFETCH  ACCESS:          0  HIT:          0  MISS:          0
cpu0_L1D WRITEBACK ACCESS:          0  HIT:          0  MISS:          0
cpu0_L2C TOTAL     ACCESS:      68480  HIT:      23484  MISS:      44996
cpu0_L2C LOAD      ACCESS:      37103  HIT:       2971  MISS:      34132
cpu0_L2C RFO       ACCESS:       4569  HIT:        966  MISS:       3603
cpu0_L2C PREFETCH  ACCESS:          0  HIT:          0  MISS:          0
cpu0_L2C WRITEBACK ACCESS:      26759  HIT:      19536  MISS:       7223
LLC TOTAL     ACCESS:      62998  HIT:      52056  MISS:      10942
LLC LOAD      ACCESS:      34131  HIT:      24314  MISS:       9817
LLC RFO       ACCESS:       3602  HIT:       2498  MISS:       1104
LLC PREFETCH  ACCESS:          0  HIT:          0  MISS:          0
LLC WRITEBACK ACCESS:      25227  HIT:      25208  MISS:         19
Heartbeat CPU 0 instructions: 58000000 cycles: 21056495 heartbeat IPC: 0.942206 cumulative IPC: 0.93782 (Simulation time: 0 hr 20 min 50 sec) 

Region of Interest Statistics
cpu0_DTLB TOTAL     ACCESS:    1564985  HIT:    1514411  MISS:      50574
cpu0_DTLB LOAD      ACCESS:    1226614  HIT:    1183504  MISS:      43110
cpu0_DTLB RFO       ACCESS:     338371  HIT:     330907  MISS:       7464
cpu0_DTLB PREFETCH  ACCESS:          0  HIT:          0  MISS:          0
cpu0_DTLB WRITEBACK ACCESS:          0  HIT:          0  MISS:          0
cpu0_ITLB TOTAL     ACCESS:     796534  HIT:     796534  MISS:          0
cpu0_ITLB LOAD      ACCESS:     796534  HIT:     796534  MISS:          0
cpu0_ITLB RFO       ACCESS:          0  HIT:          0  MISS:          0
cpu0_ITLB PREFETCH  ACCESS:          0  HIT:          0  MISS:          0
cpu0_ITLB WRITEBACK ACCESS:          0  HIT:          0  MISS:          0
cpu0_L1I TOTAL     ACCESS:     111063  HIT:     111049  MISS:         14
cpu0_L1I LOAD      ACCESS:     111063  HIT:     111049  MISS:         14
cpu0_L1I RFO       ACCESS:          0  HIT:          0  MISS:          0
cpu0_L1I PREFETCH  ACCESS:          0  HIT:          0  MISS:          0
cpu0_L1I WRITEBACK ACCESS:          0  HIT:          0  MISS:          0
cpu0_STLB TOTAL     ACCESS:      50574  HIT:      42488  MISS:       8086
cpu0_STLB LOAD      ACCESS:      43110  HIT:      35228  MISS:       7882
cpu0_STLB RFO       ACCESS:       7464  HIT:       7260  MISS:        204
cpu0_STLB PREFETCH  ACCESS:          0  HIT:          0  MISS:          0
cpu0_STLB WRITEBACK ACCESS:          0  HIT:          0  MISS:          0
cpu0_L1D TOTAL     ACCESS:    1765819  HIT:    1710247  MISS:      55572
cpu0_L1D LOAD      ACCESS:    1149460  HIT:    1099969  MISS:      49491
cpu0_L1D RFO       ACCESS:     608289  HIT:     602272  MISS:       6017
cpu0_L1D PREFETCH  ACCESS:          0  HIT:          0  MISS:          0
cpu0_L1D WRITEBACK ACCESS:          0  HIT:          0  MISS:          0
cpu0_L2C TOTAL     ACCESS:      91312  HIT:      31166  MISS:      60146
cpu0_L2C LOAD      ACCESS:      49504  HIT:       3889  MISS:      45615
cpu0_L2C RFO       ACCESS:       6017  HIT:       1259  MISS:       4758
cpu0_L2C PREFETCH  ACCESS:          0  HIT:          0  MISS:          0
cpu0_L2C WRITEBACK ACCESS:      35727  HIT:      26004  MISS:       9723
LLC TOTAL     ACCESS:      84141  HIT:      69585  MISS:      14556
LLC LOAD      ACCESS:      45614  HIT:      32468  MISS:      13146
LLC RFO       ACCESS:       4757  HIT:       3369  MISS:       1388
LLC PREFETCH  ACCESS:          0  HIT:          0  MISS:          0
LLC WRITEBACK ACCESS:      33720  HIT:      33700  MISS:         20
Heartbeat CPU 0 instructions: 60000001 cycles: 23162716 heartbeat IPC: 0.949568 cumulative IPC: 0.940147 (Simulation time: 0 hr 21 min 41 sec) 

Region of Interest Statistics
cpu0_DTLB TOTAL     ACCESS:    1954871  HIT:    1891422  MISS:      63449
cpu0_DTLB LOAD      ACCESS:    1534309  HIT:    1480226  MISS:      54083
cpu0_DTLB RFO       ACCESS:     420562  HIT:     411196  MISS:       9366
cpu0_DTLB PREFETCH  ACCESS:          0  HIT:          0  MISS:          0
cpu0_DTLB WRITEBACK ACCESS:          0  HIT:          0  MISS:          0
cpu0_ITLB TOTAL     ACCESS:     998383  HIT:     998383  MISS:          0
cpu0_ITLB LOAD      ACCESS:     998383  HIT:     998383  MISS:          0
cpu0_ITLB RFO       ACCESS:          0  HIT:          0  MISS:          0
cpu0_ITLB PREFETCH  ACCESS:          0  HIT:          0  MISS:          0
cpu0_ITLB WRITEBACK ACCESS:          0  HIT:          0  MISS:          0
cpu0_L1I TOTAL     ACCESS:     136836  HIT:     136822  MISS:         14
cpu0_L1I LOAD      ACCESS:     136836  HIT:     136822  MISS:         14
cpu0_L1I RFO       ACCESS:          0  HIT:          0  MISS:          0
cpu0_L1I PREFETCH  ACCESS:          0  HIT:          0  MISS:          0
cpu0_L1I WRITEBACK ACCESS:          0  HIT:          0  MISS:          0
cpu0_STLB TOTAL     ACCESS:      63449  HIT:      53640  MISS:       9809
cpu0_STLB LOAD      ACCESS:      54083  HIT:      44513  MISS:       9570
cpu0_STLB RFO       ACCESS:       9366  HIT:       9127  MISS:        239
cpu0_STLB PREFETCH  ACCESS:          0  HIT:          0  MISS:          0
cpu0_STLB WRITEBACK ACCESS:          0  HIT:          0  MISS:          0
cpu0_L1D TOTAL     ACCESS:    2209789  HIT:    2140342  MISS:      69447
cpu0_L1D LOAD      ACCESS:    1443508  HIT:    1381487  MISS:      62021
cpu0_L1D RFO       ACCESS:     756494  HIT:     749144  MISS:       7350
cpu0_L1D PREFETCH  ACCESS:          0  HIT:          0  MISS:          0
cpu0_L1D WRITEBACK ACCESS:          0  HIT:          0  MISS:          0
cpu0_L2C TOTAL     ACCESS:     114079  HIT:      39230  MISS:      74849
cpu0_L2C LOAD      ACCESS:      62034  HIT:       4854  MISS:      57180
cpu0_L2C RFO       ACCESS:       7350  HIT:       1627  MISS:       5723
cpu0_L2C PREFETCH  ACCESS:          0  HIT:          0  MISS:          0
cpu0_L2C WRITEBACK ACCESS:      44619  HIT:      32733  MISS:      11886
LLC TOTAL     ACCESS:     105043  HIT:      87449  MISS:      17594
LLC LOAD      ACCESS:      57179  HIT:      41235  MISS:      15944
LLC RFO       ACCESS:       5722  HIT:       4095  MISS:       1627
LLC PREFETCH  ACCESS:          0  HIT:          0  MISS:          0
LLC WRITEBACK ACCESS:      42082  HIT:      42061  MISS:         21
Heartbeat CPU 0 instructions: 62000001 cycles: 25119996 heartbeat IPC: 1.02183 cumulative IPC: 0.952841 (Simulation time: 0 hr 22 min 28 sec) 

Region of Interest Statistics
cpu0_DTLB TOTAL     ACCESS:    2338119  HIT:    2263095  MISS:      75024
cpu0_DTLB LOAD      ACCESS:    1834133  HIT:    1770729  MISS:      63404
cpu0_DTLB RFO       ACCESS:     503986  HIT:     492366  MISS:      11620
cpu0_DTLB PREFETCH  ACCESS:          0  HIT:          0  MISS:          0
cpu0_DTLB WRITEBACK ACCESS:          0  HIT:          0  MISS:          0
cpu0_ITLB TOTAL     ACCESS:    1193946  HIT:    1193946  MISS:          0
cpu0_ITLB LOAD      ACCESS:    1193946  HIT:    1193946  MISS:          0
cpu0_ITLB RFO       ACCESS:          0  HIT:          0  MISS:          0
cpu0_ITLB PREFETCH  ACCESS:          0  HIT:          0  MISS:          0
cpu0_ITLB WRITEBACK ACCESS:          0  HIT:          0  MISS:          0
cpu0_L1I TOTAL     ACCESS:     168278  HIT:     168264  MISS:         14
cpu0_L1I LOAD      ACCESS:     168278  HIT:     168264  MISS:         14
cpu0_L1I RFO       ACCESS:          0  HIT:          0  MISS:          0
cpu0_L1I PREFETCH  ACCESS:          0  HIT:          0  MISS:          0
cpu0_L1I WRITEBACK ACCESS:          0  HIT:          0  MISS:          0
cpu0_STLB TOTAL     ACCESS:      75024  HIT:      63493  MISS:      11531
cpu0_STLB LOAD      ACCESS:      63404  HIT:      52200  MISS:      11204
cpu0_STLB RFO       ACCESS:      11620  HIT:      11293  MISS:        327
cpu0_STLB PREFETCH  ACCESS:          0  HIT:          0  MISS:          0
cpu0_STLB WRITEBACK ACCESS:          0  HIT:          0  MISS:          0
cpu0_L1D TOTAL     ACCESS:    2636477  HIT:    2554604  MISS:      81873
cpu0_L1D LOAD      ACCESS:    1719301  HIT:    1646414  MISS:      72887
cpu0_L1D RFO       ACCESS:     905669  HIT:     896771  MISS:       8898
cpu0_L1D PREFETCH  ACCESS:          0  HIT:          0  MISS:          0
cpu0_L1D WRITEBACK ACCESS:          0  HIT:          0  MISS:          0
cpu0_L2C TOTAL     ACCESS:     134712  HIT:      46981  MISS:      87731
cpu0_L2C LOAD      ACCESS:      72900  HIT:       6006  MISS:      66894
cpu0_L2C RFO       ACCESS:       8897  HIT:       1982  MISS:       6915
cpu0_L2C PREFETCH  ACCESS:          0  HIT:          0  MISS:          0
cpu0_L2C WRITEBACK ACCESS:      52827  HIT:      38975  MISS:      13852
LLC TOTAL     ACCESS:     123452  HIT:     102709  MISS:      20743
LLC LOAD      ACCESS:      66893  HIT:      48137  MISS:      18756
LLC RFO       ACCESS:       6914  HIT:       4952  MISS:       1962
LLC PREFETCH  ACCESS:          0  HIT:          0  MISS:          0
LLC WRITEBACK ACCESS:      49575  HIT:      49552  MISS:         23
Heartbeat CPU 0 instructions: 64000002 cycles: 27094717 heartbeat IPC: 1.0128 cumulative IPC: 0.960968 (Simulation time: 0 hr 23 min 18 sec) 

Region of Interest Statistics
cpu0_DTLB TOTAL     ACCESS:    2716378  HIT:    2629972  MISS:      86406
cpu0_DTLB LOAD      ACCESS:    2132512  HIT:    2060029  MISS:      72483
cpu0_DTLB RFO       ACCESS:     583866  HIT:     569943  MISS:      13923
cpu0_DTLB PREFETCH  ACCESS:          0  HIT:          0  MISS:          0
cpu0_DTLB WRITEBACK ACCESS:          0  HIT:          0  MISS:          0
cpu0_ITLB TOTAL     ACCESS:    1383358  HIT:    1383358  MISS:          0
cpu0_ITLB LOAD      ACCESS:    1383358  HIT:    1383358  MISS:          0
cpu0_ITLB RFO       ACCESS:          0  HIT:          0  MISS:          0
cpu0_ITLB PREFETCH  ACCESS:          0  HIT:          0  MISS:          0
cpu0_ITLB WRITEBACK ACCESS:          0  HIT:          0  MISS:          0
cpu0_L1I TOTAL     ACCESS:     195072  HIT:     195047  MISS:         25
cpu0_L1I LOAD      ACCESS:     195072  HIT:     195047  MISS:         25
cpu0_L1I RFO       ACCESS:          0  HIT:          0  MISS:          0
cpu0_L1I PREFETCH  ACCESS:          0  HIT:          0  MISS:          0
cpu0_L1I WRITEBACK ACCESS:          0  HIT:          0  MISS:          0
cpu0_STLB TOTAL     ACCESS:      86406  HIT:      73031  MISS:      13375
cpu0_STLB LOAD      ACCESS:      72483  HIT:      59615  MISS:      12868
cpu0_STLB RFO       ACCESS:      13923  HIT:      13416  MISS:        507
cpu0_STLB PREFETCH  ACCESS:          0  HIT:          0  MISS:          0
cpu0_STLB WRITEBACK ACCESS:          0  HIT:          0  MISS:          0
cpu0_L1D TOTAL     ACCESS:    3062762  HIT:    2967852  MISS:      94910
cpu0_L1D LOAD      ACCESS:    2003139  HIT:    1919243  MISS:      83896
cpu0_L1D RFO       ACCESS:    1046273  HIT:    1035366  MISS:      10907
cpu0_L1D PREFETCH  ACCESS:          0  HIT:          0  MISS:          0
cpu0_L1D WRITEBACK ACCESS:          0  HIT:          0  MISS:          0
cpu0_L2C TOTAL     ACCESS:     156575  HIT:      54502  MISS:     102073
cpu0_L2C LOAD      ACCESS:      83920  HIT:       6852  MISS:      77068
cpu0_L2C RFO       ACCESS:      10906  HIT:       2352  MISS:       8554
cpu0_L2C PREFETCH  ACCESS:          0  HIT:          0  MISS:          0
cpu0_L2C WRITEBACK ACCESS:      61642  HIT:      45276  MISS:      16366
LLC TOTAL     ACCESS:     143519  HIT:     120060  MISS:      23459
LLC LOAD      ACCESS:      77067  HIT:      56087  MISS:      20980
LLC RFO       ACCESS:       8553  HIT:       6105  MISS:       2448
LLC PREFETCH  ACCESS:          0  HIT:          0  MISS:          0
LLC WRITEBACK ACCESS:      57814  HIT:      57786  MISS:         28
Heartbeat CPU 0 instructions: 66000000 cycles: 29105124 heartbeat IPC: 0.994822 cumulative IPC: 0.965074 (Simulation time: 0 hr 24 min 2 sec) 

Region of Interest Statistics
cpu0_DTLB TOTAL     ACCESS:    3105266  HIT:    3007489  MISS:      97777
cpu0_DTLB LOAD      ACCESS:    2436920  HIT:    2354774  MISS:      82146
cpu0_DTLB RFO       ACCESS:     668346  HIT:     652715  MISS:      15631
cpu0_DTLB PREFETCH  ACCESS:          0  HIT:          0  MISS:          0
cpu0_DTLB WRITEBACK ACCESS:          0  HIT:          0  MISS:          0
cpu0_ITLB TOTAL     ACCESS:    1583240  HIT:    1583240  MISS:          0
cpu0_ITLB LOAD      ACCESS:    1583240  HIT:    1583240  MISS:          0
cpu0_ITLB RFO       ACCESS:          0  HIT:          0  MISS:          0
cpu0_ITLB PREFETCH  ACCESS:          0  HIT:          0  MISS:          0
cpu0_ITLB WRITEBACK ACCESS:          0  HIT:          0  MISS:          0
cpu0_L1I TOTAL     ACCESS:     223129  HIT:     223103  MISS:         26
cpu0_L1I LOAD      ACCESS:     223129  HIT:     223103  MISS:         26
cpu0_L1I RFO       ACCESS:          0  HIT:          0  MISS:          0
cpu0_L1I PREFETCH  ACCESS:          0  HIT:          0  MISS:          0
cpu0_L1I WRITEBACK ACCESS:          0  HIT:          0  MISS:          0
cpu0_STLB TOTAL     ACCESS:      97777  HIT:      82660  MISS:      15117
cpu0_STLB LOAD      ACCESS:      82146  HIT:      67584  MISS:      14562
cpu0_STLB RFO       ACCESS:      15631  HIT:      15076  MISS:        555
cpu0_STLB PREFETCH  ACCESS:          0  HIT:          0  MISS:          0
cpu0_STLB WRITEBACK ACCESS:          0  HIT:          0  MISS:          0
cpu0_L1D TOTAL     ACCESS:    3512412  HIT:    3405026  MISS:     107386
cpu0_L1D LOAD      ACCESS:    2294962  HIT:    2199975  MISS:      94987
cpu0_L1D RFO       ACCESS:    1202361  HIT:    1190082  MISS:      12279
cpu0_L1D PREFETCH  ACCESS:          0  HIT:          0  MISS:          0
cpu0_L1D WRITEBACK ACCESS:          0  HIT:          0  MISS:          0
cpu0_L2C TOTAL     ACCESS:     177200  HIT:      61832  MISS:     115368
cpu0_L2C LOAD      ACCESS:      95012  HIT:       7725  MISS:      87287
cpu0_L2C RFO       ACCESS:      12278  HIT:       2658  MISS:       9620
cpu0_L2C PREFETCH  ACCESS:          0  HIT:          0  MISS:          0
cpu0_L2C WRITEBACK ACCESS:      69790  HIT:      51424  MISS:      18366
LLC TOTAL     ACCESS:     162476  HIT:     136171  MISS:      26305
LLC LOAD      ACCESS:      87286  HIT:      63710  MISS:      23576
LLC RFO       ACCESS:       9619  HIT:       6922  MISS:       2697
LLC PREFETCH  ACCESS:          0  HIT:          0  MISS:          0
LLC WRITEBACK ACCESS:      65476  HIT:      65447  MISS:         29
Heartbeat CPU 0 instructions: 68000002 cycles: 31126071 heartbeat IPC: 0.989636 cumulative IPC: 0.967742 (Simulation time: 0 hr 24 min 52 sec) 

Region of Interest Statistics
cpu0_DTLB TOTAL     ACCESS:    3486068  HIT:    3375928  MISS:     110140
cpu0_DTLB LOAD      ACCESS:    2733785  HIT:    2641458  MISS:      92327
cpu0_DTLB RFO       ACCESS:     752283  HIT:     734470  MISS:      17813
cpu0_DTLB PREFETCH  ACCESS:          0  HIT:          0  MISS:          0
cpu0_DTLB WRITEBACK ACCESS:          0  HIT:          0  MISS:          0
cpu0_ITLB TOTAL     ACCESS:    1781110  HIT:    1781110  MISS:          0
cpu0_ITLB LOAD      ACCESS:    1781110  HIT:    1781110  MISS:          0
cpu0_ITLB RFO       ACCESS:          0  HIT:          0  MISS:          0
cpu0_ITLB PREFETCH  ACCESS:          0  HIT:          0  MISS:          0
cpu0_ITLB WRITEBACK ACCESS:          0  HIT:          0  MISS:          0
cpu0_L1I TOTAL     ACCESS:     252120  HIT:     252093  MISS:         27
cpu0_L1I LOAD      ACCESS:     252120  HIT:     252093  MISS:         27
cpu0_L1I RFO       ACCESS:          0  HIT:          0  MISS:          0
cpu0_L1I PREFETCH  ACCESS:          0  HIT:          0  MISS:          0
cpu0_L1I WRITEBACK ACCESS:          0  HIT:          0  MISS:          0
cpu0_STLB TOTAL     ACCESS:     110140  HIT:      93154  MISS:      16986
cpu0_STLB LOAD      ACCESS:      92327  HIT:      75963  MISS:      16364
cpu0_STLB RFO       ACCESS:      17813  HIT:      17191  MISS:        622
cpu0_STLB PREFETCH  ACCESS:          0  HIT:          0  MISS:          0
cpu0_STLB WRITEBACK ACCESS:          0  HIT:          0  MISS:          0
cpu0_L1D TOTAL     ACCESS:    3953418  HIT:    3832763  MISS:     120655
cpu0_L1D LOAD      ACCESS:    2580785  HIT:    2474060  MISS:     106725
cpu0_L1D RFO       ACCESS:    1355682  HIT:    1341885  MISS:      13797
cpu0_L1D PREFETCH  ACCESS:          0  HIT:          0  MISS:          0
cpu0_L1D WRITEBACK ACCESS:          0  HIT:          0  MISS:          0
cpu0_L2C TOTAL     ACCESS:     199053  HIT:      69752  MISS:     129301
cpu0_L2C LOAD      ACCESS:     106751  HIT:       8747  MISS:      98004
cpu0_L2C RFO       ACCESS:      13796  HIT:       3070  MISS:      10726
cpu0_L2C PREFETCH  ACCESS:          0  HIT:          0  MISS:          0
cpu0_L2C WRITEBACK ACCESS:      78373  HIT:      57908  MISS:      20465
LLC TOTAL     ACCESS:     182220  HIT:     152900  MISS:      29320
LLC LOAD      ACCESS:      98003  HIT:      71692  MISS:      26311
LLC RFO       ACCESS:      10725  HIT:       7749  MISS:       2976
LLC PREFETCH  ACCESS:          0  HIT:          0  MISS:          0
LLC WRITEBACK ACCESS:      73386  HIT:      73356  MISS:         30
Heartbeat CPU 0 instructions: 70000001 cycles: 33142827 heartbeat IPC: 0.991691 cumulative IPC: 0.970085 (Simulation time: 0 hr 25 min 40 sec) 

Region of Interest Statistics
cpu0_DTLB TOTAL     ACCESS:    3875687  HIT:    3753967  MISS:     121720
cpu0_DTLB LOAD      ACCESS:    3040847  HIT:    2938699  MISS:     102148
cpu0_DTLB RFO       ACCESS:     834840  HIT:     815268  MISS:      19572
cpu0_DTLB PREFETCH  ACCESS:          0  HIT:          0  MISS:          0
cpu0_DTLB WRITEBACK ACCESS:          0  HIT:          0  MISS:          0
cpu0_ITLB TOTAL     ACCESS:    1980592  HIT:    1980592  MISS:          0
cpu0_ITLB LOAD      ACCESS:    1980592  HIT:    1980592  MISS:          0
cpu0_ITLB RFO       ACCESS:          0  HIT:          0  MISS:          0
cpu0_ITLB PREFETCH  ACCESS:          0  HIT:          0  MISS:          0
cpu0_ITLB WRITEBACK ACCESS:          0  HIT:          0  MISS:          0
cpu0_L1I TOTAL     ACCESS:     278813  HIT:     278786  MISS:         27
cpu0_L1I LOAD      ACCESS:     278813  HIT:     278786  MISS:         27
cpu0_L1I RFO       ACCESS:          0  HIT:          0  MISS:          0
cpu0_L1I PREFETCH  ACCESS:          0  HIT:          0  MISS:          0
cpu0_L1I WRITEBACK ACCESS:          0  HIT:          0  MISS:          0
cpu0_STLB TOTAL     ACCESS:     121720  HIT:     102962  MISS:      18758
cpu0_STLB LOAD      ACCESS:     102148  HIT:      84082  MISS:      18066
cpu0_STLB RFO       ACCESS:      19572  HIT:      18880  MISS:        692
cpu0_STLB PREFETCH  ACCESS:          0  HIT:          0  MISS:          0
cpu0_STLB WRITEBACK ACCESS:          0  HIT:          0  MISS:          0
cpu0_L1D TOTAL     ACCESS:    4391649  HIT:    4257957  MISS:     133692
cpu0_L1D LOAD      ACCESS:    2868003  HIT:    2749726  MISS:     118277
cpu0_L1D RFO       ACCESS:    1504927  HIT:    1489655  MISS:      15272
cpu0_L1D PREFETCH  ACCESS:          0  HIT:          0  MISS:          0
cpu0_L1D WRITEBACK ACCESS:          0  HIT:          0  MISS:          0
cpu0_L2C TOTAL     ACCESS:     220625  HIT:      77230  MISS:     143395
cpu0_L2C LOAD      ACCESS:     118303  HIT:       9613  MISS:     108690
cpu0_L2C RFO       ACCESS:      15269  HIT:       3402  MISS:      11867
cpu0_L2C PREFETCH  ACCESS:          0  HIT:          0  MISS:          0
cpu0_L2C WRITEBACK ACCESS:      86910  HIT:      64185  MISS:      22725
LLC TOTAL     ACCESS:     202152  HIT:     169991  MISS:      32161
LLC LOAD      ACCESS:     108689  HIT:      79840  MISS:      28849
LLC RFO       ACCESS:      11866  HIT:       8588  MISS:       3278
LLC PREFETCH  ACCESS:          0  HIT:          0  MISS:          0
LLC WRITEBACK ACCESS:      81484  HIT:      81453  MISS:         31
Heartbeat CPU 0 instructions: 72000002 cycles: 35140344 heartbeat IPC: 1.00124 cumulative IPC: 0.972837 (Simulation time: 0 hr 26 min 29 sec) 

Region of Interest Statistics
cpu0_DTLB TOTAL     ACCESS:    4261831  HIT:    4129769  MISS:     132062
cpu0_DTLB LOAD      ACCESS:    3344167  HIT:    3233662  MISS:     110505
cpu0_DTLB RFO       ACCESS:     917664  HIT:     896107  MISS:      21557
cpu0_DTLB PREFETCH  ACCESS:          0  HIT:          0  MISS:          0
cpu0_DTLB WRITEBACK ACCESS:          0  HIT:          0  MISS:          0
cpu0_ITLB TOTAL     ACCESS:    2172562  HIT:    2172562  MISS:          0
cpu0_ITLB LOAD      ACCESS:    2172562  HIT:    2172562  MISS:          0
cpu0_ITLB RFO       ACCESS:          0  HIT:          0  MISS:          0
cpu0_ITLB PREFETCH  ACCESS:          0  HIT:          0  MISS:          0
cpu0_ITLB WRITEBACK ACCESS:          0  HIT:          0  MISS:          0
cpu0_L1I TOTAL     ACCESS:     307669  HIT:     307632  MISS:         37
cpu0_L1I LOAD      ACCESS:     307669  HIT:     307632  MISS:         37
cpu0_L1I RFO       ACCESS:          0  HIT:          0  MISS:          0
cpu0_L1I PREFETCH  ACCESS:          0  HIT:          0  MISS:          0
cpu0_L1I WRITEBACK ACCESS:          0  HIT:          0  MISS:          0
cpu0_STLB TOTAL     ACCESS:     132062  HIT:     111562  MISS:      20500
cpu0_STLB LOAD      ACCESS:     110505  HIT:      90772  MISS:      19733
cpu0_STLB RFO       ACCESS:      21557  HIT:      20790  MISS:        767
cpu0_STLB PREFETCH  ACCESS:          0  HIT:          0  MISS:          0
cpu0_STLB WRITEBACK ACCESS:          0  HIT:          0  MISS:          0
cpu0_L1D TOTAL     ACCESS:    4827549  HIT:    4681098  MISS:     146451
cpu0_L1D LOAD      ACCESS:    3154592  HIT:    3025313  MISS:     129279
cpu0_L1D RFO       ACCESS:    1652498  HIT:    1635485  MISS:      17013
cpu0_L1D PREFETCH  ACCESS:          0  HIT:          0  MISS:          0
cpu0_L1D WRITEBACK ACCESS:          0  HIT:          0  MISS:          0
cpu0_L2C TOTAL     ACCESS:     241786  HIT:      84606  MISS:     157180
cpu0_L2C LOAD      ACCESS:     129315  HIT:      10527  MISS:     118788
cpu0_L2C RFO       ACCESS:      17009  HIT:       3804  MISS:      13205
cpu0_L2C PREFETCH  ACCESS:          0  HIT:          0  MISS:          0
cpu0_L2C WRITEBACK ACCESS:      95303  HIT:      70243  MISS:      25060
LLC TOTAL     ACCESS:     221448  HIT:     186399  MISS:      35049
LLC LOAD      ACCESS:     118786  HIT:      87505  MISS:      31281
LLC RFO       ACCESS:      13204  HIT:       9477  MISS:       3727
LLC PREFETCH  ACCESS:          0  HIT:          0  MISS:          0
LLC WRITEBACK ACCESS:      89331  HIT:      89296  MISS:         35
Heartbeat CPU 0 instructions: 74000000 cycles: 37039784 heartbeat IPC: 1.05294 cumulative IPC: 0.979044 (Simulation time: 0 hr 27 min 16 sec) 

Region of Interest Statistics
cpu0_DTLB TOTAL     ACCESS:    4645071  HIT:    4501589  MISS:     143482
cpu0_DTLB LOAD      ACCESS:    3644893  HIT:    3525424  MISS:     119469
cpu0_DTLB RFO       ACCESS:    1000178  HIT:     976165  MISS:      24013
cpu0_DTLB PREFETCH  ACCESS:          0  HIT:          0  MISS:          0
cpu0_DTLB WRITEBACK ACCESS:          0  HIT:          0  MISS:          0
cpu0_ITLB TOTAL     ACCESS:    2362479  HIT:    2362479  MISS:          0
cpu0_ITLB LOAD      ACCESS:    2362479  HIT:    2362479  MISS:          0
cpu0_ITLB RFO       ACCESS:          0  HIT:          0  MISS:          0
cpu0_ITLB PREFETCH  ACCESS:          0  HIT:          0  MISS:          0
cpu0_ITLB WRITEBACK ACCESS:          0  HIT:          0  MISS:          0
cpu0_L1I TOTAL     ACCESS:     342293  HIT:     342256  MISS:         37
cpu0_L1I LOAD      ACCESS:     342293  HIT:     342256  MISS:         37
cpu0_L1I RFO       ACCESS:          0  HIT:          0  MISS:          0
cpu0_L1I PREFETCH  ACCESS:          0  HIT:          0  MISS:          0
cpu0_L1I WRITEBACK ACCESS:          0  HIT:          0  MISS:          0
cpu0_STLB TOTAL     ACCESS:     143482  HIT:     120957  MISS:      22525
cpu0_STLB LOAD      ACCESS:     119469  HIT:      97868  MISS:      21601
cpu0_STLB RFO       ACCESS:      24013  HIT:      23089  MISS:        924
cpu0_STLB PREFETCH  ACCESS:          0  HIT:          0  MISS:          0
cpu0_STLB WRITEBACK ACCESS:          0  HIT:          0  MISS:          0
cpu0_L1D TOTAL     ACCESS:    5242401  HIT:    5082546  MISS:     159855
cpu0_L1D LOAD      ACCESS:    3421514  HIT:    3280922  MISS:     140592
cpu0_L1D RFO       ACCESS:    1798407  HIT:    1779317  MISS:      19090
cpu0_L1D PREFETCH  ACCESS:          0  HIT:          0  MISS:          0
cpu0_L1D WRITEBACK ACCESS:          0  HIT:          0  MISS:          0
cpu0_L2C TOTAL     ACCESS:     264384  HIT:      92157  MISS:     172227
cpu0_L2C LOAD      ACCESS:     140628  HIT:      11454  MISS:     129174
cpu0_L2C RFO       ACCESS:      19085  HIT:       4209  MISS:      14876
cpu0_L2C PREFETCH  ACCESS:          0  HIT:          0  MISS:          0
cpu0_L2C WRITEBACK ACCESS:     104498  HIT:      76462  MISS:      28036
LLC TOTAL     ACCESS:     242102  HIT:     203983  MISS:      38119
LLC LOAD      ACCESS:     129172  HIT:      95281  MISS:      33891
LLC RFO       ACCESS:      14874  HIT:      10702  MISS:       4172
LLC PREFETCH  ACCESS:          0  HIT:          0  MISS:          0
LLC WRITEBACK ACCESS:      97915  HIT:      97865  MISS:         50
Heartbeat CPU 0 instructions: 76000004 cycles: 39063019 heartbeat IPC: 0.988518 cumulative IPC: 0.979766 (Simulation time: 0 hr 28 min 2 sec) 

Region of Interest Statistics
cpu0_DTLB TOTAL     ACCESS:    5035211  HIT:    4879590  MISS:     155621
cpu0_DTLB LOAD      ACCESS:    3952472  HIT:    3822823  MISS:     129649
cpu0_DTLB RFO       ACCESS:    1082739  HIT:    1056767  MISS:      25972
cpu0_DTLB PREFETCH  ACCESS:          0  HIT:          0  MISS:          0
cpu0_DTLB WRITEBACK ACCESS:          0  HIT:          0  MISS:          0
cpu0_ITLB TOTAL     ACCESS:    2562591  HIT:    2562591  MISS:          0
cpu0_ITLB LOAD      ACCESS:    2562591  HIT:    2562591  MISS:          0
cpu0_ITLB RFO       ACCESS:          0  HIT:          0  MISS:          0
cpu0_ITLB PREFETCH  ACCESS:          0  HIT:          0  MISS:          0
cpu0_ITLB WRITEBACK ACCESS:          0  HIT:          0  MISS:          0
cpu0_L1I TOTAL     ACCESS:     368919  HIT:     368882  MISS:         37
cpu0_L1I LOAD      ACCESS:     368919  HIT:     368882  MISS:         37
cpu0_L1I RFO       ACCESS:          0  HIT:          0  MISS:          0
cpu0_L1I PREFETCH  ACCESS:          0  HIT:          0  MISS:          0
cpu0_L1I WRITEBACK ACCESS:          0  HIT:          0  MISS:          0
cpu0_STLB TOTAL     ACCESS:     155621  HIT:     131203  MISS:      24418
cpu0_STLB LOAD      ACCESS:     129649  HIT:     106224  MISS:      23425
cpu0_STLB RFO       ACCESS:      25972  HIT:      24979  MISS:        993
cpu0_STLB PREFETCH  ACCESS:          0  HIT:          0  MISS:          0
cpu0_STLB WRITEBACK ACCESS:          0  HIT:          0  MISS:          0
cpu0_L1D TOTAL     ACCESS:    5679553  HIT:    5506746  MISS:     172807
cpu0_L1D LOAD      ACCESS:    3707447  HIT:    3555323  MISS:     152124
cpu0_L1D RFO       ACCESS:    1947735  HIT:    1927243  MISS:      20492
cpu0_L1D PREFETCH  ACCESS:          0  HIT:          0  MISS:          0
cpu0_L1D WRITEBACK ACCESS:          0  HIT:          0  MISS:          0
cpu0_L2C TOTAL     ACCESS:     285860  HIT:      99594  MISS:     186266
cpu0_L2C LOAD      ACCESS:     152160  HIT:      12379  MISS:     139781
cpu0_L2C RFO       ACCESS:      20486  HIT:       4523  MISS:      15963
cpu0_L2C PREFETCH  ACCESS:          0  HIT:          0  MISS:          0
cpu0_L2C WRITEBACK ACCESS:     113023  HIT:      82658  MISS:      30365
LLC TOTAL     ACCESS:     261838  HIT:     220769  MISS:      41069
LLC LOAD      ACCESS:     139779  HIT:     103218  MISS:      36561
LLC RFO       ACCESS:      15961  HIT:      11513  MISS:       4448
LLC PREFETCH  ACCESS:          0  HIT:          0  MISS:          0
LLC WRITEBACK ACCESS:     105941  HIT:     105887  MISS:         54
Heartbeat CPU 0 instructions: 78000004 cycles: 41204288 heartbeat IPC: 0.934026 cumulative IPC: 0.976351 (Simulation time: 0 hr 28 min 47 sec) 

Region of Interest Statistics
cpu0_DTLB TOTAL     ACCESS:    5427068  HIT:    5258870  MISS:     168198
cpu0_DTLB LOAD      ACCESS:    4261721  HIT:    4121126  MISS:     140595
cpu0_DTLB RFO       ACCESS:    1165347  HIT:    1137744  MISS:      27603
cpu0_DTLB PREFETCH  ACCESS:          0  HIT:          0  MISS:          0
cpu0_DTLB WRITEBACK ACCESS:          0  HIT:          0  MISS:          0
cpu0_ITLB TOTAL     ACCESS:    2764179  HIT:    2764179  MISS:          0
cpu0_ITLB LOAD      ACCESS:    2764179  HIT:    2764179  MISS:          0
cpu0_ITLB RFO       ACCESS:          0  HIT:          0  MISS:          0
cpu0_ITLB PREFETCH  ACCESS:          0  HIT:          0  MISS:          0
cpu0_ITLB WRITEBACK ACCESS:          0  HIT:          0  MISS:          0
cpu0_L1I TOTAL     ACCESS:     394597  HIT:     394560  MISS:         37
cpu0_L1I LOAD      ACCESS:     394597  HIT:     394560  MISS:         37
cpu0_L1I RFO       ACCESS:          0  HIT:          0  MISS:          0
cpu0_L1I PREFETCH  ACCESS:          0  HIT:          0  MISS:          0
cpu0_L1I WRITEBACK ACCESS:          0  HIT:          0  MISS:          0
cpu0_STLB TOTAL     ACCESS:     168198  HIT:     141952  MISS:      26246
cpu0_STLB LOAD      ACCESS:     140595  HIT:     115366  MISS:      25229
cpu0_STLB RFO       ACCESS:      27603  HIT:      26586  MISS:       1017
cpu0_STLB PREFETCH  ACCESS:          0  HIT:          0  MISS:          0
cpu0_STLB WRITEBACK ACCESS:          0  HIT:          0  MISS:          0
cpu0_L1D TOTAL     ACCESS:    6121465  HIT:    5934704  MISS:     186761
cpu0_L1D LOAD      ACCESS:    3998251  HIT:    3833658  MISS:     164593
cpu0_L1D RFO       ACCESS:    2097017  HIT:    2075053  MISS:      21964
cpu0_L1D PREFETCH  ACCESS:          0  HIT:          0  MISS:          0
cpu0_L1D WRITEBACK ACCESS:          0  HIT:          0  MISS:          0
cpu0_L2C TOTAL     ACCESS:     308830  HIT:     107304  MISS:     201526
cpu0_L2C LOAD      ACCESS:     164629  HIT:      13299  MISS:     151330
cpu0_L2C RFO       ACCESS:      21957  HIT:       4928  MISS:      17029
cpu0_L2C PREFETCH  ACCESS:          0  HIT:          0  MISS:          0
cpu0_L2C WRITEBACK ACCESS:     122040  HIT:      89041  MISS:      32999
LLC TOTAL     ACCESS:     283024  HIT:     238425  MISS:      44599
LLC LOAD      ACCESS:     151328  HIT:     111492  MISS:      39836
LLC RFO       ACCESS:      17027  HIT:      12327  MISS:       4700
LLC PREFETCH  ACCESS:          0  HIT:          0  MISS:          0
LLC WRITEBACK ACCESS:     114501  HIT:     114444  MISS:         57
Heartbeat CPU 0 instructions: 80000001 cycles: 43496264 heartbeat IPC: 0.872608 cumulative IPC: 0.968674 (Simulation time: 0 hr 29 min 33 sec) 

Region of Interest Statistics
cpu0_DTLB TOTAL     ACCESS:    5823229  HIT:    5642079  MISS:     181150
cpu0_DTLB LOAD      ACCESS:    4575347  HIT:    4423437  MISS:     151910
cpu0_DTLB RFO       ACCESS:    1247882  HIT:    1218642  MISS:      29240
cpu0_DTLB PREFETCH  ACCESS:          0  HIT:          0  MISS:          0
cpu0_DTLB WRITEBACK ACCESS:          0  HIT:          0  MISS:          0
cpu0_ITLB TOTAL     ACCESS:    2962989  HIT:    2962989  MISS:          0
cpu0_ITLB LOAD      ACCESS:    2962989  HIT:    2962989  MISS:          0
cpu0_ITLB RFO       ACCESS:          0  HIT:          0  MISS:          0
cpu0_ITLB PREFETCH  ACCESS:          0  HIT:          0  MISS:          0
cpu0_ITLB WRITEBACK ACCESS:          0  HIT:          0  MISS:          0
cpu0_L1I TOTAL     ACCESS:     419625  HIT:     419577  MISS:         48
cpu0_L1I LOAD      ACCESS:     419625  HIT:     419577  MISS:         48
cpu0_L1I RFO       ACCESS:          0  HIT:          0  MISS:          0
cpu0_L1I PREFETCH  ACCESS:          0  HIT:          0  MISS:          0
cpu0_L1I WRITEBACK ACCESS:          0  HIT:          0  MISS:          0
cpu0_STLB TOTAL     ACCESS:     181150  HIT:     153031  MISS:      28119
cpu0_STLB LOAD      ACCESS:     151910  HIT:     124854  MISS:      27056
cpu0_STLB RFO       ACCESS:      29240  HIT:      28177  MISS:       1063
cpu0_STLB PREFETCH  ACCESS:          0  HIT:          0  MISS:          0
cpu0_STLB WRITEBACK ACCESS:          0  HIT:          0  MISS:          0
cpu0_L1D TOTAL     ACCESS:    6565036  HIT:    6363107  MISS:     201929
cpu0_L1D LOAD      ACCESS:    4294437  HIT:    4116261  MISS:     178176
cpu0_L1D RFO       ACCESS:    2242538  HIT:    2219009  MISS:      23529
cpu0_L1D PREFETCH  ACCESS:          0  HIT:          0  MISS:          0
cpu0_L1D WRITEBACK ACCESS:          0  HIT:          0  MISS:          0
cpu0_L2C TOTAL     ACCESS:     333484  HIT:     115228  MISS:     218256
cpu0_L2C LOAD      ACCESS:     178223  HIT:      14164  MISS:     164059
cpu0_L2C RFO       ACCESS:      23519  HIT:       5253  MISS:      18266
cpu0_L2C PREFETCH  ACCESS:          0  HIT:          0  MISS:          0
cpu0_L2C WRITEBACK ACCESS:     131518  HIT:      95770  MISS:      35748
LLC TOTAL     ACCESS:     306067  HIT:     257358  MISS:      48709
LLC LOAD      ACCESS:     164057  HIT:     120506  MISS:      43551
LLC RFO       ACCESS:      18264  HIT:      13175  MISS:       5089
LLC PREFETCH  ACCESS:          0  HIT:          0  MISS:          0
LLC WRITEBACK ACCESS:     123563  HIT:     123501  MISS:         62
Heartbeat CPU 0 instructions: 82000003 cycles: 45665207 heartbeat IPC: 0.922109 cumulative IPC: 0.965626 (Simulation time: 0 hr 30 min 18 sec) 

Region of Interest Statistics
cpu0_DTLB TOTAL     ACCESS:    6213595  HIT:    6019432  MISS:     194163
cpu0_DTLB LOAD      ACCESS:    4881425  HIT:    4718096  MISS:     163329
cpu0_DTLB RFO       ACCESS:    1332170  HIT:    1301336  MISS:      30834
cpu0_DTLB PREFETCH  ACCESS:          0  HIT:          0  MISS:          0
cpu0_DTLB WRITEBACK ACCESS:          0  HIT:          0  MISS:          0
cpu0_ITLB TOTAL     ACCESS:    3166418  HIT:    3166418  MISS:          0
cpu0_ITLB LOAD      ACCESS:    3166418  HIT:    3166418  MISS:          0
cpu0_ITLB RFO       ACCESS:          0  HIT:          0  MISS:          0
cpu0_ITLB PREFETCH  ACCESS:          0  HIT:          0  MISS:          0
cpu0_ITLB WRITEBACK ACCESS:          0  HIT:          0  MISS:          0
cpu0_L1I TOTAL     ACCESS:     444309  HIT:     444259  MISS:         50
cpu0_L1I LOAD      ACCESS:     444309  HIT:     444259  MISS:         50
cpu0_L1I RFO       ACCESS:          0  HIT:          0  MISS:          0
cpu0_L1I PREFETCH  ACCESS:          0  HIT:          0  MISS:          0
cpu0_L1I WRITEBACK ACCESS:          0  HIT:          0  MISS:          0
cpu0_STLB TOTAL     ACCESS:     194163  HIT:     164185  MISS:      29978
cpu0_STLB LOAD      ACCESS:     163329  HIT:     134437  MISS:      28892
cpu0_STLB RFO       ACCESS:      30834  HIT:      29748  MISS:       1086
cpu0_STLB PREFETCH  ACCESS:          0  HIT:          0  MISS:          0
cpu0_STLB WRITEBACK ACCESS:          0  HIT:          0  MISS:          0
cpu0_L1D TOTAL     ACCESS:    7016430  HIT:    6800415  MISS:     216015
cpu0_L1D LOAD      ACCESS:    4590045  HIT:    4398992  MISS:     191053
cpu0_L1D RFO       ACCESS:    2396474  HIT:    2371753  MISS:      24721
cpu0_L1D PREFETCH  ACCESS:          0  HIT:          0  MISS:          0
cpu0_L1D WRITEBACK ACCESS:          0  HIT:          0  MISS:          0
cpu0_L2C TOTAL     ACCESS:     356394  HIT:     123045  MISS:     233349
cpu0_L2C LOAD      ACCESS:     191102  HIT:      15074  MISS:     176028
cpu0_L2C RFO       ACCESS:      24711  HIT:       5586  MISS:      19125
cpu0_L2C PREFETCH  ACCESS:          0  HIT:          0  MISS:          0
cpu0_L2C WRITEBACK ACCESS:     140340  HIT:     102342  MISS:      37998
LLC TOTAL     ACCESS:     327266  HIT:     275128  MISS:      52138
LLC LOAD      ACCESS:     176026  HIT:     129268  MISS:      46758
LLC RFO       ACCESS:      19123  HIT:      13815  MISS:       5308
LLC PREFETCH  ACCESS:          0  HIT:          0  MISS:          0
LLC WRITEBACK ACCESS:     131919  HIT:     131854  MISS:         65
Heartbeat CPU 0 instructions: 84000001 cycles: 47842419 heartbeat IPC: 0.918605 cumulative IPC: 0.962727 (Simulation time: 0 hr 31 min 1 sec) 

Region of Interest Statistics
cpu0_DTLB TOTAL     ACCESS:    6604091  HIT:    6397056  MISS:     207035
cpu0_DTLB LOAD      ACCESS:    5187184  HIT:    5012554  MISS:     174630
cpu0_DTLB RFO       ACCESS:    1416907  HIT:    1384502  MISS:      32405
cpu0_DTLB PREFETCH  ACCESS:          0  HIT:          0  MISS:          0
cpu0_DTLB WRITEBACK ACCESS:          0  HIT:          0  MISS:          0
cpu0_ITLB TOTAL     ACCESS:    3368404  HIT:    3368404  MISS:          0
cpu0_ITLB LOAD      ACCESS:    3368404  HIT:    3368404  MISS:          0
cpu0_ITLB RFO       ACCESS:          0  HIT:          0  MISS:          0
cpu0_ITLB PREFETCH  ACCESS:          0  HIT:          0  MISS:          0
cpu0_ITLB WRITEBACK ACCESS:          0  HIT:          0  MISS:          0
cpu0_L1I TOTAL     ACCESS:     470803  HIT:     470753  MISS:         50
cpu0_L1I LOAD      ACCESS:     470803  HIT:     470753  MISS:         50
cpu0_L1I RFO       ACCESS:          0  HIT:          0  MISS:          0
cpu0_L1I PREFETCH  ACCESS:          0  HIT:          0  MISS:          0
cpu0_L1I WRITEBACK ACCESS:          0  HIT:          0  MISS:          0
cpu0_STLB TOTAL     ACCESS:     207035  HIT:     175125  MISS:      31910
cpu0_STLB LOAD      ACCESS:     174630  HIT:     143839  MISS:      30791
cpu0_STLB RFO       ACCESS:      32405  HIT:      31286  MISS:       1119
cpu0_STLB PREFETCH  ACCESS:          0  HIT:          0  MISS:          0
cpu0_STLB WRITEBACK ACCESS:          0  HIT:          0  MISS:          0
cpu0_L1D TOTAL     ACCESS:    7464354  HIT:    7233810  MISS:     230544
cpu0_L1D LOAD      ACCESS:    4881799  HIT:    4677521  MISS:     204278
cpu0_L1D RFO       ACCESS:    2550720  HIT:    2524710  MISS:      26010
cpu0_L1D PREFETCH  ACCESS:          0  HIT:          0  MISS:          0
cpu0_L1D WRITEBACK ACCESS:          0  HIT:          0  MISS:          0
cpu0_L2C TOTAL     ACCESS:     380088  HIT:     131307  MISS:     248781
cpu0_L2C LOAD      ACCESS:     204327  HIT:      15990  MISS:     188337
cpu0_L2C RFO       ACCESS:      25999  HIT:       5933  MISS:      20066
cpu0_L2C PREFETCH  ACCESS:          0  HIT:          0  MISS:          0
cpu0_L2C WRITEBACK ACCESS:     149506  HIT:     109340  MISS:      40166
LLC TOTAL     ACCESS:     349175  HIT:     293463  MISS:      55712
LLC LOAD      ACCESS:     188335  HIT:     138250  MISS:      50085
LLC RFO       ACCESS:      20064  HIT:      14512  MISS:       5552
LLC PREFETCH  ACCESS:          0  HIT:          0  MISS:          0
LLC WRITEBACK ACCESS:     140564  HIT:     140496  MISS:         68
Heartbeat CPU 0 instructions: 86000002 cycles: 50038550 heartbeat IPC: 0.910693 cumulative IPC: 0.959681 (Simulation time: 0 hr 31 min 46 sec) 

Region of Interest Statistics
cpu0_DTLB TOTAL     ACCESS:    6994464  HIT:    6773169  MISS:     221295
cpu0_DTLB LOAD      ACCESS:    5494956  HIT:    5308298  MISS:     186658
cpu0_DTLB RFO       ACCESS:    1499508  HIT:    1464871  MISS:      34637
cpu0_DTLB PREFETCH  ACCESS:          0  HIT:          0  MISS:          0
cpu0_DTLB WRITEBACK ACCESS:          0  HIT:          0  MISS:          0
cpu0_ITLB TOTAL     ACCESS:    3565478  HIT:    3565478  MISS:          0
cpu0_ITLB LOAD      ACCESS:    3565478  HIT:    3565478  MISS:          0
cpu0_ITLB RFO       ACCESS:          0  HIT:          0  MISS:          0
cpu0_ITLB PREFETCH  ACCESS:          0  HIT:          0  MISS:          0
cpu0_ITLB WRITEBACK ACCESS:          0  HIT:          0  MISS:          0
cpu0_L1I TOTAL     ACCESS:     498665  HIT:     498615  MISS:         50
cpu0_L1I LOAD      ACCESS:     498665  HIT:     498615  MISS:         50
cpu0_L1I RFO       ACCESS:          0  HIT:          0  MISS:          0
cpu0_L1I PREFETCH  ACCESS:          0  HIT:          0  MISS:          0
cpu0_L1I WRITEBACK ACCESS:          0  HIT:          0  MISS:          0
cpu0_STLB TOTAL     ACCESS:     221295  HIT:     187179  MISS:      34116
cpu0_STLB LOAD      ACCESS:     186658  HIT:     153732  MISS:      32926
cpu0_STLB RFO       ACCESS:      34637  HIT:      33447  MISS:       1190
cpu0_STLB PREFETCH  ACCESS:          0  HIT:          0  MISS:          0
cpu0_STLB WRITEBACK ACCESS:          0  HIT:          0  MISS:          0
cpu0_L1D TOTAL     ACCESS:    7877495  HIT:    7629628  MISS:     247867
cpu0_L1D LOAD      ACCESS:    5152231  HIT:    4932706  MISS:     219525
cpu0_L1D RFO       ACCESS:    2691230  HIT:    2663165  MISS:      28065
cpu0_L1D PREFETCH  ACCESS:          0  HIT:          0  MISS:          0
cpu0_L1D WRITEBACK ACCESS:          0  HIT:          0  MISS:          0
cpu0_L2C TOTAL     ACCESS:     408662  HIT:     140310  MISS:     268352
cpu0_L2C LOAD      ACCESS:     219574  HIT:      17032  MISS:     202542
cpu0_L2C RFO       ACCESS:      28052  HIT:       6320  MISS:      21732
cpu0_L2C PREFETCH  ACCESS:          0  HIT:          0  MISS:          0
cpu0_L2C WRITEBACK ACCESS:     160759  HIT:     116911  MISS:      43848
LLC TOTAL     ACCESS:     375769  HIT:     315786  MISS:      59983
LLC LOAD      ACCESS:     202540  HIT:     148592  MISS:      53948
LLC RFO       ACCESS:      21730  HIT:      15779  MISS:       5951
LLC PREFETCH  ACCESS:          0  HIT:          0  MISS:          0
LLC WRITEBACK ACCESS:     151269  HIT:     151192  MISS:         77
Heartbeat CPU 0 instructions: 88000000 cycles: 52116131 heartbeat IPC: 0.962657 cumulative IPC: 0.959837 (Simulation time: 0 hr 32 min 31 sec) 

Region of Interest Statistics
cpu0_DTLB TOTAL     ACCESS:    7383209  HIT:    7150837  MISS:     232372
cpu0_DTLB LOAD      ACCESS:    5801596  HIT:    5605590  MISS:     196006
cpu0_DTLB RFO       ACCESS:    1581613  HIT:    1545247  MISS:      36366
cpu0_DTLB PREFETCH  ACCESS:          0  HIT:          0  MISS:          0
cpu0_DTLB WRITEBACK ACCESS:          0  HIT:          0  MISS:          0
cpu0_ITLB TOTAL     ACCESS:    3760519  HIT:    3760519  MISS:          0
cpu0_ITLB LOAD      ACCESS:    3760519  HIT:    3760519  MISS:          0
cpu0_ITLB RFO       ACCESS:          0  HIT:          0  MISS:          0
cpu0_ITLB PREFETCH  ACCESS:          0  HIT:          0  MISS:          0
cpu0_ITLB WRITEBACK ACCESS:          0  HIT:          0  MISS:          0
cpu0_L1I TOTAL     ACCESS:     526065  HIT:     526008  MISS:         57
cpu0_L1I LOAD      ACCESS:     526065  HIT:     526008  MISS:         57
cpu0_L1I RFO       ACCESS:          0  HIT:          0  MISS:          0
cpu0_L1I PREFETCH  ACCESS:          0  HIT:          0  MISS:          0
cpu0_L1I WRITEBACK ACCESS:          0  HIT:          0  MISS:          0
cpu0_STLB TOTAL     ACCESS:     232372  HIT:     196722  MISS:      35650
cpu0_STLB LOAD      ACCESS:     196006  HIT:     161605  MISS:      34401
cpu0_STLB RFO       ACCESS:      36366  HIT:      35117  MISS:       1249
cpu0_STLB PREFETCH  ACCESS:          0  HIT:          0  MISS:          0
cpu0_STLB WRITEBACK ACCESS:          0  HIT:          0  MISS:          0
cpu0_L1D TOTAL     ACCESS:    8312267  HIT:    8051161  MISS:     261106
cpu0_L1D LOAD      ACCESS:    5442127  HIT:    5210939  MISS:     231188
cpu0_L1D RFO       ACCESS:    2834575  HIT:    2804957  MISS:      29618
cpu0_L1D PREFETCH  ACCESS:          0  HIT:          0  MISS:          0
cpu0_L1D WRITEBACK ACCESS:          0  HIT:          0  MISS:          0
cpu0_L2C TOTAL     ACCESS:     430350  HIT:     147681  MISS:     282669
cpu0_L2C LOAD      ACCESS:     231244  HIT:      18058  MISS:     213186
cpu0_L2C RFO       ACCESS:      29605  HIT:       6662  MISS:      22943
cpu0_L2C PREFETCH  ACCESS:          0  HIT:          0  MISS:          0
cpu0_L2C WRITEBACK ACCESS:     169201  HIT:     122908  MISS:      46293
LLC TOTAL     ACCESS:     395489  HIT:     332464  MISS:      63025
LLC LOAD      ACCESS:     213183  HIT:     156597  MISS:      56586
LLC RFO       ACCESS:      22941  HIT:      16589  MISS:       6352
LLC PREFETCH  ACCESS:          0  HIT:          0  MISS:          0
LLC WRITEBACK ACCESS:     159118  HIT:     159039  MISS:         79
Heartbeat CPU 0 instructions: 90000000 cycles: 54146080 heartbeat IPC: 0.985246 cumulative IPC: 0.961076 (Simulation time: 0 hr 33 min 14 sec) 

Region of Interest Statistics
cpu0_DTLB TOTAL     ACCESS:    7765869  HIT:    7521291  MISS:     244578
cpu0_DTLB LOAD      ACCESS:    6101546  HIT:    5895255  MISS:     206291
cpu0_DTLB RFO       ACCESS:    1664323  HIT:    1626036  MISS:      38287
cpu0_DTLB PREFETCH  ACCESS:          0  HIT:          0  MISS:          0
cpu0_DTLB WRITEBACK ACCESS:          0  HIT:          0  MISS:          0
cpu0_ITLB TOTAL     ACCESS:    3959954  HIT:    3959954  MISS:          0
cpu0_ITLB LOAD      ACCESS:    3959954  HIT:    3959954  MISS:          0
cpu0_ITLB RFO       ACCESS:          0  HIT:          0  MISS:          0
cpu0_ITLB PREFETCH  ACCESS:          0  HIT:          0  MISS:          0
cpu0_ITLB WRITEBACK ACCESS:          0  HIT:          0  MISS:          0
cpu0_L1I TOTAL     ACCESS:     554161  HIT:     554102  MISS:         59
cpu0_L1I LOAD      ACCESS:     554161  HIT:     554102  MISS:         59
cpu0_L1I RFO       ACCESS:          0  HIT:          0  MISS:          0
cpu0_L1I PREFETCH  ACCESS:          0  HIT:          0  MISS:          0
cpu0_L1I WRITEBACK ACCESS:          0  HIT:          0  MISS:          0
cpu0_STLB TOTAL     ACCESS:     244578  HIT:     207236  MISS:      37342
cpu0_STLB LOAD      ACCESS:     206291  HIT:     170237  MISS:      36054
cpu0_STLB RFO       ACCESS:      38287  HIT:      36999  MISS:       1288
cpu0_STLB PREFETCH  ACCESS:          0  HIT:          0  MISS:          0
cpu0_STLB WRITEBACK ACCESS:          0  HIT:          0  MISS:          0
cpu0_L1D TOTAL     ACCESS:    8746183  HIT:    8471234  MISS:     274949
cpu0_L1D LOAD      ACCESS:    5726934  HIT:    5483453  MISS:     243481
cpu0_L1D RFO       ACCESS:    2981998  HIT:    2950846  MISS:      31152
cpu0_L1D PREFETCH  ACCESS:          0  HIT:          0  MISS:          0
cpu0_L1D WRITEBACK ACCESS:          0  HIT:          0  MISS:          0
cpu0_L2C TOTAL     ACCESS:     453113  HIT:     155767  MISS:     297346
cpu0_L2C LOAD      ACCESS:     243539  HIT:      19106  MISS:     224433
cpu0_L2C RFO       ACCESS:      31139  HIT:       6961  MISS:      24178
cpu0_L2C PREFETCH  ACCESS:          0  HIT:          0  MISS:          0
cpu0_L2C WRITEBACK ACCESS:     178119  HIT:     129643  MISS:      48476
LLC TOTAL     ACCESS:     416268  HIT:     350368  MISS:      65900
LLC LOAD      ACCESS:     224430  HIT:     165276  MISS:      59154
LLC RFO       ACCESS:      24176  HIT:      17517  MISS:       6659
LLC PREFETCH  ACCESS:          0  HIT:          0  MISS:          0
LLC WRITEBACK ACCESS:     167403  HIT:     167324  MISS:         79
Heartbeat CPU 0 instructions: 92000000 cycles: 56031610 heartbeat IPC: 1.06071 cumulative IPC: 0.965394 (Simulation time: 0 hr 33 min 55 sec) 

Region of Interest Statistics
cpu0_DTLB TOTAL     ACCESS:    8147598  HIT:    7892492  MISS:     255106
cpu0_DTLB LOAD      ACCESS:    6400834  HIT:    6185687  MISS:     215147
cpu0_DTLB RFO       ACCESS:    1746764  HIT:    1706805  MISS:      39959
cpu0_DTLB PREFETCH  ACCESS:          0  HIT:          0  MISS:          0
cpu0_DTLB WRITEBACK ACCESS:          0  HIT:          0  MISS:          0
cpu0_ITLB TOTAL     ACCESS:    4158412  HIT:    4158412  MISS:          0
cpu0_ITLB LOAD      ACCESS:    4158412  HIT:    4158412  MISS:          0
cpu0_ITLB RFO       ACCESS:          0  HIT:          0  MISS:          0
cpu0_ITLB PREFETCH  ACCESS:          0  HIT:          0  MISS:          0
cpu0_ITLB WRITEBACK ACCESS:          0  HIT:          0  MISS:          0
cpu0_L1I TOTAL     ACCESS:     583901  HIT:     583842  MISS:         59
cpu0_L1I LOAD      ACCESS:     583901  HIT:     583842  MISS:         59
cpu0_L1I RFO       ACCESS:          0  HIT:          0  MISS:          0
cpu0_L1I PREFETCH  ACCESS:          0  HIT:          0  MISS:          0
cpu0_L1I WRITEBACK ACCESS:          0  HIT:          0  MISS:          0
cpu0_STLB TOTAL     ACCESS:     255106  HIT:     216269  MISS:      38837
cpu0_STLB LOAD      ACCESS:     215147  HIT:     177620  MISS:      37527
cpu0_STLB RFO       ACCESS:      39959  HIT:      38649  MISS:       1310
cpu0_STLB PREFETCH  ACCESS:          0  HIT:          0  MISS:          0
cpu0_STLB WRITEBACK ACCESS:          0  HIT:          0  MISS:          0
cpu0_L1D TOTAL     ACCESS:    9179361  HIT:    8893156  MISS:     286205
cpu0_L1D LOAD      ACCESS:    6010117  HIT:    5756562  MISS:     253555
cpu0_L1D RFO       ACCESS:    3130501  HIT:    3098177  MISS:      32324
cpu0_L1D PREFETCH  ACCESS:          0  HIT:          0  MISS:          0
cpu0_L1D WRITEBACK ACCESS:          0  HIT:          0  MISS:          0
cpu0_L2C TOTAL     ACCESS:     471667  HIT:     162671  MISS:     308996
cpu0_L2C LOAD      ACCESS:     253613  HIT:      20154  MISS:     233459
cpu0_L2C RFO       ACCESS:      32311  HIT:       7271  MISS:      25040
cpu0_L2C PREFETCH  ACCESS:          0  HIT:          0  MISS:          0
cpu0_L2C WRITEBACK ACCESS:     185417  HIT:     135187  MISS:      50230
LLC TOTAL     ACCESS:     432859  HIT:     364560  MISS:      68299
LLC LOAD      ACCESS:     233456  HIT:     172173  MISS:      61283
LLC RFO       ACCESS:      25038  HIT:      18110  MISS:       6928
LLC PREFETCH  ACCESS:          0  HIT:          0  MISS:          0
LLC WRITEBACK ACCESS:     174098  HIT:     174018  MISS:         80
Heartbeat CPU 0 instructions: 94000000 cycles: 58022413 heartbeat IPC: 1.00462 cumulative IPC: 0.967111 (Simulation time: 0 hr 34 min 38 sec) 

Region of Interest Statistics
cpu0_DTLB TOTAL     ACCESS:    8522204  HIT:    8257103  MISS:     265101
cpu0_DTLB LOAD      ACCESS:    6689383  HIT:    6465909  MISS:     223474
cpu0_DTLB RFO       ACCESS:    1832821  HIT:    1791194  MISS:      41627
cpu0_DTLB PREFETCH  ACCESS:          0  HIT:          0  MISS:          0
cpu0_DTLB WRITEBACK ACCESS:          0  HIT:          0  MISS:          0
cpu0_ITLB TOTAL     ACCESS:    4345616  HIT:    4345616  MISS:          0
cpu0_ITLB LOAD      ACCESS:    4345616  HIT:    4345616  MISS:          0
cpu0_ITLB RFO       ACCESS:          0  HIT:          0  MISS:          0
cpu0_ITLB PREFETCH  ACCESS:          0  HIT:          0  MISS:          0
cpu0_ITLB WRITEBACK ACCESS:          0  HIT:          0  MISS:          0
cpu0_L1I TOTAL     ACCESS:     618839  HIT:     618780  MISS:         59
cpu0_L1I LOAD      ACCESS:     618839  HIT:     618780  MISS:         59
cpu0_L1I RFO       ACCESS:          0  HIT:          0  MISS:          0
cpu0_L1I PREFETCH  ACCESS:          0  HIT:          0  MISS:          0
cpu0_L1I WRITEBACK ACCESS:          0  HIT:          0  MISS:          0
cpu0_STLB TOTAL     ACCESS:     265101  HIT:     224167  MISS:      40934
cpu0_STLB LOAD      ACCESS:     223474  HIT:     183934  MISS:      39540
cpu0_STLB RFO       ACCESS:      41627  HIT:      40233  MISS:       1394
cpu0_STLB PREFETCH  ACCESS:          0  HIT:          0  MISS:          0
cpu0_STLB WRITEBACK ACCESS:          0  HIT:          0  MISS:          0
cpu0_L1D TOTAL     ACCESS:    9606014  HIT:    9308324  MISS:     297690
cpu0_L1D LOAD      ACCESS:    6275947  HIT:    6012401  MISS:     263546
cpu0_L1D RFO       ACCESS:    3289235  HIT:    3255428  MISS:      33807
cpu0_L1D PREFETCH  ACCESS:          0  HIT:          0  MISS:          0
cpu0_L1D WRITEBACK ACCESS:          0  HIT:          0  MISS:          0
cpu0_L2C TOTAL     ACCESS:     490575  HIT:     168868  MISS:     321707
cpu0_L2C LOAD      ACCESS:     263604  HIT:      21010  MISS:     242594
cpu0_L2C RFO       ACCESS:      33793  HIT:       7537  MISS:      26256
cpu0_L2C PREFETCH  ACCESS:          0  HIT:          0  MISS:          0
cpu0_L2C WRITEBACK ACCESS:     192841  HIT:     140261  MISS:      52580
LLC TOTAL     ACCESS:     450169  HIT:     377726  MISS:      72443
LLC LOAD      ACCESS:     242591  HIT:     177644  MISS:      64947
LLC RFO       ACCESS:      26254  HIT:      18853  MISS:       7401
LLC PREFETCH  ACCESS:          0  HIT:          0  MISS:          0
LLC WRITEBACK ACCESS:     181047  HIT:     180961  MISS:         86
Heartbeat CPU 0 instructions: 96000002 cycles: 60201482 heartbeat IPC: 0.917824 cumulative IPC: 0.964858 (Simulation time: 0 hr 35 min 20 sec) 

Region of Interest Statistics
cpu0_DTLB TOTAL     ACCESS:    8907911  HIT:    8631051  MISS:     276860
cpu0_DTLB LOAD      ACCESS:    6989505  HIT:    6756096  MISS:     233409
cpu0_DTLB RFO       ACCESS:    1918406  HIT:    1874955  MISS:      43451
cpu0_DTLB PREFETCH  ACCESS:          0  HIT:          0  MISS:          0
cpu0_DTLB WRITEBACK ACCESS:          0  HIT:          0  MISS:          0
cpu0_ITLB TOTAL     ACCESS:    4539659  HIT:    4539659  MISS:          0
cpu0_ITLB LOAD      ACCESS:    4539659  HIT:    4539659  MISS:          0
cpu0_ITLB RFO       ACCESS:          0  HIT:          0  MISS:          0
cpu0_ITLB PREFETCH  ACCESS:          0  HIT:          0  MISS:          0
cpu0_ITLB WRITEBACK ACCESS:          0  HIT:          0  MISS:          0
cpu0_L1I TOTAL     ACCESS:     645066  HIT:     644998  MISS:         68
cpu0_L1I LOAD      ACCESS:     645066  HIT:     644998  MISS:         68
cpu0_L1I RFO       ACCESS:          0  HIT:          0  MISS:          0
cpu0_L1I PREFETCH  ACCESS:          0  HIT:          0  MISS:          0
cpu0_L1I WRITEBACK ACCESS:          0  HIT:          0  MISS:          0
cpu0_STLB TOTAL     ACCESS:     276860  HIT:     233763  MISS:      43097
cpu0_STLB LOAD      ACCESS:     233409  HIT:     191733  MISS:      41676
cpu0_STLB RFO       ACCESS:      43451  HIT:      42030  MISS:       1421
cpu0_STLB PREFETCH  ACCESS:          0  HIT:          0  MISS:          0
cpu0_STLB WRITEBACK ACCESS:          0  HIT:          0  MISS:          0
cpu0_L1D TOTAL     ACCESS:   10066711  HIT:    9756044  MISS:     310667
cpu0_L1D LOAD      ACCESS:    6575028  HIT:    6299886  MISS:     275142
cpu0_L1D RFO       ACCESS:    3448697  HIT:    3413522  MISS:      35175
cpu0_L1D PREFETCH  ACCESS:          0  HIT:          0  MISS:          0
cpu0_L1D WRITEBACK ACCESS:          0  HIT:          0  MISS:          0
cpu0_L2C TOTAL     ACCESS:     511801  HIT:     175843  MISS:     335958
cpu0_L2C LOAD      ACCESS:     275209  HIT:      21850  MISS:     253359
cpu0_L2C RFO       ACCESS:      35161  HIT:       7823  MISS:      27338
cpu0_L2C PREFETCH  ACCESS:          0  HIT:          0  MISS:          0
cpu0_L2C WRITEBACK ACCESS:     201081  HIT:     146109  MISS:      54972
LLC TOTAL     ACCESS:     469829  HIT:     393509  MISS:      76320
LLC LOAD      ACCESS:     253356  HIT:     184952  MISS:      68404
LLC RFO       ACCESS:      27336  HIT:      19518  MISS:       7818
LLC PREFETCH  ACCESS:          0  HIT:          0  MISS:          0
LLC WRITEBACK ACCESS:     188848  HIT:     188760  MISS:         88
Heartbeat CPU 0 instructions: 98000004 cycles: 62129193 heartbeat IPC: 1.0375 cumulative IPC: 0.967681 (Simulation time: 0 hr 36 min 1 sec) 

Region of Interest Statistics
cpu0_DTLB TOTAL     ACCESS:    9277097  HIT:    8988832  MISS:     288265
cpu0_DTLB LOAD      ACCESS:    7277432  HIT:    7034956  MISS:     242476
cpu0_DTLB RFO       ACCESS:    1999665  HIT:    1953876  MISS:      45789
cpu0_DTLB PREFETCH  ACCESS:          0  HIT:          0  MISS:          0
cpu0_DTLB WRITEBACK ACCESS:          0  HIT:          0  MISS:          0
cpu0_ITLB TOTAL     ACCESS:    4730725  HIT:    4730725  MISS:          0
cpu0_ITLB LOAD      ACCESS:    4730725  HIT:    4730725  MISS:          0
cpu0_ITLB RFO       ACCESS:          0  HIT:          0  MISS:          0
cpu0_ITLB PREFETCH  ACCESS:          0  HIT:          0  MISS:          0
cpu0_ITLB WRITEBACK ACCESS:          0  HIT:          0  MISS:          0
cpu0_L1I TOTAL     ACCESS:     673952  HIT:     673884  MISS:         68
cpu0_L1I LOAD      ACCESS:     673952  HIT:     673884  MISS:         68
cpu0_L1I RFO       ACCESS:          0  HIT:          0  MISS:          0
cpu0_L1I PREFETCH  ACCESS:          0  HIT:          0  MISS:          0
cpu0_L1I WRITEBACK ACCESS:          0  HIT:          0  MISS:          0
cpu0_STLB TOTAL     ACCESS:     288265  HIT:     243446  MISS:      44819
cpu0_STLB LOAD      ACCESS:     242476  HIT:     199093  MISS:      43383
cpu0_STLB RFO       ACCESS:      45789  HIT:      44353  MISS:       1436
cpu0_STLB PREFETCH  ACCESS:          0  HIT:          0  MISS:          0
cpu0_STLB WRITEBACK ACCESS:          0  HIT:          0  MISS:          0
cpu0_L1D TOTAL     ACCESS:   10498375  HIT:   10175653  MISS:     322722
cpu0_L1D LOAD      ACCESS:    6854377  HIT:    6568768  MISS:     285609
cpu0_L1D RFO       ACCESS:    3599297  HIT:    3562545  MISS:      36752
cpu0_L1D PREFETCH  ACCESS:          0  HIT:          0  MISS:          0
cpu0_L1D WRITEBACK ACCESS:          0  HIT:          0  MISS:          0
cpu0_L2C TOTAL     ACCESS:     531768  HIT:     182678  MISS:     349090
cpu0_L2C LOAD      ACCESS:     285676  HIT:      22764  MISS:     262912
cpu0_L2C RFO       ACCESS:      36738  HIT:       8263  MISS:      28475
cpu0_L2C PREFETCH  ACCESS:          0  HIT:          0  MISS:          0
cpu0_L2C WRITEBACK ACCESS:     208993  HIT:     151588  MISS:      57405
LLC TOTAL     ACCESS:     487857  HIT:     408390  MISS:      79467
LLC LOAD      ACCESS:     262909  HIT:     191687  MISS:      71222
LLC RFO       ACCESS:      28473  HIT:      20327  MISS:       8146
LLC PREFETCH  ACCESS:          0  HIT:          0  MISS:          0
LLC WRITEBACK ACCESS:     196177  HIT:     196088  MISS:         89
Heartbeat CPU 0 instructions: 100000004 cycles: 64091785 heartbeat IPC: 1.01906 cumulative IPC: 0.969637 (Simulation time: 0 hr 36 min 40 sec) 

Region of Interest Statistics
cpu0_DTLB TOTAL     ACCESS:    9652942  HIT:    9352884  MISS:     300058
cpu0_DTLB LOAD      ACCESS:    7570177  HIT:    7318058  MISS:     252119
cpu0_DTLB RFO       ACCESS:    2082765  HIT:    2034826  MISS:      47939
cpu0_DTLB PREFETCH  ACCESS:          0  HIT:          0  MISS:          0
cpu0_DTLB WRITEBACK ACCESS:          0  HIT:          0  MISS:          0
cpu0_ITLB TOTAL     ACCESS:    4925211  HIT:    4925211  MISS:          0
cpu0_ITLB LOAD      ACCESS:    4925211  HIT:    4925211  MISS:          0
cpu0_ITLB RFO       ACCESS:          0  HIT:          0  MISS:          0
cpu0_ITLB PREFETCH  ACCESS:          0  HIT:          0  MISS:          0
cpu0_ITLB WRITEBACK ACCESS:          0  HIT:          0  MISS:          0
cpu0_L1I TOTAL     ACCESS:     703533  HIT:     703465  MISS:         68
cpu0_L1I LOAD      ACCESS:     703533  HIT:     703465  MISS:         68
cpu0_L1I RFO       ACCESS:          0  HIT:          0  MISS:          0
cpu0_L1I PREFETCH  ACCESS:          0  HIT:          0  MISS:          0
cpu0_L1I WRITEBACK ACCESS:          0  HIT:          0  MISS:          0
cpu0_STLB TOTAL     ACCESS:     300058  HIT:     253441  MISS:      46617
cpu0_STLB LOAD      ACCESS:     252119  HIT:     207018  MISS:      45101
cpu0_STLB RFO       ACCESS:      47939  HIT:      46423  MISS:       1516
cpu0_STLB PREFETCH  ACCESS:          0  HIT:          0  MISS:          0
cpu0_STLB WRITEBACK ACCESS:          0  HIT:          0  MISS:          0
cpu0_L1D TOTAL     ACCESS:   10945511  HIT:   10610406  MISS:     335105
cpu0_L1D LOAD      ACCESS:    7144175  HIT:    6847600  MISS:     296575
cpu0_L1D RFO       ACCESS:    3754842  HIT:    3716688  MISS:      38154
cpu0_L1D PREFETCH  ACCESS:          0  HIT:          0  MISS:          0
cpu0_L1D WRITEBACK ACCESS:          0  HIT:          0  MISS:          0
cpu0_L2C TOTAL     ACCESS:     552215  HIT:     190172  MISS:     362043
cpu0_L2C LOAD      ACCESS:     296642  HIT:      23939  MISS:     272703
cpu0_L2C RFO       ACCESS:      38140  HIT:       8675  MISS:      29465
cpu0_L2C PREFETCH  ACCESS:          0  HIT:          0  MISS:          0
cpu0_L2C WRITEBACK ACCESS:     217057  HIT:     157492  MISS:      59565
LLC TOTAL     ACCESS:     505989  HIT:     423704  MISS:      82285
LLC LOAD      ACCESS:     272700  HIT:     198938  MISS:      73762
LLC RFO       ACCESS:      29463  HIT:      21043  MISS:       8420
LLC PREFETCH  ACCESS:          0  HIT:          0  MISS:          0
LLC WRITEBACK ACCESS:     203516  HIT:     203423  MISS:         93
Heartbeat CPU 0 instructions: 102000001 cycles: 66087395 heartbeat IPC: 1.0022 cumulative IPC: 0.97085 (Simulation time: 0 hr 37 min 19 sec) 

Region of Interest Statistics
cpu0_DTLB TOTAL     ACCESS:   10036073  HIT:    9724660  MISS:     311413
cpu0_DTLB LOAD      ACCESS:    7866991  HIT:    7605338  MISS:     261653
cpu0_DTLB RFO       ACCESS:    2169082  HIT:    2119322  MISS:      49760
cpu0_DTLB PREFETCH  ACCESS:          0  HIT:          0  MISS:          0
cpu0_DTLB WRITEBACK ACCESS:          0  HIT:          0  MISS:          0
cpu0_ITLB TOTAL     ACCESS:    5121340  HIT:    5121340  MISS:          0
cpu0_ITLB LOAD      ACCESS:    5121340  HIT:    5121340  MISS:          0
cpu0_ITLB RFO       ACCESS:          0  HIT:          0  MISS:          0
cpu0_ITLB PREFETCH  ACCESS:          0  HIT:          0  MISS:          0
cpu0_ITLB WRITEBACK ACCESS:          0  HIT:          0  MISS:          0
cpu0_L1I TOTAL     ACCESS:     733394  HIT:     733326  MISS:         68
cpu0_L1I LOAD      ACCESS:     733394  HIT:     733326  MISS:         68
cpu0_L1I RFO       ACCESS:          0  HIT:          0  MISS:          0
cpu0_L1I PREFETCH  ACCESS:          0  HIT:          0  MISS:          0
cpu0_L1I WRITEBACK ACCESS:          0  HIT:          0  MISS:          0
cpu0_STLB TOTAL     ACCESS:     311413  HIT:     262781  MISS:      48632
cpu0_STLB LOAD      ACCESS:     261653  HIT:     214634  MISS:      47019
cpu0_STLB RFO       ACCESS:      49760  HIT:      48147  MISS:       1613
cpu0_STLB PREFETCH  ACCESS:          0  HIT:          0  MISS:          0
cpu0_STLB WRITEBACK ACCESS:          0  HIT:          0  MISS:          0
cpu0_L1D TOTAL     ACCESS:   11402434  HIT:   11054619  MISS:     347815
cpu0_L1D LOAD      ACCESS:    7436744  HIT:    7128902  MISS:     307842
cpu0_L1D RFO       ACCESS:    3917187  HIT:    3877603  MISS:      39584
cpu0_L1D PREFETCH  ACCESS:          0  HIT:          0  MISS:          0
cpu0_L1D WRITEBACK ACCESS:          0  HIT:          0  MISS:          0
cpu0_L2C TOTAL     ACCESS:     573139  HIT:     197593  MISS:     375546
cpu0_L2C LOAD      ACCESS:     307909  HIT:      25026  MISS:     282883
cpu0_L2C RFO       ACCESS:      39570  HIT:       9056  MISS:      30514
cpu0_L2C PREFETCH  ACCESS:          0  HIT:          0  MISS:          0
cpu0_L2C WRITEBACK ACCESS:     225271  HIT:     163444  MISS:      61827
LLC TOTAL     ACCESS:     524792  HIT:     439628  MISS:      85164
LLC LOAD      ACCESS:     282880  HIT:     206490  MISS:      76390
LLC RFO       ACCESS:      30512  HIT:      21843  MISS:       8669
LLC PREFETCH  ACCESS:          0  HIT:          0  MISS:          0
LLC WRITEBACK ACCESS:     211078  HIT:     210983  MISS:         95
Heartbeat CPU 0 instructions: 104000001 cycles: 68197178 heartbeat IPC: 0.947965 cumulative IPC: 0.969983 (Simulation time: 0 hr 37 min 59 sec) 

Region of Interest Statistics
cpu0_DTLB TOTAL     ACCESS:   10426828  HIT:   10104181  MISS:     322647
cpu0_DTLB LOAD      ACCESS:    8173009  HIT:    7901710  MISS:     271299
cpu0_DTLB RFO       ACCESS:    2253819  HIT:    2202471  MISS:      51348
cpu0_DTLB PREFETCH  ACCESS:          0  HIT:          0  MISS:          0
cpu0_DTLB WRITEBACK ACCESS:          0  HIT:          0  MISS:          0
cpu0_ITLB TOTAL     ACCESS:    5317839  HIT:    5317839  MISS:          0
cpu0_ITLB LOAD      ACCESS:    5317839  HIT:    5317839  MISS:          0
cpu0_ITLB RFO       ACCESS:          0  HIT:          0  MISS:          0
cpu0_ITLB PREFETCH  ACCESS:          0  HIT:          0  MISS:          0
cpu0_ITLB WRITEBACK ACCESS:          0  HIT:          0  MISS:          0
cpu0_L1I TOTAL     ACCESS:     759217  HIT:     759140  MISS:         77
cpu0_L1I LOAD      ACCESS:     759217  HIT:     759140  MISS:         77
cpu0_L1I RFO       ACCESS:          0  HIT:          0  MISS:          0
cpu0_L1I PREFETCH  ACCESS:          0  HIT:          0  MISS:          0
cpu0_L1I WRITEBACK ACCESS:          0  HIT:          0  MISS:          0
cpu0_STLB TOTAL     ACCESS:     322647  HIT:     271896  MISS:      50751
cpu0_STLB LOAD      ACCESS:     271299  HIT:     222196  MISS:      49103
cpu0_STLB RFO       ACCESS:      51348  HIT:      49700  MISS:       1648
cpu0_STLB PREFETCH  ACCESS:          0  HIT:          0  MISS:          0
cpu0_STLB WRITEBACK ACCESS:          0  HIT:          0  MISS:          0
cpu0_L1D TOTAL     ACCESS:   11864677  HIT:   11503332  MISS:     361345
cpu0_L1D LOAD      ACCESS:    7739812  HIT:    7419957  MISS:     319855
cpu0_L1D RFO       ACCESS:    4074249  HIT:    4033161  MISS:      41088
cpu0_L1D PREFETCH  ACCESS:          0  HIT:          0  MISS:          0
cpu0_L1D WRITEBACK ACCESS:          0  HIT:          0  MISS:          0
cpu0_L2C TOTAL     ACCESS:     595297  HIT:     205215  MISS:     390082
cpu0_L2C LOAD      ACCESS:     319931  HIT:      26014  MISS:     293917
cpu0_L2C RFO       ACCESS:      41074  HIT:       9347  MISS:      31727
cpu0_L2C PREFETCH  ACCESS:          0  HIT:          0  MISS:          0
cpu0_L2C WRITEBACK ACCESS:     233890  HIT:     169784  MISS:      64106
LLC TOTAL     ACCESS:     545180  HIT:     456975  MISS:      88205
LLC LOAD      ACCESS:     293914  HIT:     214867  MISS:      79047
LLC RFO       ACCESS:      31725  HIT:      22679  MISS:       9046
LLC PREFETCH  ACCESS:          0  HIT:          0  MISS:          0
LLC WRITEBACK ACCESS:     219209  HIT:     219107  MISS:        102
Heartbeat CPU 0 instructions: 106000003 cycles: 70162458 heartbeat IPC: 1.01767 cumulative IPC: 0.971609 (Simulation time: 0 hr 38 min 41 sec) 

Region of Interest Statistics
cpu0_DTLB TOTAL     ACCESS:   10800278  HIT:   10465823  MISS:     334455
cpu0_DTLB LOAD      ACCESS:    8469351  HIT:    8188725  MISS:     280626
cpu0_DTLB RFO       ACCESS:    2330927  HIT:    2277098  MISS:      53829
cpu0_DTLB PREFETCH  ACCESS:          0  HIT:          0  MISS:          0
cpu0_DTLB WRITEBACK ACCESS:          0  HIT:          0  MISS:          0
cpu0_ITLB TOTAL     ACCESS:    5500317  HIT:    5500317  MISS:          0
cpu0_ITLB LOAD      ACCESS:    5500317  HIT:    5500317  MISS:          0
cpu0_ITLB RFO       ACCESS:          0  HIT:          0  MISS:          0
cpu0_ITLB PREFETCH  ACCESS:          0  HIT:          0  MISS:          0
cpu0_ITLB WRITEBACK ACCESS:          0  HIT:          0  MISS:          0
cpu0_L1I TOTAL     ACCESS:     791061  HIT:     790982  MISS:         79
cpu0_L1I LOAD      ACCESS:     791061  HIT:     790982  MISS:         79
cpu0_L1I RFO       ACCESS:          0  HIT:          0  MISS:          0
cpu0_L1I PREFETCH  ACCESS:          0  HIT:          0  MISS:          0
cpu0_L1I WRITEBACK ACCESS:          0  HIT:          0  MISS:          0
cpu0_STLB TOTAL     ACCESS:     334455  HIT:     281614  MISS:      52841
cpu0_STLB LOAD      ACCESS:     280626  HIT:     229629  MISS:      50997
cpu0_STLB RFO       ACCESS:      53829  HIT:      51985  MISS:       1844
cpu0_STLB PREFETCH  ACCESS:          0  HIT:          0  MISS:          0
cpu0_STLB WRITEBACK ACCESS:          0  HIT:          0  MISS:          0
cpu0_L1D TOTAL     ACCESS:   12246204  HIT:   11871043  MISS:     375161
cpu0_L1D LOAD      ACCESS:    7987506  HIT:    7656063  MISS:     331443
cpu0_L1D RFO       ACCESS:    4205999  HIT:    4162702  MISS:      43297
cpu0_L1D PREFETCH  ACCESS:          0  HIT:          0  MISS:          0
cpu0_L1D WRITEBACK ACCESS:          0  HIT:          0  MISS:          0
cpu0_L2C TOTAL     ACCESS:     618374  HIT:     212601  MISS:     405773
cpu0_L2C LOAD      ACCESS:     331515  HIT:      27083  MISS:     304432
cpu0_L2C RFO       ACCESS:      43281  HIT:       9773  MISS:      33508
cpu0_L2C PREFETCH  ACCESS:          0  HIT:          0  MISS:          0
cpu0_L2C WRITEBACK ACCESS:     243157  HIT:     175673  MISS:      67484
LLC TOTAL     ACCESS:     566103  HIT:     473621  MISS:      92482
[...]
cpu0_ITLB PREFETCH  ACCESS:          0  HIT:          0  MISS:          0
cpu0_ITLB WRITEBACK ACCESS:          0  HIT:          0  MISS:          0
cpu0_ITLB TRANSLATION ACCESS:          0  HIT:          0  MISS:          0
cpu0_ITLB PREFETCH  REQUESTED:          0  ISSUED:          0  USEFUL:          0  USELESS:          0
cpu0_ITLB AVERAGE MISS LATENCY: 225 cycles
cpu0_L1I TOTAL     ACCESS:   24190094  HIT:   24188257  MISS:       1837
cpu0_L1I LOAD      ACCESS:   24190094  HIT:   24188257  MISS:       1837
cpu0_L1I RFO       ACCESS:          0  HIT:          0  MISS:          0
cpu0_L1I PREFETCH  ACCESS:          0  HIT:          0  MISS:          0
cpu0_L1I WRITEBACK ACCESS:          0  HIT:          0  MISS:          0
cpu0_L1I TRANSLATION ACCESS:          0  HIT:          0  MISS:          0
cpu0_L1I PREFETCH  REQUESTED:          0  ISSUED:          0  USEFUL:          0  USELESS:          0
cpu0_L1I AVERAGE MISS LATENCY: 98.0071 cycles
cpu0_STLB TOTAL     ACCESS:    7652051  HIT:    6476301  MISS:    1175750
cpu0_STLB LOAD      ACCESS:    6294622  HIT:    5157617  MISS:    1137005
cpu0_STLB RFO       ACCESS:    1357429  HIT:    1318684  MISS:      38745
cpu0_STLB PREFETCH  ACCESS:          0  HIT:          0  MISS:          0
cpu0_STLB WRITEBACK ACCESS:          0  HIT:          0  MISS:          0
cpu0_STLB TRANSLATION ACCESS:          0  HIT:          0  MISS:          0
cpu0_STLB PREFETCH  REQUESTED:          0  ISSUED:          0  USEFUL:          0  USELESS:          0
cpu0_STLB AVERAGE MISS LATENCY: 11.1133 cycles
cpu0_L1D TOTAL     ACCESS:  324591510  HIT:  316100400  MISS:    8491110
cpu0_L1D LOAD      ACCESS:  211123150  HIT:  203709330  MISS:    7413820
cpu0_L1D RFO       ACCESS:  112296323  HIT:  111227413  MISS:    1068910
cpu0_L1D PREFETCH  ACCESS:          0  HIT:          0  MISS:          0
cpu0_L1D WRITEBACK ACCESS:          0  HIT:          0  MISS:          0
cpu0_L1D TRANSLATION ACCESS:    1172037  HIT:    1163657  MISS:       8380
cpu0_L1D PREFETCH  REQUESTED:          0  ISSUED:          0  USEFUL:          0  USELESS:          0
cpu0_L1D AVERAGE MISS LATENCY: 84.8196 cycles
cpu0_L2C TOTAL     ACCESS:   14082760  HIT:    4981207  MISS:    9101553
cpu0_L2C LOAD      ACCESS:    7415594  HIT:     729814  MISS:    6685780
cpu0_L2C RFO       ACCESS:    1068418  HIT:     236553  MISS:     831865
cpu0_L2C PREFETCH  ACCESS:          0  HIT:          0  MISS:          0
cpu0_L2C WRITEBACK ACCESS:    5590368  HIT:    4012936  MISS:    1577432
cpu0_L2C TRANSLATION ACCESS:       8380  HIT:       1904  MISS:       6476
cpu0_L2C PREFETCH  REQUESTED:          0  ISSUED:          0  USEFUL:          0  USELESS:          0
cpu0_L2C AVERAGE MISS LATENCY: 68.8611 cycles
LLC TOTAL     ACCESS:   12665969  HIT:   10454036  MISS:    2211933
LLC LOAD      ACCESS:    6685726  HIT:    4793235  MISS:    1892491
LLC RFO       ACCESS:     831669  HIT:     514377  MISS:     317292
LLC PREFETCH  ACCESS:          0  HIT:          0  MISS:          0
LLC WRITEBACK ACCESS:    5142098  HIT:    5140089  MISS:       2009
LLC TRANSLATION ACCESS:       6476  HIT:       6335  MISS:        141
LLC PREFETCH  REQUESTED:          0  ISSUED:          0  USEFUL:          0  USELESS:          0
LLC AVERAGE MISS LATENCY: 211.914 cycles
~~~~~~~~~~Reuse Distance Profiler output~~~~~~~~~~
0	37610704	9861904
1	43097296	27033664
2	26935584	17463664
3	23640272	15249200
4	18355200	12446560
5	16262032	9864368
6	11900320	8473184
7	9050944	6257168
8	7141776	5061712
9	6375264	4587968
10	6380240	5073248
11	4911952	3535280
12	4657728	3109216
13	4095984	2824480
14	4164464	3036848
15	3825952	2570048
16	3164960	2026096
17	2635376	1806240
18	2774016	1685440
19	2662896	1819024
20	2074768	1283952
21	1797360	1128240
22	1813008	1102384
23	1773504	1285088
24	1572576	1108928
25	1321984	889136
26	1074960	676688
27	1350560	802928
28	1122000	735104
29	967184	613456
30	907824	514624
31	805440	489712
32	753712	482000
33	852480	623680
34	721936	473104
35	731152	532464
36	608160	426400
37	560080	414096
38	517840	382864
39	589504	448064
40	542912	384368
41	499168	344544
42	493264	370496
43	457328	344352
44	447648	345984
45	434320	349664
46	469680	387952
47	449728	376688
48	410720	338864
49	423104	351136
50	397088	327520
51	373824	306384
52	373040	304176
53	394400	328432
54	374928	317152
55	348144	288016
56	346624	285664
57	343696	280080
58	344976	284416
59	368752	309456
60	353376	292656
61	332736	271440
62	322288	258224
63	321232	255584
64	629984	494560
66	605888	463936
68	634160	500768
70	558192	435488
72	509056	397248
74	501488	397040
76	464704	364944
78	494016	386016
80	460816	350432
82	448256	342576
84	465744	358608
86	442016	325200
88	451712	343520
90	411008	314176
92	442272	304112
94	423648	319568
96	373024	296656
98	378448	311792
100	341520	285072
102	330672	278800
104	349248	300896
106	324592	274112
108	331072	282688
110	322896	274960
112	315984	268736
114	326624	277888
116	292416	245616
118	296080	249216
120	275440	230256
122	266208	223152
124	278912	236032
126	253968	212368
128	525056	437488
132	514368	432736
136	513712	432336
140	484144	399488
144	487264	405232
148	480832	395024
152	439520	358320
156	429920	342464
160	387840	307136
164	386704	307680
168	383552	303024
172	378800	299184
176	375904	292672
180	355792	276752
184	360368	278816
188	360528	279040
192	349216	266032
196	348208	264960
200	339200	256624
204	340176	256800
208	352032	262688
212	348656	258784
216	349424	258176
220	348976	252576
224	362624	268768
228	369728	274656
232	367376	273280
236	367280	273920
240	358448	268320
244	369872	276320
248	369008	276512
252	368064	276208
256	727600	554288
264	733296	566864
272	738112	579952
280	737472	582880
288	747072	604016
296	740208	603712
304	730848	606672
312	731152	613216
320	706560	600304
328	713088	613872
336	698784	608096
344	678752	593632
352	666336	589264
360	632032	565088
368	620368	556720
376	598752	538912
384	581888	525536
392	557296	506560
400	520768	473808
408	503552	460448
416	471856	433888
424	442640	406656
432	407904	376208
440	382240	353264
448	348576	322736
456	315792	291840
464	290032	268640
472	259504	241408
480	233312	216096
488	214816	197792
496	192096	177136
504	174864	161664
512	292096	268464
528	246080	223152
544	197936	180784
560	165520	149440
576	142144	129120
592	123968	111008
608	108752	97648
624	98816	87968
640	86640	76336
656	85024	75664
672	79536	70480
688	75808	66832
704	79312	69488
720	81184	71872
736	75200	65792
752	74416	65568
768	71168	61984
784	69392	59968
800	67376	58880
816	66016	57600
832	62048	54320
848	63632	54960
864	64672	56016
880	61632	53168
896	61056	52560
912	61056	52496
928	59792	52176
944	57488	49520
960	55872	48240
976	56048	48720
992	54096	47296
1008	55152	47568
1024	109504	93856
1056	111568	96432
1088	109008	94704
1120	111904	96160
1152	113200	97232
1184	111008	96576
1216	111904	96720
1248	113728	98176
1280	112368	96864
1312	107856	93168
1344	107504	92608
1376	104544	89728
1408	101408	87056
1440	104736	89120
1472	98912	83712
1504	96704	82656
1536	95600	82032
1568	95104	80176
1600	92672	78784
1632	87152	73264
1664	85552	72144
1696	84608	70032
1728	80832	66512
1760	77152	64864
1792	76816	63872
1824	73776	60464
1856	71984	59104
1888	70128	57984
1920	67952	55088
1952	67968	54640
1984	64176	51680
2016	63856	51184
2048	122048	96224
2112	114768	90688
2176	112992	89600
2240	103872	81504
2304	101312	78928
2368	98272	78320
2432	93728	73840
2496	88848	70400
2560	84176	66992
2624	84032	67168
2688	81040	65504
2752	77216	62144
2816	74688	60272
2880	72224	58800
2944	69616	55920
3008	67600	54544
3072	67408	54752
3136	66480	53744
3200	62416	50448
3264	61312	50608
3328	60112	49728
3392	58544	47408
3456	58848	47312
3520	55952	45856
3584	56560	46320
3648	54256	43408
3712	53872	43136
3776	52112	42880
3840	52864	42864
3904	51152	42464
3968	48784	39408
4032	48160	39200
4096	97792	78304
4224	94112	75504
4352	91600	73152
4480	88672	70816
4608	89552	71120
4736	81472	65792
4864	81824	64992
4992	78560	62576
5120	78304	62736
5248	77632	61744
5376	76432	60128
5504	75552	59184
5632	72256	57920
5760	73392	58512
5888	68528	54432
6016	68288	53904
6144	64912	51712
6272	63360	50736
6400	63504	51376
6528	60496	48432
6656	60240	47968
6784	55440	44320
6912	55776	44672
7040	54000	43408
7168	53616	43248
7296	51248	42320
7424	48000	38432
7552	49344	40176
7680	45760	36480
7808	47088	38048
7936	42288	33792
8064	42944	34368
8192	80256	62560
8448	78480	61168
8704	72816	57616
8960	70352	54736
9216	68480	53584
9472	67248	53408
9728	66000	52528
9984	65696	50704
10240	62768	49392
10496	57664	46048
10752	58368	46720
11008	55648	44464
11264	55808	44400
11520	55296	44192
11776	51392	41216
12032	48944	38064
12288	50128	39600
12544	46992	37024
12800	43536	34688
13056	44624	35440
13312	43568	34656
13568	42640	33232
13824	42896	34336
14080	41360	32912
14336	41424	32624
14592	38976	30832
14848	38480	30016
15104	38080	29648
15360	37024	29376
15616	36304	28368
15872	37136	29136
16128	35840	27392
16384	69360	52960
16896	67680	53424
17408	64704	50880
17920	60896	48368
18432	57328	45776
18944	54512	43888
19456	54256	44016
19968	53024	42400
20480	48368	38320
20992	49296	39728
21504	46240	37056
22016	44480	35376
22528	46640	37600
23040	42672	34416
23552	43296	35168
24064	39936	31968
24576	39824	32112
25088	38928	31184
25600	36400	29744
26112	36960	29936
26624	37040	29904
27136	33808	27072
27648	32192	25472
28160	32320	26096
28672	30688	25344
29184	30208	24208
29696	30016	23968
30208	30096	24288
30720	28032	23008
31232	26752	21776
31744	26720	21472
32256	26320	21504
32768	51440	41152
33792	48848	40032
34816	45792	36864
35840	46736	37744
36864	43584	35280
37888	44880	36752
38912	42176	34368
39936	42416	33952
40960	44384	35504
41984	42448	34448
43008	42816	34496
44032	43328	34640
45056	40176	32816
46080	35616	29088
47104	36848	29760
48128	33760	27920
49152	32272	26224
50176	31216	26112
51200	29616	24960
52224	29920	24832
53248	27152	23024
54272	26640	22736
55296	28256	23952
56320	26176	22160
57344	26544	22240
58368	25728	21760
59392	24272	20512
60416	25024	21152
61440	23120	19536
62464	22864	19728
63488	22704	19376
64512	21104	18016
65536	43040	36624
67584	41952	35280
69632	39728	33616
71680	38176	32464
73728	38160	33024
75776	36032	30512
77824	36960	32288
79872	35424	30656
81920	36080	31248
83968	33152	29232
86016	31840	27264
88064	32928	28928
90112	33008	28832
92160	47712	26464
94208	29840	25968
96256	29584	26096
98304	29168	25408
100352	28304	24592
102400	28256	24496
104448	27104	23376
106496	24704	21584
108544	27168	23744
110592	25424	22016
112640	25152	21952
114688	24720	21664
116736	23968	21200
118784	23200	20640
120832	22896	20528
122880	22848	20272
124928	21648	19184
126976	21168	18704
129024	21920	19184
131072	42976	38416
135168	40800	36288
139264	40016	35216
143360	37456	33408
147456	37408	33440
151552	34784	30928
155648	33456	30240
159744	32912	29312
163840	32080	28464
167936	32304	28384
172032	29984	26720
176128	29296	25840
180224	31040	27456
184320	28224	24976
188416	27696	25024
192512	27488	24608
196608	27968	24672
200704	26592	23856
204800	26064	23360
208896	26240	23600
212992	24832	22368
217088	23584	21376
221184	24672	22112
225280	24496	22272
229376	24960	22736
233472	22288	20080
237568	22592	20176
241664	21264	19696
245760	21840	20160
249856	20464	18384
253952	20992	18848
258048	20464	18624
262144	40416	36800
270336	40976	37504
278528	36064	32432
286720	36128	32768
294912	34320	31136
303104	33152	30336
311296	33744	30288
319488	32400	28944
327680	33696	30912
335872	30352	28064
344064	30624	28000
352256	29840	27216
360448	28080	26144
368640	29520	27424
376832	27168	25376
385024	25392	23104
393216	24768	23136
401408	25536	23552
409600	24256	22320
417792	24192	22000
425984	22800	20832
434176	22976	20848
442368	21184	19664
450560	21040	19264
458752	22064	19920
466944	19712	18352
475136	19712	18400
483328	21712	20080
491520	19792	17840
499712	18688	17392
507904	19216	18112
516096	19024	17280
524288	37104	34576
540672	34544	31888
557056	33696	31152
573440	33456	31376
589824	31568	29184
606208	31632	29632
622592	31744	29552
638976	29568	27760
655360	29168	26960
671744	27392	25792
688128	27328	25552
704512	27856	25968
720896	25408	23808
737280	24800	23264
753664	23584	21968
770048	24144	22832
786432	25264	23808
802816	24368	22560
819200	20432	19360
835584	22528	21328
851968	22272	21216
868352	21104	20192
884736	20512	19472
901120	21328	20496
917504	19280	18032
933888	18912	17760
950272	18976	17984
966656	18256	17392
983040	17536	16704
999424	16992	16128
1015808	16016	15312
1032192	15840	14976
1048576	36928	34336
1081344	31968	30112
1114112	30784	29328
1146880	30320	28736
1179648	28064	26720
1212416	27040	25920
1245184	29504	27696
1277952	25728	24416
1310720	27152	25584
1343488	24880	23904
1376256	24848	23680
1409024	26400	25280
1441792	25264	24144
1474560	23296	22496
1507328	22256	21440
1540096	19408	18480
1572864	19712	18896
1605632	21184	20272
1638400	22176	20848
1671168	20352	19744
1703936	20080	19648
1736704	20096	18992
1769472	19024	18384
1802240	18816	18208
1835008	18240	17568
1867776	19360	18656
1900544	16704	16272
1933312	17424	16816
1966080	16736	16192
1998848	16144	15696
2031616	16304	15744
2064384	15280	14912
2097152	29488	28464
2162688	29024	27936
2228224	28880	28176
2293760	27520	26608
2359296	24544	23424
2424832	23568	22944
2490368	24048	23312
2555904	22624	21696
2621440	22720	21952
2686976	19824	18960
2752512	22192	21360
2818048	22416	20848
2883584	20064	19040
2949120	22160	21248
3014656	21760	20352
3080192	18784	18272
3145728	20464	19504
3211264	19536	18672
3276800	16336	15808
3342336	15664	15328
3407872	15120	14624
3473408	15648	15152
3538944	17200	16304
3604480	14832	14480
3670016	13728	13328
3735552	14112	13808
3801088	12688	12368
3866624	11984	11552
3932160	13472	13152
3997696	13200	12864
4063232	12624	12320
4128768	12560	12112
4194304	26544	25136
4325376	22896	22192
4456448	21328	20736
4587520	20912	20336
4718592	20528	19984
4849664	23152	21792
4980736	19472	18944
5111808	18064	17632
5242880	17280	16928
5373952	16944	16608
5505024	16544	16048
5636096	15872	15472
5767168	16208	15664
5898240	15184	14816
6029312	15696	15264
6160384	13808	13584
6291456	14336	13760
6422528	14032	13808
6553600	13664	13344
6684672	12624	12368
6815744	12480	12000
6946816	12752	12560
7077888	11456	11200
7208960	11952	11696
7340032	12384	12224
7471104	11872	11328
7602176	13216	12592
7733248	10640	10480
7864320	9680	9632
7995392	10496	10224
8126464	9792	9584
8257536	10432	10048
8388608	18352	18064
8650752	19200	18880
8912896	17936	17536
9175040	16128	15824
9437184	16336	15888
9699328	14448	14272
9961472	15280	14928
10223616	13904	13632
10485760	14528	14352
10747904	13664	13152
11010048	12672	12272
11272192	11888	11632
11534336	11472	11344
11796480	11856	11712
12058624	10800	10432
12320768	9936	9808
12582912	9728	9648
12845056	9280	9168
13107200	9360	9168
13369344	9504	9312
13631488	9920	9712
13893632	8800	8496
14155776	9248	9136
14417920	8720	8592
14680064	8608	8544
14942208	7808	7520
15204352	6944	6880
15466496	7520	7424
15728640	6864	6784
15990784	6528	6480
16252928	6912	6800
16515072	5936	5856
16777216	12480	12336
17301504	12544	12272
17825792	12160	12032
18350080	11088	10848
18874368	9488	9408
19398656	9584	9392
19922944	9440	9200
20447232	9472	9264
20971520	8800	8720
21495808	8128	7920
22020096	7888	7872
22544384	8000	7920
23068672	6912	6688
23592960	7408	7232
24117248	6880	6656
24641536	7552	7248
25165824	7056	6832
25690112	6080	5920
26214400	5856	5616
26738688	6224	6000
27262976	5792	5584
27787264	5856	5696
28311552	5392	5232
28835840	5648	5472
29360128	5136	4992
29884416	4672	4640
30408704	4768	4528
30932992	4672	4480
31457280	4944	4784
31981568	5056	4784
32505856	4560	4368
33030144	4704	4560
33554432	9408	9184
34603008	7760	7456
35651584	7584	7376
36700160	8176	7920
37748736	7344	6960
38797312	6752	6656
39845888	7344	7216
40894464	6720	6432
41943040	7152	7008
42991616	6256	6032
44040192	5808	5728
45088768	5184	5072
46137344	5424	5152
47185920	5504	5296
48234496	4144	3840
49283072	4624	4464
50331648	4336	3888
51380224	4768	3520
52428800	4784	4240
53477376	4416	3520
54525952	3728	3024
55574528	3136	2688
56623104	2624	2416
57671680	3568	3376
58720256	3104	2864
59768832	2800	2704
60817408	2416	2160
61865984	3648	3408
62914560	2528	2256
63963136	2432	2336
65011712	2832	2592
66060288	2336	2224
67108864	5008	4256
69206016	3936	3600
71303168	3376	3152
73400320	3648	3184
75497472	3408	3168
77594624	3184	2944
79691776	3568	3280
81788928	5488	5264
83886080	5040	4816
85983232	3888	3616
88080384	3456	3264
90177536	4096	3776
92274688	2528	2464
94371840	2864	2368
96468992	2720	2560
98566144	3104	2800
100663296	2384	2256
102760448	2144	2000
104857600	1584	1328
106954752	1728	1632
109051904	1792	1584
111149056	1536	1264
113246208	1264	1152
115343360	1648	1344
117440512	1184	1008
119537664	1168	1056
121634816	1296	1152
123731968	2640	2240
125829120	4688	4480
127926272	4704	4496
130023424	4336	4176
132120576	3792	3664
134217728	7840	7520
138412032	7168	6912
142606336	6176	5888
146800640	6032	5632
150994944	4752	4464
155189248	5088	4560
159383552	3424	3200
163577856	3328	2960
167772160	2672	2384
171966464	2336	1920
176160768	2384	2176
180355072	2192	1856
184549376	1840	1536
188743680	2032	1680
192937984	1664	1376
197132288	1488	1216
201326592	1456	1072
205520896	1504	1232
209715200	1408	960
213909504	1280	976
218103808	1152	944
222298112	1088	768
226492416	800	576
230686720	944	656
234881024	736	432
239075328	480	352
243269632	784	512
247463936	768	480
251658240	864	592
255852544	496	384
260046848	384	336
264241152	368	336
268435456	592	576
276824064	400	400
285212672	352	336
293601280	320	320
301989888	224	224
310378496	144	128
318767104	128	112
327155712	48	48
335544320	0	0
343932928	0	0
352321536	0	0
360710144	0	0
369098752	0	0
377487360	0	0
385875968	0	0
394264576	0	0
402653184	0	0
411041792	0	0
419430400	0	0
427819008	0	0
436207616	0	0
444596224	0	0
452984832	0	0
461373440	0	0
469762048	0	0
478150656	0	0
486539264	0	0
494927872	0	0
503316480	0	0
511705088	0	0
520093696	0	0
528482304	0	0
536870912	0	0
553648128	0	0
570425344	0	0
587202560	0	0
603979776	0	0
620756992	0	0
637534208	0	0
654311424	0	0
671088640	0	0
687865856	0	0
704643072	0	0
721420288	0	0
738197504	0	0
754974720	0	0
771751936	0	0
788529152	0	0
805306368	0	0
822083584	0	0
838860800	0	0
855638016	0	0
872415232	0	0
889192448	0	0
905969664	0	0
922746880	0	0
939524096	0	0
956301312	0	0
973078528	0	0
989855744	0	0
1006632960	0	0
1023410176	0	0
1040187392	0	0
1056964608	0	0
1073741824	0	0
1107296256	0	0
1140850688	0	0
1174405120	0	0
1207959552	0	0
1241513984	0	0
1275068416	0	0
1308622848	0	0
1342177280	0	0
1375731712	0	0
1409286144	0	0
1442840576	0	0
1476395008	0	0
1509949440	0	0
1543503872	0	0
1577058304	0	0
1610612736	0	0
1644167168	0	0
1677721600	0	0
1711276032	0	0
1744830464	0	0
1778384896	0	0
1811939328	0	0
1845493760	0	0
1879048192	0	0
1912602624	0	0
1946157056	0	0
1979711488	0	0
2013265920	0	0
2046820352	0	0
2080374784	0	0
2113929216	0	0
2147483648	0	0
2214592512	0	0
2281701376	0	0
2348810240	0	0
2415919104	0	0
2483027968	0	0
2550136832	0	0
2617245696	0	0
2684354560	0	0
2751463424	0	0
2818572288	0	0
2885681152	0	0
2952790016	0	0
3019898880	0	0
3087007744	0	0
3154116608	0	0
3221225472	0	0
3288334336	0	0
3355443200	0	0
3422552064	0	0
3489660928	0	0
3556769792	0	0
3623878656	0	0
3690987520	0	0
3758096384	0	0
3825205248	0	0
3892314112	0	0
3959422976	0	0
4026531840	0	0
4093640704	0	0
4160749568	0	0
4227858432	0	0
~~~~~~~~~~Reuse Distance Profiler output end~~~~~~~~~~

Sampler size:30780

DRAM Statistics
 CHANNEL 0
 RQ ROW_BUFFER_HIT:      59732  ROW_BUFFER_MISS:    2150152
 DBUS AVG_CONGESTED_CYCLE:    3.85543
 WQ ROW_BUFFER_HIT:     412069  ROW_BUFFER_MISS:    1243523  FULL:          0


CPU 0 Branch Prediction Accuracy: 84.2883% MPKI: 20.8779 Average ROB Occupancy at Mispredict: 28.8167
Branch type MPKI
BRANCH_DIRECT_JUMP: 2e-06
BRANCH_INDIRECT: 0.950121
BRANCH_CONDITIONAL: 19.9257
BRANCH_DIRECT_CALL: 6.66667e-07
BRANCH_INDIRECT_CALL: 0.002056
BRANCH_RETURN: 6.66667e-07

